@<TRIPOS>MOLECULE
mol53_1_1
 32 34 0 0 0
SMALL
USER_CHARGES
****
VDW energy = 70.36
@<TRIPOS>ATOM
   1 O1        2.7079    -9.8497    -4.4472  O.3     1  <O>11      -0.5032
   2 C1        1.4617   -10.1611    -4.6036  C.ar    1  <O>11       0.1620
   3 C2        0.8050   -10.8783    -3.6012  C.ar    1  <O>11      -0.0157
   4 C3       -0.5391   -11.2290    -3.7692  C.ar    1  <O>11      -0.0454
   5 C4       -1.2224   -10.8607    -4.9311  C.ar    1  <O>11       0.0457
   6 C5       -2.5330   -11.2020    -5.1020  C.ar    1  <O>11       0.0770
   7 N1       -2.9544   -12.3499    -5.6847  N.ar    1  <O>11      -0.2763
   8 N2       -4.3154   -12.4349    -5.5590  N.ar    1  <O>11      -0.1811
   9 C6       -4.6751   -11.2601    -5.0318  C.ar    1  <O>11       0.0575
  10 C7       -3.5456   -10.4742    -4.7291  C.ar    1  <O>11       0.0273
  11 C8       -3.6402    -9.2320    -4.1713  C.ar    1  <O>11      -0.0142
  12 C9       -3.7426    -8.0931    -4.9882  C.ar    1  <O>11      -0.0512
  13 C10      -3.8284    -6.8192    -4.4144  C.ar    1  <O>11      -0.0259
  14 C11      -3.8141    -6.6705    -3.0248  C.ar    1  <O>11       0.1234
  15 F1       -3.8939    -5.4247    -2.4587  F       1  <O>11      -0.2055
  16 C12      -3.7183    -7.8056    -2.2117  C.ar    1  <O>11      -0.0259
  17 C13      -3.6343    -9.0799    -2.7735  C.ar    1  <O>11      -0.0512
  18 C14      -0.5527   -10.1366    -5.9237  C.ar    1  <O>11       0.1713
  19 O2       -1.1898    -9.7971    -6.9976  O.3     1  <O>11      -0.5028
  20 C15       0.7874    -9.7806    -5.7650  C.ar    1  <O>11       0.2012
  21 O3        1.4047    -9.1053    -6.6800  O.3     1  <O>11      -0.5009
  22 H1        3.0183    -9.3568    -5.2229  H       1  <O>11       0.2923
  23 H2       -2.3734   -13.0391    -6.1402  H       1  <O>11       0.1889
  24 H3       -0.5953    -9.3042    -7.5846  H       1  <O>11       0.2923
  25 H4        2.3213    -8.9485    -6.4039  H       1  <O>11       0.2924
  26 H5        1.3082   -11.1481    -2.7415  H       1  <O>11       0.0655
  27 H6       -1.0275   -11.7615    -3.0324  H       1  <O>11       0.0626
  28 H7       -5.6512   -10.9675    -4.8681  H       1  <O>11       0.0854
  29 H8       -3.7547    -8.1963    -6.0150  H       1  <O>11       0.0624
  30 H9       -3.9024    -5.9867    -5.0198  H       1  <O>11       0.0646
  31 H10      -3.7097    -7.6989    -1.1852  H       1  <O>11       0.0646
  32 H11      -3.5680    -9.9099    -2.1639  H       1  <O>11       0.0624
@<TRIPOS>BOND
     1     1     2    1
     2     2     3   ar
     3     3     4   ar
     4     4     5   ar
     5     5     6    1
     6     6     7   ar
     7     7     8   ar
     8     8     9   ar
     9     9    10   ar
    10     6    10   ar
    11    10    11    1
    12    11    12   ar
    13    12    13   ar
    14    13    14   ar
    15    14    15    1
    16    14    16   ar
    17    16    17   ar
    18    11    17   ar
    19     5    18   ar
    20    18    19    1
    21    18    20   ar
    22     2    20   ar
    23    20    21    1
    24     1    22    1
    25     7    23    1
    26    19    24    1
    27    21    25    1
    28     3    26    1
    29     4    27    1
    30     9    28    1
    31    12    29    1
    32    13    30    1
    33    16    31    1
    34    17    32    1
@<TRIPOS>MOLECULE
mol53_1_2
 32 34 0 0 0
SMALL
USER_CHARGES
****
VDW energy = 70.37
@<TRIPOS>ATOM
   1 O1        2.7079    -9.8497    -4.4472  O.3     1  <O>11      -0.5032
   2 C1        1.4617   -10.1611    -4.6036  C.ar    1  <O>11       0.1620
   3 C2        0.8050   -10.8783    -3.6012  C.ar    1  <O>11      -0.0157
   4 C3       -0.5391   -11.2290    -3.7692  C.ar    1  <O>11      -0.0454
   5 C4       -1.2224   -10.8607    -4.9311  C.ar    1  <O>11       0.0457
   6 C5       -2.5330   -11.2020    -5.1020  C.ar    1  <O>11       0.0770
   7 N1       -2.9544   -12.3499    -5.6847  N.ar    1  <O>11      -0.2763
   8 N2       -4.3154   -12.4349    -5.5590  N.ar    1  <O>11      -0.1811
   9 C6       -4.6751   -11.2601    -5.0318  C.ar    1  <O>11       0.0575
  10 C7       -3.5456   -10.4742    -4.7291  C.ar    1  <O>11       0.0273
  11 C8       -3.6402    -9.2320    -4.1713  C.ar    1  <O>11      -0.0142
  12 C9       -3.6362    -9.0792    -2.7742  C.ar    1  <O>11      -0.0512
  13 C10      -3.7446    -7.8055    -2.2039  C.ar    1  <O>11      -0.0259
  14 C11      -3.8562    -6.6760    -3.0196  C.ar    1  <O>11       0.1234
  15 F1       -3.9665    -5.4272    -2.4654  F       1  <O>11      -0.2055
  16 C12      -3.8540    -6.8283    -4.4109  C.ar    1  <O>11      -0.0259
  17 C13      -3.7444    -8.0932    -4.9893  C.ar    1  <O>11      -0.0512
  18 C14      -0.5527   -10.1366    -5.9237  C.ar    1  <O>11       0.1713
  19 O2       -1.1898    -9.7971    -6.9976  O.3     1  <O>11      -0.5028
  20 C15       0.7874    -9.7806    -5.7650  C.ar    1  <O>11       0.2012
  21 O3        1.4047    -9.1053    -6.6800  O.3     1  <O>11      -0.5009
  22 H1        3.0183    -9.3568    -5.2229  H       1  <O>11       0.2923
  23 H2       -2.3734   -13.0391    -6.1402  H       1  <O>11       0.1889
  24 H3       -0.5953    -9.3042    -7.5846  H       1  <O>11       0.2923
  25 H4        2.3213    -8.9485    -6.4039  H       1  <O>11       0.2924
  26 H5        1.3082   -11.1481    -2.7415  H       1  <O>11       0.0655
  27 H6       -1.0275   -11.7615    -3.0324  H       1  <O>11       0.0626
  28 H7       -5.6512   -10.9675    -4.8681  H       1  <O>11       0.0854
  29 H8       -3.5530    -9.9092    -2.1665  H       1  <O>11       0.0624
  30 H9       -3.7420    -7.7000    -1.1774  H       1  <O>11       0.0646
  31 H10      -3.9341    -5.9959    -5.0156  H       1  <O>11       0.0646
  32 H11      -3.7399    -8.1929    -6.0165  H       1  <O>11       0.0624
@<TRIPOS>BOND
     1     1     2    1
     2     2     3   ar
     3     3     4   ar
     4     4     5   ar
     5     5     6    1
     6     6     7   ar
     7     7     8   ar
     8     8     9   ar
     9     9    10   ar
    10     6    10   ar
    11    10    11    1
    12    11    12   ar
    13    12    13   ar
    14    13    14   ar
    15    14    15    1
    16    14    16   ar
    17    16    17   ar
    18    11    17   ar
    19     5    18   ar
    20    18    19    1
    21    18    20   ar
    22     2    20   ar
    23    20    21    1
    24     1    22    1
    25     7    23    1
    26    19    24    1
    27    21    25    1
    28     3    26    1
    29     4    27    1
    30     9    28    1
    31    12    29    1
    32    13    30    1
    33    16    31    1
    34    17    32    1
@<TRIPOS>MOLECULE
mol53_1_3
 32 34 0 0 0
SMALL
USER_CHARGES
****
VDW energy = 70.51
@<TRIPOS>ATOM
   1 O1        2.7079    -9.8497    -4.4472  O.3     1  <O>11      -0.5032
   2 C1        1.4617   -10.1611    -4.6036  C.ar    1  <O>11       0.1620
   3 C2        0.8050   -10.8783    -3.6012  C.ar    1  <O>11      -0.0157
   4 C3       -0.5391   -11.2290    -3.7692  C.ar    1  <O>11      -0.0454
   5 C4       -1.2224   -10.8607    -4.9311  C.ar    1  <O>11       0.0457
   6 C5       -2.5330   -11.2020    -5.1020  C.ar    1  <O>11       0.0770
   7 N1       -3.5797   -10.4364    -4.7107  N.ar    1  <O>11      -0.2763
   8 N2       -4.7385   -11.0076    -5.1650  N.ar    1  <O>11      -0.1811
   9 C6       -4.3512   -12.1752    -5.6886  C.ar    1  <O>11       0.0575
  10 C7       -2.9481   -12.3016    -5.6611  C.ar    1  <O>11       0.0273
  11 C8       -2.2975   -13.3990    -6.1464  C.ar    1  <O>11      -0.0142
  12 C9       -2.0335   -14.4959    -5.3084  C.ar    1  <O>11      -0.0512
  13 C10      -1.3563   -15.6157    -5.8050  C.ar    1  <O>11      -0.0259
  14 C11      -0.9388   -15.6520    -7.1384  C.ar    1  <O>11       0.1234
  15 F1       -0.2718   -16.7449    -7.6279  F       1  <O>11      -0.2055
  16 C12      -1.2075   -14.5618    -7.9740  C.ar    1  <O>11      -0.0259
  17 C13      -1.8835   -13.4418    -7.4894  C.ar    1  <O>11      -0.0512
  18 C14      -0.5527   -10.1366    -5.9237  C.ar    1  <O>11       0.1713
  19 O2       -1.1898    -9.7971    -6.9976  O.3     1  <O>11      -0.5028
  20 C15       0.7874    -9.7806    -5.7650  C.ar    1  <O>11       0.2012
  21 O3        1.4047    -9.1053    -6.6800  O.3     1  <O>11      -0.5009
  22 H1        3.0183    -9.3568    -5.2229  H       1  <O>11       0.2923
  23 H2       -3.5299    -9.5830    -4.1730  H       1  <O>11       0.1889
  24 H3       -0.5953    -9.3042    -7.5846  H       1  <O>11       0.2923
  25 H4        2.3213    -8.9485    -6.4039  H       1  <O>11       0.2924
  26 H5        1.3082   -11.1481    -2.7415  H       1  <O>11       0.0655
  27 H6       -1.0275   -11.7615    -3.0324  H       1  <O>11       0.0626
  28 H7       -4.9948   -12.8896    -6.0635  H       1  <O>11       0.0854
  29 H8       -2.3401   -14.4757    -4.3232  H       1  <O>11       0.0624
  30 H9       -1.1645   -16.4176    -5.1843  H       1  <O>11       0.0646
  31 H10      -0.9022   -14.5868    -8.9596  H       1  <O>11       0.0646
  32 H11      -2.0795   -12.6455    -8.1160  H       1  <O>11       0.0624
@<TRIPOS>BOND
     1     1     2    1
     2     2     3   ar
     3     3     4   ar
     4     4     5   ar
     5     5     6    1
     6     6     7   ar
     7     7     8   ar
     8     8     9   ar
     9     9    10   ar
    10     6    10   ar
    11    10    11    1
    12    11    12   ar
    13    12    13   ar
    14    13    14   ar
    15    14    15    1
    16    14    16   ar
    17    16    17   ar
    18    11    17   ar
    19     5    18   ar
    20    18    19    1
    21    18    20   ar
    22     2    20   ar
    23    20    21    1
    24     1    22    1
    25     7    23    1
    26    19    24    1
    27    21    25    1
    28     3    26    1
    29     4    27    1
    30     9    28    1
    31    12    29    1
    32    13    30    1
    33    16    31    1
    34    17    32    1
@<TRIPOS>MOLECULE
mol53_1_4
 32 34 0 0 0
SMALL
USER_CHARGES
****
VDW energy = 70.52
@<TRIPOS>ATOM
   1 O1        2.7079    -9.8497    -4.4472  O.3     1  <O>11      -0.5032
   2 C1        1.4617   -10.1611    -4.6036  C.ar    1  <O>11       0.1620
   3 C2        0.8050   -10.8783    -3.6012  C.ar    1  <O>11      -0.0157
   4 C3       -0.5391   -11.2290    -3.7692  C.ar    1  <O>11      -0.0454
   5 C4       -1.2224   -10.8607    -4.9311  C.ar    1  <O>11       0.0457
   6 C5       -2.5330   -11.2020    -5.1020  C.ar    1  <O>11       0.0770
   7 N1       -3.5797   -10.4364    -4.7107  N.ar    1  <O>11      -0.2763
   8 N2       -4.7385   -11.0076    -5.1650  N.ar    1  <O>11      -0.1811
   9 C6       -4.3512   -12.1752    -5.6886  C.ar    1  <O>11       0.0575
  10 C7       -2.9481   -12.3016    -5.6611  C.ar    1  <O>11       0.0273
  11 C8       -2.2975   -13.3990    -6.1464  C.ar    1  <O>11      -0.0142
  12 C9       -1.8849   -13.4433    -7.4891  C.ar    1  <O>11      -0.0512
  13 C10      -1.2277   -14.5741    -7.9878  C.ar    1  <O>11      -0.0259
  14 C11      -0.9757   -15.6670    -7.1539  C.ar    1  <O>11       0.1234
  15 F1       -0.3360   -16.7780    -7.6391  F       1  <O>11      -0.2055
  16 C12      -1.3814   -15.6198    -5.8152  C.ar    1  <O>11      -0.0259
  17 C13      -2.0354   -14.4967    -5.3078  C.ar    1  <O>11      -0.0512
  18 C14      -0.5527   -10.1366    -5.9237  C.ar    1  <O>11       0.1713
  19 O2       -1.1898    -9.7971    -6.9976  O.3     1  <O>11      -0.5028
  20 C15       0.7874    -9.7806    -5.7650  C.ar    1  <O>11       0.2012
  21 O3        1.4047    -9.1053    -6.6800  O.3     1  <O>11      -0.5009
  22 H1        3.0183    -9.3568    -5.2229  H       1  <O>11       0.2923
  23 H2       -3.5299    -9.5830    -4.1730  H       1  <O>11       0.1889
  24 H3       -0.5953    -9.3042    -7.5846  H       1  <O>11       0.2923
  25 H4        2.3213    -8.9485    -6.4039  H       1  <O>11       0.2924
  26 H5        1.3082   -11.1481    -2.7415  H       1  <O>11       0.0655
  27 H6       -1.0275   -11.7615    -3.0324  H       1  <O>11       0.0626
  28 H7       -4.9948   -12.8896    -6.0635  H       1  <O>11       0.0854
  29 H8       -2.0671   -12.6391    -8.1097  H       1  <O>11       0.0624
  30 H9       -0.9281   -14.6009    -8.9750  H       1  <O>11       0.0646
  31 H10      -1.1947   -16.4245    -5.1966  H       1  <O>11       0.0646
  32 H11      -2.3263   -14.4716    -4.3179  H       1  <O>11       0.0624
@<TRIPOS>BOND
     1     1     2    1
     2     2     3   ar
     3     3     4   ar
     4     4     5   ar
     5     5     6    1
     6     6     7   ar
     7     7     8   ar
     8     8     9   ar
     9     9    10   ar
    10     6    10   ar
    11    10    11    1
    12    11    12   ar
    13    12    13   ar
    14    13    14   ar
    15    14    15    1
    16    14    16   ar
    17    16    17   ar
    18    11    17   ar
    19     5    18   ar
    20    18    19    1
    21    18    20   ar
    22     2    20   ar
    23    20    21    1
    24     1    22    1
    25     7    23    1
    26    19    24    1
    27    21    25    1
    28     3    26    1
    29     4    27    1
    30     9    28    1
    31    12    29    1
    32    13    30    1
    33    16    31    1
    34    17    32    1
@<TRIPOS>MOLECULE
mol53_1_5
 32 34 0 0 0
SMALL
USER_CHARGES
****
VDW energy = 72.40
@<TRIPOS>ATOM
   1 O1        2.7079    -9.8497    -4.4472  O.3     1  <O>11      -0.5032
   2 C1        1.4617   -10.1611    -4.6036  C.ar    1  <O>11       0.1620
   3 C2        0.8050   -10.8783    -3.6012  C.ar    1  <O>11      -0.0157
   4 C3       -0.5391   -11.2290    -3.7692  C.ar    1  <O>11      -0.0454
   5 C4       -1.2224   -10.8607    -4.9311  C.ar    1  <O>11       0.0457
   6 C5       -2.5330   -11.2020    -5.1020  C.ar    1  <O>11       0.0770
   7 N1       -3.5797   -10.4364    -4.7107  N.ar    1  <O>11      -0.2763
   8 N2       -4.7385   -11.0076    -5.1650  N.ar    1  <O>11      -0.1811
   9 C6       -4.3512   -12.1752    -5.6886  C.ar    1  <O>11       0.0575
  10 C7       -2.9481   -12.3016    -5.6611  C.ar    1  <O>11       0.0273
  11 C8       -2.2975   -13.3990    -6.1464  C.ar    1  <O>11      -0.0142
  12 C9       -1.4917   -14.1787    -5.2992  C.ar    1  <O>11      -0.0512
  13 C10      -0.8164   -15.2972    -5.8013  C.ar    1  <O>11      -0.0259
  14 C11      -0.9395   -15.6478    -7.1487  C.ar    1  <O>11       0.1234
  15 F1       -0.2768   -16.7401    -7.6455  F       1  <O>11      -0.2055
  16 C12      -1.7471   -14.8745    -7.9905  C.ar    1  <O>11      -0.0259
  17 C13      -2.4259   -13.7589    -7.4995  C.ar    1  <O>11      -0.0512
  18 C14      -0.5527   -10.1366    -5.9237  C.ar    1  <O>11       0.1713
  19 O2       -1.1898    -9.7971    -6.9976  O.3     1  <O>11      -0.5028
  20 C15       0.7874    -9.7806    -5.7650  C.ar    1  <O>11       0.2012
  21 O3        1.4047    -9.1053    -6.6800  O.3     1  <O>11      -0.5009
  22 H1        3.0183    -9.3568    -5.2229  H       1  <O>11       0.2923
  23 H2       -3.5299    -9.5830    -4.1730  H       1  <O>11       0.1889
  24 H3       -0.5953    -9.3042    -7.5846  H       1  <O>11       0.2923
  25 H4        2.3213    -8.9485    -6.4039  H       1  <O>11       0.2924
  26 H5        1.3082   -11.1481    -2.7415  H       1  <O>11       0.0655
  27 H6       -1.0275   -11.7615    -3.0324  H       1  <O>11       0.0626
  28 H7       -4.9948   -12.8896    -6.0635  H       1  <O>11       0.0854
  29 H8       -1.3975   -13.9257    -4.3031  H       1  <O>11       0.0624
  30 H9       -0.2253   -15.8652    -5.1743  H       1  <O>11       0.0646
  31 H10      -1.8415   -15.1323    -8.9853  H       1  <O>11       0.0646
  32 H11      -3.0217   -13.1985    -8.1288  H       1  <O>11       0.0624
@<TRIPOS>BOND
     1     1     2    1
     2     2     3   ar
     3     3     4   ar
     4     4     5   ar
     5     5     6    1
     6     6     7   ar
     7     7     8   ar
     8     8     9   ar
     9     9    10   ar
    10     6    10   ar
    11    10    11    1
    12    11    12   ar
    13    12    13   ar
    14    13    14   ar
    15    14    15    1
    16    14    16   ar
    17    16    17   ar
    18    11    17   ar
    19     5    18   ar
    20    18    19    1
    21    18    20   ar
    22     2    20   ar
    23    20    21    1
    24     1    22    1
    25     7    23    1
    26    19    24    1
    27    21    25    1
    28     3    26    1
    29     4    27    1
    30     9    28    1
    31    12    29    1
    32    13    30    1
    33    16    31    1
    34    17    32    1
@<TRIPOS>MOLECULE
mol53_1_6
 32 34 0 0 0
SMALL
USER_CHARGES
****
VDW energy = 72.98
@<TRIPOS>ATOM
   1 O1        2.7079    -9.8497    -4.4472  O.3     1  <O>11      -0.5032
   2 C1        1.4617   -10.1611    -4.6036  C.ar    1  <O>11       0.1620
   3 C2        0.8050   -10.8783    -3.6012  C.ar    1  <O>11      -0.0157
   4 C3       -0.5391   -11.2290    -3.7692  C.ar    1  <O>11      -0.0454
   5 C4       -1.2224   -10.8607    -4.9311  C.ar    1  <O>11       0.0457
   6 C5       -2.5330   -11.2020    -5.1020  C.ar    1  <O>11       0.0770
   7 N1       -3.5797   -10.4364    -4.7107  N.ar    1  <O>11      -0.2763
   8 N2       -4.7385   -11.0076    -5.1650  N.ar    1  <O>11      -0.1811
   9 C6       -4.3512   -12.1752    -5.6886  C.ar    1  <O>11       0.0575
  10 C7       -2.9481   -12.3016    -5.6611  C.ar    1  <O>11       0.0273
  11 C8       -2.2975   -13.3990    -6.1464  C.ar    1  <O>11      -0.0142
  12 C9       -2.4775   -13.7979    -7.4819  C.ar    1  <O>11      -0.0512
  13 C10      -1.8181   -14.9300    -7.9746  C.ar    1  <O>11      -0.0259
  14 C11      -0.9747   -15.6714    -7.1426  C.ar    1  <O>11       0.1234
  15 F1       -0.3300   -16.7830    -7.6198  F       1  <O>11      -0.2055
  16 C12      -0.7910   -15.2701    -5.8144  C.ar    1  <O>11      -0.0259
  17 C13      -1.4420   -14.1421    -5.3140  C.ar    1  <O>11      -0.0512
  18 C14      -0.5527   -10.1366    -5.9237  C.ar    1  <O>11       0.1713
  19 O2       -1.1898    -9.7971    -6.9976  O.3     1  <O>11      -0.5028
  20 C15       0.7874    -9.7806    -5.7650  C.ar    1  <O>11       0.2012
  21 O3        1.4047    -9.1053    -6.6800  O.3     1  <O>11      -0.5009
  22 H1        3.0183    -9.3568    -5.2229  H       1  <O>11       0.2923
  23 H2       -3.5299    -9.5830    -4.1730  H       1  <O>11       0.1889
  24 H3       -0.5953    -9.3042    -7.5846  H       1  <O>11       0.2923
  25 H4        2.3213    -8.9485    -6.4039  H       1  <O>11       0.2924
  26 H5        1.3082   -11.1481    -2.7415  H       1  <O>11       0.0655
  27 H6       -1.0275   -11.7615    -3.0324  H       1  <O>11       0.0626
  28 H7       -4.9948   -12.8896    -6.0635  H       1  <O>11       0.0854
  29 H8       -3.0982   -13.2540    -8.1016  H       1  <O>11       0.0624
  30 H9       -1.9553   -15.2183    -8.9560  H       1  <O>11       0.0646
  31 H10      -0.1671   -15.8145    -5.1984  H       1  <O>11       0.0646
  32 H11      -1.2959   -13.8535    -4.3340  H       1  <O>11       0.0624
@<TRIPOS>BOND
     1     1     2    1
     2     2     3   ar
     3     3     4   ar
     4     4     5   ar
     5     5     6    1
     6     6     7   ar
     7     7     8   ar
     8     8     9   ar
     9     9    10   ar
    10     6    10   ar
    11    10    11    1
    12    11    12   ar
    13    12    13   ar
    14    13    14   ar
    15    14    15    1
    16    14    16   ar
    17    16    17   ar
    18    11    17   ar
    19     5    18   ar
    20    18    19    1
    21    18    20   ar
    22     2    20   ar
    23    20    21    1
    24     1    22    1
    25     7    23    1
    26    19    24    1
    27    21    25    1
    28     3    26    1
    29     4    27    1
    30     9    28    1
    31    12    29    1
    32    13    30    1
    33    16    31    1
    34    17    32    1
@<TRIPOS>MOLECULE
mol53_1_7
 32 34 0 0 0
SMALL
USER_CHARGES
****
VDW energy = 73.07
@<TRIPOS>ATOM
   1 O1        2.7079    -9.8497    -4.4472  O.3     1  <O>11      -0.5032
   2 C1        1.4617   -10.1611    -4.6036  C.ar    1  <O>11       0.1620
   3 C2        0.8050   -10.8783    -3.6012  C.ar    1  <O>11      -0.0157
   4 C3       -0.5391   -11.2290    -3.7692  C.ar    1  <O>11      -0.0454
   5 C4       -1.2224   -10.8607    -4.9311  C.ar    1  <O>11       0.0457
   6 C5       -2.5330   -11.2020    -5.1020  C.ar    1  <O>11       0.0770
   7 N1       -2.9544   -12.3499    -5.6847  N.ar    1  <O>11      -0.2763
   8 N2       -4.3154   -12.4349    -5.5590  N.ar    1  <O>11      -0.1811
   9 C6       -4.6751   -11.2601    -5.0318  C.ar    1  <O>11       0.0575
  10 C7       -3.5456   -10.4742    -4.7291  C.ar    1  <O>11       0.0273
  11 C8       -3.6402    -9.2320    -4.1713  C.ar    1  <O>11      -0.0142
  12 C9       -3.1311    -8.1099    -4.8470  C.ar    1  <O>11      -0.0512
  13 C10      -3.2191    -6.8384    -4.2683  C.ar    1  <O>11      -0.0259
  14 C11      -3.8152    -6.6751    -3.0147  C.ar    1  <O>11       0.1234
  15 F1       -3.9000    -5.4324    -2.4425  F       1  <O>11      -0.2055
  16 C12      -4.3276    -7.7921    -2.3451  C.ar    1  <O>11      -0.0259
  17 C13      -4.2466    -9.0635    -2.9140  C.ar    1  <O>11      -0.0512
  18 C14      -0.5527   -10.1366    -5.9237  C.ar    1  <O>11       0.1713
  19 O2       -1.1898    -9.7971    -6.9976  O.3     1  <O>11      -0.5028
  20 C15       0.7874    -9.7806    -5.7650  C.ar    1  <O>11       0.2012
  21 O3        1.4047    -9.1053    -6.6800  O.3     1  <O>11      -0.5009
  22 H1        3.0183    -9.3568    -5.2229  H       1  <O>11       0.2923
  23 H2       -2.3734   -13.0391    -6.1402  H       1  <O>11       0.1889
  24 H3       -0.5953    -9.3042    -7.5846  H       1  <O>11       0.2923
  25 H4        2.3213    -8.9485    -6.4039  H       1  <O>11       0.2924
  26 H5        1.3082   -11.1481    -2.7415  H       1  <O>11       0.0655
  27 H6       -1.0275   -11.7615    -3.0324  H       1  <O>11       0.0626
  28 H7       -5.6512   -10.9675    -4.8681  H       1  <O>11       0.0854
  29 H8       -2.6906    -8.2237    -5.7734  H       1  <O>11       0.0624
  30 H9       -2.8424    -6.0184    -4.7692  H       1  <O>11       0.0646
  31 H10      -4.7702    -7.6742    -1.4203  H       1  <O>11       0.0646
  32 H11      -4.6315    -9.8793    -2.4126  H       1  <O>11       0.0624
@<TRIPOS>BOND
     1     1     2    1
     2     2     3   ar
     3     3     4   ar
     4     4     5   ar
     5     5     6    1
     6     6     7   ar
     7     7     8   ar
     8     8     9   ar
     9     9    10   ar
    10     6    10   ar
    11    10    11    1
    12    11    12   ar
    13    12    13   ar
    14    13    14   ar
    15    14    15    1
    16    14    16   ar
    17    16    17   ar
    18    11    17   ar
    19     5    18   ar
    20    18    19    1
    21    18    20   ar
    22     2    20   ar
    23    20    21    1
    24     1    22    1
    25     7    23    1
    26    19    24    1
    27    21    25    1
    28     3    26    1
    29     4    27    1
    30     9    28    1
    31    12    29    1
    32    13    30    1
    33    16    31    1
    34    17    32    1
@<TRIPOS>MOLECULE
mol53_1_8
 32 34 0 0 0
SMALL
USER_CHARGES
****
VDW energy = 73.79
@<TRIPOS>ATOM
   1 O1        2.7079    -9.8497    -4.4472  O.3     1  <O>11      -0.5032
   2 C1        1.4617   -10.1611    -4.6036  C.ar    1  <O>11       0.1620
   3 C2        0.8050   -10.8783    -3.6012  C.ar    1  <O>11      -0.0157
   4 C3       -0.5391   -11.2290    -3.7692  C.ar    1  <O>11      -0.0454
   5 C4       -1.2224   -10.8607    -4.9311  C.ar    1  <O>11       0.0457
   6 C5       -2.5330   -11.2020    -5.1020  C.ar    1  <O>11       0.0770
   7 N1       -2.9544   -12.3499    -5.6847  N.ar    1  <O>11      -0.2763
   8 N2       -4.3154   -12.4349    -5.5590  N.ar    1  <O>11      -0.1811
   9 C6       -4.6751   -11.2601    -5.0318  C.ar    1  <O>11       0.0575
  10 C7       -3.5456   -10.4742    -4.7291  C.ar    1  <O>11       0.0273
  11 C8       -3.6402    -9.2320    -4.1713  C.ar    1  <O>11      -0.0142
  12 C9       -4.3046    -9.0531    -2.9459  C.ar    1  <O>11      -0.0512
  13 C10      -4.4103    -7.7767    -2.3809  C.ar    1  <O>11      -0.0259
  14 C11      -3.8547    -6.6710    -3.0306  C.ar    1  <O>11       0.1234
  15 F1       -3.9593    -5.4188    -2.4829  F       1  <O>11      -0.2055
  16 C12      -3.1878    -6.8508    -4.2478  C.ar    1  <O>11      -0.0259
  17 C13      -3.0752    -8.1189    -4.8184  C.ar    1  <O>11      -0.0512
  18 C14      -0.5527   -10.1366    -5.9237  C.ar    1  <O>11       0.1713
  19 O2       -1.1898    -9.7971    -6.9976  O.3     1  <O>11      -0.5028
  20 C15       0.7874    -9.7806    -5.7650  C.ar    1  <O>11       0.2012
  21 O3        1.4047    -9.1053    -6.6800  O.3     1  <O>11      -0.5009
  22 H1        3.0183    -9.3568    -5.2229  H       1  <O>11       0.2923
  23 H2       -2.3734   -13.0391    -6.1402  H       1  <O>11       0.1889
  24 H3       -0.5953    -9.3042    -7.5846  H       1  <O>11       0.2923
  25 H4        2.3213    -8.9485    -6.4039  H       1  <O>11       0.2924
  26 H5        1.3082   -11.1481    -2.7415  H       1  <O>11       0.0655
  27 H6       -1.0275   -11.7615    -3.0324  H       1  <O>11       0.0626
  28 H7       -5.6512   -10.9675    -4.8681  H       1  <O>11       0.0854
  29 H8       -4.7162    -9.8657    -2.4607  H       1  <O>11       0.0624
  30 H9       -4.9004    -7.6518    -1.4814  H       1  <O>11       0.0646
  31 H10      -2.7747    -6.0364    -4.7287  H       1  <O>11       0.0646
  32 H11      -2.5777    -8.2400    -5.7145  H       1  <O>11       0.0624
@<TRIPOS>BOND
     1     1     2    1
     2     2     3   ar
     3     3     4   ar
     4     4     5   ar
     5     5     6    1
     6     6     7   ar
     7     7     8   ar
     8     8     9   ar
     9     9    10   ar
    10     6    10   ar
    11    10    11    1
    12    11    12   ar
    13    12    13   ar
    14    13    14   ar
    15    14    15    1
    16    14    16   ar
    17    16    17   ar
    18    11    17   ar
    19     5    18   ar
    20    18    19    1
    21    18    20   ar
    22     2    20   ar
    23    20    21    1
    24     1    22    1
    25     7    23    1
    26    19    24    1
    27    21    25    1
    28     3    26    1
    29     4    27    1
    30     9    28    1
    31    12    29    1
    32    13    30    1
    33    16    31    1
    34    17    32    1
@<TRIPOS>MOLECULE
mol53_1_9
 32 34 0 0 0
SMALL
USER_CHARGES
****
VDW energy = 74.07
@<TRIPOS>ATOM
   1 O1        2.7079    -9.8497    -4.4472  O.3     1  <O>11      -0.5032
   2 C1        1.4617   -10.1611    -4.6036  C.ar    1  <O>11       0.1620
   3 C2        0.8050   -10.8783    -3.6012  C.ar    1  <O>11      -0.0157
   4 C3       -0.5391   -11.2290    -3.7692  C.ar    1  <O>11      -0.0454
   5 C4       -1.2224   -10.8607    -4.9311  C.ar    1  <O>11       0.0457
   6 C5       -2.5330   -11.2020    -5.1020  C.ar    1  <O>11       0.0770
   7 N1       -2.9972   -11.9684    -6.1179  N.ar    1  <O>11      -0.2763
   8 N2       -4.3237   -12.2314    -5.9017  N.ar    1  <O>11      -0.1811
   9 C6       -4.6410   -11.4892    -4.8359  C.ar    1  <O>11       0.0575
  10 C7       -3.5045   -10.8390    -4.3156  C.ar    1  <O>11       0.0273
  11 C8       -3.5572   -10.0272    -3.2194  C.ar    1  <O>11      -0.0142
  12 C9       -3.8085    -8.6523    -3.3660  C.ar    1  <O>11      -0.0512
  13 C10      -3.8512    -7.8196    -2.2417  C.ar    1  <O>11      -0.0259
  14 C11      -3.6455    -8.3495    -0.9648  C.ar    1  <O>11       0.1234
  15 F1       -3.6824    -7.5371     0.1386  F       1  <O>11      -0.2055
  16 C12      -3.4014    -9.7199    -0.8190  C.ar    1  <O>11      -0.0259
  17 C13      -3.3588   -10.5588    -1.9330  C.ar    1  <O>11      -0.0512
  18 C14      -0.5527   -10.1366    -5.9237  C.ar    1  <O>11       0.1713
  19 O2       -1.1898    -9.7971    -6.9976  O.3     1  <O>11      -0.5028
  20 C15       0.7874    -9.7806    -5.7650  C.ar    1  <O>11       0.2012
  21 O3        1.4047    -9.1053    -6.6800  O.3     1  <O>11      -0.5009
  22 H1        3.0183    -9.3568    -5.2229  H       1  <O>11       0.2923
  23 H2       -2.4656   -12.2992    -6.9103  H       1  <O>11       0.1889
  24 H3       -0.5953    -9.3042    -7.5846  H       1  <O>11       0.2923
  25 H4        2.3213    -8.9485    -6.4039  H       1  <O>11       0.2924
  26 H5        1.3082   -11.1481    -2.7415  H       1  <O>11       0.0655
  27 H6       -1.0275   -11.7615    -3.0324  H       1  <O>11       0.0626
  28 H7       -5.5927   -11.4038    -4.4458  H       1  <O>11       0.0854
  29 H8       -3.9623    -8.2551    -4.3060  H       1  <O>11       0.0624
  30 H9       -4.0352    -6.8106    -2.3560  H       1  <O>11       0.0646
  31 H10      -3.2512   -10.1143     0.1228  H       1  <O>11       0.0646
  32 H11      -3.1819   -11.5684    -1.8129  H       1  <O>11       0.0624
@<TRIPOS>BOND
     1     1     2    1
     2     2     3   ar
     3     3     4   ar
     4     4     5   ar
     5     5     6    1
     6     6     7   ar
     7     7     8   ar
     8     8     9   ar
     9     9    10   ar
    10     6    10   ar
    11    10    11    1
    12    11    12   ar
    13    12    13   ar
    14    13    14   ar
    15    14    15    1
    16    14    16   ar
    17    16    17   ar
    18    11    17   ar
    19     5    18   ar
    20    18    19    1
    21    18    20   ar
    22     2    20   ar
    23    20    21    1
    24     1    22    1
    25     7    23    1
    26    19    24    1
    27    21    25    1
    28     3    26    1
    29     4    27    1
    30     9    28    1
    31    12    29    1
    32    13    30    1
    33    16    31    1
    34    17    32    1
@<TRIPOS>MOLECULE
mol53_1_10
 32 34 0 0 0
SMALL
USER_CHARGES
****
VDW energy = 74.08
@<TRIPOS>ATOM
   1 O1        2.7079    -9.8497    -4.4472  O.3     1  <O>11      -0.5032
   2 C1        1.4617   -10.1611    -4.6036  C.ar    1  <O>11       0.1620
   3 C2        0.8050   -10.8783    -3.6012  C.ar    1  <O>11      -0.0157
   4 C3       -0.5391   -11.2290    -3.7692  C.ar    1  <O>11      -0.0454
   5 C4       -1.2224   -10.8607    -4.9311  C.ar    1  <O>11       0.0457
   6 C5       -2.5330   -11.2020    -5.1020  C.ar    1  <O>11       0.0770
   7 N1       -2.9972   -11.9684    -6.1179  N.ar    1  <O>11      -0.2763
   8 N2       -4.3237   -12.2314    -5.9017  N.ar    1  <O>11      -0.1811
   9 C6       -4.6410   -11.4892    -4.8359  C.ar    1  <O>11       0.0575
  10 C7       -3.5045   -10.8390    -4.3156  C.ar    1  <O>11       0.0273
  11 C8       -3.5572   -10.0272    -3.2194  C.ar    1  <O>11      -0.0142
  12 C9       -3.3608   -10.5581    -1.9331  C.ar    1  <O>11      -0.0512
  13 C10      -3.4263    -9.7260    -0.8094  C.ar    1  <O>11      -0.0259
  14 C11      -3.6863    -8.3608    -0.9584  C.ar    1  <O>11       0.1234
  15 F1       -3.7552    -7.5430     0.1395  F       1  <O>11      -0.2055
  16 C12      -3.8757    -7.8317    -2.2402  C.ar    1  <O>11      -0.0259
  17 C13      -3.8105    -8.6521    -3.3668  C.ar    1  <O>11      -0.0512
  18 C14      -0.5527   -10.1366    -5.9237  C.ar    1  <O>11       0.1713
  19 O2       -1.1898    -9.7971    -6.9976  O.3     1  <O>11      -0.5028
  20 C15       0.7874    -9.7806    -5.7650  C.ar    1  <O>11       0.2012
  21 O3        1.4047    -9.1053    -6.6800  O.3     1  <O>11      -0.5009
  22 H1        3.0183    -9.3568    -5.2229  H       1  <O>11       0.2923
  23 H2       -2.4656   -12.2992    -6.9103  H       1  <O>11       0.1889
  24 H3       -0.5953    -9.3042    -7.5846  H       1  <O>11       0.2923
  25 H4        2.3213    -8.9485    -6.4039  H       1  <O>11       0.2924
  26 H5        1.3082   -11.1481    -2.7415  H       1  <O>11       0.0655
  27 H6       -1.0275   -11.7615    -3.0324  H       1  <O>11       0.0626
  28 H7       -5.5927   -11.4038    -4.4458  H       1  <O>11       0.0854
  29 H8       -3.1674   -11.5651    -1.8165  H       1  <O>11       0.0624
  30 H9       -3.2821   -10.1220     0.1326  H       1  <O>11       0.0646
  31 H10      -4.0657    -6.8237    -2.3533  H       1  <O>11       0.0646
  32 H11      -3.9479    -8.2500    -4.3073  H       1  <O>11       0.0624
@<TRIPOS>BOND
     1     1     2    1
     2     2     3   ar
     3     3     4   ar
     4     4     5   ar
     5     5     6    1
     6     6     7   ar
     7     7     8   ar
     8     8     9   ar
     9     9    10   ar
    10     6    10   ar
    11    10    11    1
    12    11    12   ar
    13    12    13   ar
    14    13    14   ar
    15    14    15    1
    16    14    16   ar
    17    16    17   ar
    18    11    17   ar
    19     5    18   ar
    20    18    19    1
    21    18    20   ar
    22     2    20   ar
    23    20    21    1
    24     1    22    1
    25     7    23    1
    26    19    24    1
    27    21    25    1
    28     3    26    1
    29     4    27    1
    30     9    28    1
    31    12    29    1
    32    13    30    1
    33    16    31    1
    34    17    32    1
@<TRIPOS>MOLECULE
mol53_1_11
 32 34 0 0 0
SMALL
USER_CHARGES
****
VDW energy = 74.38
@<TRIPOS>ATOM
   1 O1        2.7079    -9.8497    -4.4472  O.3     1  <O>11      -0.5032
   2 C1        1.4617   -10.1611    -4.6036  C.ar    1  <O>11       0.1620
   3 C2        0.8050   -10.8783    -3.6012  C.ar    1  <O>11      -0.0157
   4 C3       -0.5391   -11.2290    -3.7692  C.ar    1  <O>11      -0.0454
   5 C4       -1.2224   -10.8607    -4.9311  C.ar    1  <O>11       0.0457
   6 C5       -2.5330   -11.2020    -5.1020  C.ar    1  <O>11       0.0770
   7 N1       -3.5388   -10.3112    -5.2743  N.ar    1  <O>11      -0.2763
   8 N2       -4.6901   -10.9954    -5.5604  N.ar    1  <O>11      -0.1811
   9 C6       -4.3605   -12.2817    -5.4047  C.ar    1  <O>11       0.0575
  10 C7       -2.9871   -12.4216    -5.1226  C.ar    1  <O>11       0.0273
  11 C8       -2.3944   -13.6360    -4.9300  C.ar    1  <O>11      -0.0142
  12 C9       -2.3284   -14.1973    -3.6433  C.ar    1  <O>11      -0.0512
  13 C10      -1.7103   -15.4376    -3.4460  C.ar    1  <O>11      -0.0259
  14 C11      -1.1553   -16.1277    -4.5273  C.ar    1  <O>11       0.1234
  15 F1       -0.5457   -17.3407    -4.3381  F       1  <O>11      -0.2055
  16 C12      -1.2269   -15.5710    -5.8094  C.ar    1  <O>11      -0.0259
  17 C13      -1.8425   -14.3363    -6.0171  C.ar    1  <O>11      -0.0512
  18 C14      -0.5527   -10.1366    -5.9237  C.ar    1  <O>11       0.1713
  19 O2       -1.1898    -9.7971    -6.9976  O.3     1  <O>11      -0.5028
  20 C15       0.7874    -9.7806    -5.7650  C.ar    1  <O>11       0.2012
  21 O3        1.4047    -9.1053    -6.6800  O.3     1  <O>11      -0.5009
  22 H1        3.0183    -9.3568    -5.2229  H       1  <O>11       0.2923
  23 H2       -3.4672    -9.3061    -5.2066  H       1  <O>11       0.1889
  24 H3       -0.5953    -9.3042    -7.5846  H       1  <O>11       0.2923
  25 H4        2.3213    -8.9485    -6.4039  H       1  <O>11       0.2924
  26 H5        1.3082   -11.1481    -2.7415  H       1  <O>11       0.0655
  27 H6       -1.0275   -11.7615    -3.0324  H       1  <O>11       0.0626
  28 H7       -5.0242   -13.0683    -5.4811  H       1  <O>11       0.0854
  29 H8       -2.7372   -13.6932    -2.8408  H       1  <O>11       0.0624
  30 H9       -1.6641   -15.8440    -2.4985  H       1  <O>11       0.0646
  31 H10      -0.8199   -16.0793    -6.6100  H       1  <O>11       0.0646
  32 H11      -1.8928   -13.9375    -6.9676  H       1  <O>11       0.0624
@<TRIPOS>BOND
     1     1     2    1
     2     2     3   ar
     3     3     4   ar
     4     4     5   ar
     5     5     6    1
     6     6     7   ar
     7     7     8   ar
     8     8     9   ar
     9     9    10   ar
    10     6    10   ar
    11    10    11    1
    12    11    12   ar
    13    12    13   ar
    14    13    14   ar
    15    14    15    1
    16    14    16   ar
    17    16    17   ar
    18    11    17   ar
    19     5    18   ar
    20    18    19    1
    21    18    20   ar
    22     2    20   ar
    23    20    21    1
    24     1    22    1
    25     7    23    1
    26    19    24    1
    27    21    25    1
    28     3    26    1
    29     4    27    1
    30     9    28    1
    31    12    29    1
    32    13    30    1
    33    16    31    1
    34    17    32    1
@<TRIPOS>MOLECULE
mol53_1_12
 32 34 0 0 0
SMALL
USER_CHARGES
****
VDW energy = 74.39
@<TRIPOS>ATOM
   1 O1        2.7079    -9.8497    -4.4472  O.3     1  <O>11      -0.5032
   2 C1        1.4617   -10.1611    -4.6036  C.ar    1  <O>11       0.1620
   3 C2        0.8050   -10.8783    -3.6012  C.ar    1  <O>11      -0.0157
   4 C3       -0.5391   -11.2290    -3.7692  C.ar    1  <O>11      -0.0454
   5 C4       -1.2224   -10.8607    -4.9311  C.ar    1  <O>11       0.0457
   6 C5       -2.5330   -11.2020    -5.1020  C.ar    1  <O>11       0.0770
   7 N1       -3.5388   -10.3112    -5.2743  N.ar    1  <O>11      -0.2763
   8 N2       -4.6901   -10.9954    -5.5604  N.ar    1  <O>11      -0.1811
   9 C6       -4.3605   -12.2817    -5.4047  C.ar    1  <O>11       0.0575
  10 C7       -2.9871   -12.4216    -5.1226  C.ar    1  <O>11       0.0273
  11 C8       -2.3944   -13.6360    -4.9300  C.ar    1  <O>11      -0.0142
  12 C9       -1.8441   -14.3375    -6.0163  C.ar    1  <O>11      -0.0512
  13 C10      -1.2466   -15.5878    -5.8184  C.ar    1  <O>11      -0.0259
  14 C11      -1.1917   -16.1473    -4.5388  C.ar    1  <O>11       0.1234
  15 F1       -0.6111   -17.3731    -4.3410  F       1  <O>11      -0.2055
  16 C12      -1.7344   -15.4453    -3.4564  C.ar    1  <O>11      -0.0259
  17 C13      -2.3304   -14.1977    -3.6426  C.ar    1  <O>11      -0.0512
  18 C14      -0.5527   -10.1366    -5.9237  C.ar    1  <O>11       0.1713
  19 O2       -1.1898    -9.7971    -6.9976  O.3     1  <O>11      -0.5028
  20 C15       0.7874    -9.7806    -5.7650  C.ar    1  <O>11       0.2012
  21 O3        1.4047    -9.1053    -6.6800  O.3     1  <O>11      -0.5009
  22 H1        3.0183    -9.3568    -5.2229  H       1  <O>11       0.2923
  23 H2       -3.4672    -9.3061    -5.2066  H       1  <O>11       0.1889
  24 H3       -0.5953    -9.3042    -7.5846  H       1  <O>11       0.2923
  25 H4        2.3213    -8.9485    -6.4039  H       1  <O>11       0.2924
  26 H5        1.3082   -11.1481    -2.7415  H       1  <O>11       0.0655
  27 H6       -1.0275   -11.7615    -3.0324  H       1  <O>11       0.0626
  28 H7       -5.0242   -13.0683    -5.4811  H       1  <O>11       0.0854
  29 H8       -1.8806   -13.9293    -6.9635  H       1  <O>11       0.0624
  30 H9       -0.8452   -16.0984    -6.6204  H       1  <O>11       0.0646
  31 H10      -1.6933   -15.8551    -2.5101  H       1  <O>11       0.0646
  32 H11      -2.7237   -13.6875    -2.8363  H       1  <O>11       0.0624
@<TRIPOS>BOND
     1     1     2    1
     2     2     3   ar
     3     3     4   ar
     4     4     5   ar
     5     5     6    1
     6     6     7   ar
     7     7     8   ar
     8     8     9   ar
     9     9    10   ar
    10     6    10   ar
    11    10    11    1
    12    11    12   ar
    13    12    13   ar
    14    13    14   ar
    15    14    15    1
    16    14    16   ar
    17    16    17   ar
    18    11    17   ar
    19     5    18   ar
    20    18    19    1
    21    18    20   ar
    22     2    20   ar
    23    20    21    1
    24     1    22    1
    25     7    23    1
    26    19    24    1
    27    21    25    1
    28     3    26    1
    29     4    27    1
    30     9    28    1
    31    12    29    1
    32    13    30    1
    33    16    31    1
    34    17    32    1
@<TRIPOS>MOLECULE
mol53_1_13
 32 34 0 0 0
SMALL
USER_CHARGES
****
VDW energy = 74.58
@<TRIPOS>ATOM
   1 O1        2.7079    -9.8497    -4.4472  O.3     1  <O>11      -0.5032
   2 C1        1.4617   -10.1611    -4.6036  C.ar    1  <O>11       0.1620
   3 C2        0.8050   -10.8783    -3.6012  C.ar    1  <O>11      -0.0157
   4 C3       -0.5391   -11.2290    -3.7692  C.ar    1  <O>11      -0.0454
   5 C4       -1.2224   -10.8607    -4.9311  C.ar    1  <O>11       0.0457
   6 C5       -2.5330   -11.2020    -5.1020  C.ar    1  <O>11       0.0770
   7 N1       -2.9972   -11.9684    -6.1179  N.ar    1  <O>11      -0.2763
   8 N2       -4.3237   -12.2314    -5.9017  N.ar    1  <O>11      -0.1811
   9 C6       -4.6410   -11.4892    -4.8359  C.ar    1  <O>11       0.0575
  10 C7       -3.5045   -10.8390    -4.3156  C.ar    1  <O>11       0.0273
  11 C8       -3.5572   -10.0272    -3.2194  C.ar    1  <O>11      -0.0142
  12 C9       -3.1829    -8.6762    -3.3182  C.ar    1  <O>11      -0.0512
  13 C10      -3.2270    -7.8482    -2.1905  C.ar    1  <O>11      -0.0259
  14 C11      -3.6450    -8.3584    -0.9582  C.ar    1  <O>11       0.1234
  15 F1       -3.6860    -7.5521     0.1496  F       1  <O>11      -0.2055
  16 C12      -4.0235    -9.7024    -0.8620  C.ar    1  <O>11      -0.0259
  17 C13      -3.9850   -10.5356    -1.9803  C.ar    1  <O>11      -0.0512
  18 C14      -0.5527   -10.1366    -5.9237  C.ar    1  <O>11       0.1713
  19 O2       -1.1898    -9.7971    -6.9976  O.3     1  <O>11      -0.5028
  20 C15       0.7874    -9.7806    -5.7650  C.ar    1  <O>11       0.2012
  21 O3        1.4047    -9.1053    -6.6800  O.3     1  <O>11      -0.5009
  22 H1        3.0183    -9.3568    -5.2229  H       1  <O>11       0.2923
  23 H2       -2.4656   -12.2992    -6.9103  H       1  <O>11       0.1889
  24 H3       -0.5953    -9.3042    -7.5846  H       1  <O>11       0.2923
  25 H4        2.3213    -8.9485    -6.4039  H       1  <O>11       0.2924
  26 H5        1.3082   -11.1481    -2.7415  H       1  <O>11       0.0655
  27 H6       -1.0275   -11.7615    -3.0324  H       1  <O>11       0.0626
  28 H7       -5.5927   -11.4038    -4.4458  H       1  <O>11       0.0854
  29 H8       -2.8744    -8.2932    -4.2254  H       1  <O>11       0.0624
  30 H9       -2.9500    -6.8572    -2.2692  H       1  <O>11       0.0646
  31 H10      -4.3345   -10.0812     0.0462  H       1  <O>11       0.0646
  32 H11      -4.2702   -11.5240    -1.8982  H       1  <O>11       0.0624
@<TRIPOS>BOND
     1     1     2    1
     2     2     3   ar
     3     3     4   ar
     4     4     5   ar
     5     5     6    1
     6     6     7   ar
     7     7     8   ar
     8     8     9   ar
     9     9    10   ar
    10     6    10   ar
    11    10    11    1
    12    11    12   ar
    13    12    13   ar
    14    13    14   ar
    15    14    15    1
    16    14    16   ar
    17    16    17   ar
    18    11    17   ar
    19     5    18   ar
    20    18    19    1
    21    18    20   ar
    22     2    20   ar
    23    20    21    1
    24     1    22    1
    25     7    23    1
    26    19    24    1
    27    21    25    1
    28     3    26    1
    29     4    27    1
    30     9    28    1
    31    12    29    1
    32    13    30    1
    33    16    31    1
    34    17    32    1
@<TRIPOS>MOLECULE
mol53_1_14
 32 34 0 0 0
SMALL
USER_CHARGES
****
VDW energy = 74.94
@<TRIPOS>ATOM
   1 O1        2.7079    -9.8497    -4.4472  O.3     1  <O>11      -0.5032
   2 C1        1.4617   -10.1611    -4.6036  C.ar    1  <O>11       0.1620
   3 C2        0.8050   -10.8783    -3.6012  C.ar    1  <O>11      -0.0157
   4 C3       -0.5391   -11.2290    -3.7692  C.ar    1  <O>11      -0.0454
   5 C4       -1.2224   -10.8607    -4.9311  C.ar    1  <O>11       0.0457
   6 C5       -2.5330   -11.2020    -5.1020  C.ar    1  <O>11       0.0770
   7 N1       -2.9972   -11.9684    -6.1179  N.ar    1  <O>11      -0.2763
   8 N2       -4.3237   -12.2314    -5.9017  N.ar    1  <O>11      -0.1811
   9 C6       -4.6410   -11.4892    -4.8359  C.ar    1  <O>11       0.0575
  10 C7       -3.5045   -10.8390    -4.3156  C.ar    1  <O>11       0.0273
  11 C8       -3.5572   -10.0272    -3.2194  C.ar    1  <O>11      -0.0142
  12 C9       -4.0472   -10.5169    -1.9967  C.ar    1  <O>11      -0.0512
  13 C10      -4.1109    -9.6797    -0.8766  C.ar    1  <O>11      -0.0259
  14 C11      -3.6865    -8.3510    -0.9657  C.ar    1  <O>11       0.1234
  15 F1       -3.7508    -7.5266     0.1275  F       1  <O>11      -0.2055
  16 C12      -3.1928    -7.8658    -2.1821  C.ar    1  <O>11      -0.0259
  17 C13      -3.1233    -8.6925    -3.3038  C.ar    1  <O>11      -0.0512
  18 C14      -0.5527   -10.1366    -5.9237  C.ar    1  <O>11       0.1713
  19 O2       -1.1898    -9.7971    -6.9976  O.3     1  <O>11      -0.5028
  20 C15       0.7874    -9.7806    -5.7650  C.ar    1  <O>11       0.2012
  21 O3        1.4047    -9.1053    -6.6800  O.3     1  <O>11      -0.5009
  22 H1        3.0183    -9.3568    -5.2229  H       1  <O>11       0.2923
  23 H2       -2.4656   -12.2992    -6.9103  H       1  <O>11       0.1889
  24 H3       -0.5953    -9.3042    -7.5846  H       1  <O>11       0.2923
  25 H4        2.3213    -8.9485    -6.4039  H       1  <O>11       0.2924
  26 H5        1.3082   -11.1481    -2.7415  H       1  <O>11       0.0655
  27 H6       -1.0275   -11.7615    -3.0324  H       1  <O>11       0.0626
  28 H7       -5.5927   -11.4038    -4.4458  H       1  <O>11       0.0854
  29 H8       -4.3612   -11.4973    -1.9242  H       1  <O>11       0.0624
  30 H9       -4.4727   -10.0449     0.0182  H       1  <O>11       0.0646
  31 H10      -2.8767    -6.8857    -2.2501  H       1  <O>11       0.0646
  32 H11      -2.7538    -8.3248    -4.1945  H       1  <O>11       0.0624
@<TRIPOS>BOND
     1     1     2    1
     2     2     3   ar
     3     3     4   ar
     4     4     5   ar
     5     5     6    1
     6     6     7   ar
     7     7     8   ar
     8     8     9   ar
     9     9    10   ar
    10     6    10   ar
    11    10    11    1
    12    11    12   ar
    13    12    13   ar
    14    13    14   ar
    15    14    15    1
    16    14    16   ar
    17    16    17   ar
    18    11    17   ar
    19     5    18   ar
    20    18    19    1
    21    18    20   ar
    22     2    20   ar
    23    20    21    1
    24     1    22    1
    25     7    23    1
    26    19    24    1
    27    21    25    1
    28     3    26    1
    29     4    27    1
    30     9    28    1
    31    12    29    1
    32    13    30    1
    33    16    31    1
    34    17    32    1
@<TRIPOS>MOLECULE
mol53_1_15
 32 34 0 0 0
SMALL
USER_CHARGES
****
VDW energy = 87.38
@<TRIPOS>ATOM
   1 O1        2.7079    -9.8497    -4.4472  O.3     1  <O>11      -0.5032
   2 C1        1.4617   -10.1611    -4.6036  C.ar    1  <O>11       0.1620
   3 C2        0.8050   -10.8783    -3.6012  C.ar    1  <O>11      -0.0157
   4 C3       -0.5391   -11.2290    -3.7692  C.ar    1  <O>11      -0.0454
   5 C4       -1.2224   -10.8607    -4.9311  C.ar    1  <O>11       0.0457
   6 C5       -2.5330   -11.2020    -5.1020  C.ar    1  <O>11       0.0770
   7 N1       -3.5388   -10.3112    -5.2743  N.ar    1  <O>11      -0.2763
   8 N2       -4.6901   -10.9954    -5.5604  N.ar    1  <O>11      -0.1811
   9 C6       -4.3605   -12.2817    -5.4047  C.ar    1  <O>11       0.0575
  10 C7       -2.9871   -12.4216    -5.1226  C.ar    1  <O>11       0.0273
  11 C8       -2.3944   -13.6360    -4.9300  C.ar    1  <O>11      -0.0142
  12 C9       -1.7632   -13.9320    -3.7097  C.ar    1  <O>11      -0.0512
  13 C10      -1.1462   -15.1738    -3.5181  C.ar    1  <O>11      -0.0259
  14 C11      -1.1545   -16.1290    -4.5383  C.ar    1  <O>11       0.1234
  15 F1       -0.5483   -17.3448    -4.3564  F       1  <O>11      -0.2055
  16 C12      -1.7887   -15.8359    -5.7510  C.ar    1  <O>11      -0.0259
  17 C13      -2.4082   -14.6020    -5.9515  C.ar    1  <O>11      -0.0512
  18 C14      -0.5527   -10.1366    -5.9237  C.ar    1  <O>11       0.1713
  19 O2       -1.1898    -9.7971    -6.9976  O.3     1  <O>11      -0.5028
  20 C15       0.7874    -9.7806    -5.7650  C.ar    1  <O>11       0.2012
  21 O3        1.4047    -9.1053    -6.6800  O.3     1  <O>11      -0.5009
  22 H1        3.0183    -9.3568    -5.2229  H       1  <O>11       0.2923
  23 H2       -3.4672    -9.3061    -5.2066  H       1  <O>11       0.1889
  24 H3       -0.5953    -9.3042    -7.5846  H       1  <O>11       0.2923
  25 H4        2.3213    -8.9485    -6.4039  H       1  <O>11       0.2924
  26 H5        1.3082   -11.1481    -2.7415  H       1  <O>11       0.0655
  27 H6       -1.0275   -11.7615    -3.0324  H       1  <O>11       0.0626
  28 H7       -5.0242   -13.0683    -5.4811  H       1  <O>11       0.0854
  29 H8       -1.7545   -13.2313    -2.9521  H       1  <O>11       0.0624
  30 H9       -0.6835   -15.3847    -2.6201  H       1  <O>11       0.0646
  31 H10      -1.7982   -16.5402    -6.5053  H       1  <O>11       0.0646
  32 H11      -2.8761   -14.3985    -6.8485  H       1  <O>11       0.0624
@<TRIPOS>BOND
     1     1     2    1
     2     2     3   ar
     3     3     4   ar
     4     4     5   ar
     5     5     6    1
     6     6     7   ar
     7     7     8   ar
     8     8     9   ar
     9     9    10   ar
    10     6    10   ar
    11    10    11    1
    12    11    12   ar
    13    12    13   ar
    14    13    14   ar
    15    14    15    1
    16    14    16   ar
    17    16    17   ar
    18    11    17   ar
    19     5    18   ar
    20    18    19    1
    21    18    20   ar
    22     2    20   ar
    23    20    21    1
    24     1    22    1
    25     7    23    1
    26    19    24    1
    27    21    25    1
    28     3    26    1
    29     4    27    1
    30     9    28    1
    31    12    29    1
    32    13    30    1
    33    16    31    1
    34    17    32    1
@<TRIPOS>MOLECULE
mol53_1_16
 32 34 0 0 0
SMALL
USER_CHARGES
****
VDW energy = 89.03
@<TRIPOS>ATOM
   1 O1        2.7079    -9.8497    -4.4472  O.3     1  <O>11      -0.5032
   2 C1        1.4617   -10.1611    -4.6036  C.ar    1  <O>11       0.1620
   3 C2        0.8050   -10.8783    -3.6012  C.ar    1  <O>11      -0.0157
   4 C3       -0.5391   -11.2290    -3.7692  C.ar    1  <O>11      -0.0454
   5 C4       -1.2224   -10.8607    -4.9311  C.ar    1  <O>11       0.0457
   6 C5       -2.5330   -11.2020    -5.1020  C.ar    1  <O>11       0.0770
   7 N1       -2.9544   -12.3499    -5.6847  N.ar    1  <O>11      -0.2763
   8 N2       -4.3154   -12.4349    -5.5590  N.ar    1  <O>11      -0.1811
   9 C6       -4.6751   -11.2601    -5.0318  C.ar    1  <O>11       0.0575
  10 C7       -3.5456   -10.4742    -4.7291  C.ar    1  <O>11       0.0273
  11 C8       -3.6402    -9.2320    -4.1713  C.ar    1  <O>11      -0.0142
  12 C9       -2.4794    -8.5143    -3.8360  C.ar    1  <O>11      -0.0512
  13 C10      -2.5786    -7.2452    -3.2537  C.ar    1  <O>11      -0.0259
  14 C11      -3.8328    -6.6818    -3.0027  C.ar    1  <O>11       0.1234
  15 F1       -3.9347    -5.4411    -2.4291  F       1  <O>11      -0.2055
  16 C12      -4.9884    -7.3945    -3.3425  C.ar    1  <O>11      -0.0259
  17 C13      -4.9005    -8.6592    -3.9250  C.ar    1  <O>11      -0.0512
  18 C14      -0.5527   -10.1366    -5.9237  C.ar    1  <O>11       0.1713
  19 O2       -1.1898    -9.7971    -6.9976  O.3     1  <O>11      -0.5028
  20 C15       0.7874    -9.7806    -5.7650  C.ar    1  <O>11       0.2012
  21 O3        1.4047    -9.1053    -6.6800  O.3     1  <O>11      -0.5009
  22 H1        3.0183    -9.3568    -5.2229  H       1  <O>11       0.2923
  23 H2       -2.3734   -13.0391    -6.1402  H       1  <O>11       0.1889
  24 H3       -0.5953    -9.3042    -7.5846  H       1  <O>11       0.2923
  25 H4        2.3213    -8.9485    -6.4039  H       1  <O>11       0.2924
  26 H5        1.3082   -11.1481    -2.7415  H       1  <O>11       0.0655
  27 H6       -1.0275   -11.7615    -3.0324  H       1  <O>11       0.0626
  28 H7       -5.6512   -10.9675    -4.8681  H       1  <O>11       0.0854
  29 H8       -1.5503    -8.9243    -4.0198  H       1  <O>11       0.0624
  30 H9       -1.7224    -6.7236    -3.0089  H       1  <O>11       0.0646
  31 H10      -5.9158    -6.9801    -3.1602  H       1  <O>11       0.0646
  32 H11      -5.7594    -9.1738    -4.1750  H       1  <O>11       0.0624
@<TRIPOS>BOND
     1     1     2    1
     2     2     3   ar
     3     3     4   ar
     4     4     5   ar
     5     5     6    1
     6     6     7   ar
     7     7     8   ar
     8     8     9   ar
     9     9    10   ar
    10     6    10   ar
    11    10    11    1
    12    11    12   ar
    13    12    13   ar
    14    13    14   ar
    15    14    15    1
    16    14    16   ar
    17    16    17   ar
    18    11    17   ar
    19     5    18   ar
    20    18    19    1
    21    18    20   ar
    22     2    20   ar
    23    20    21    1
    24     1    22    1
    25     7    23    1
    26    19    24    1
    27    21    25    1
    28     3    26    1
    29     4    27    1
    30     9    28    1
    31    12    29    1
    32    13    30    1
    33    16    31    1
    34    17    32    1
@<TRIPOS>MOLECULE
mol53_1_17
 32 34 0 0 0
SMALL
USER_CHARGES
****
VDW energy = 89.18
@<TRIPOS>ATOM
   1 O1        2.7079    -9.8497    -4.4472  O.3     1  <O>11      -0.5032
   2 C1        1.4617   -10.1611    -4.6036  C.ar    1  <O>11       0.1620
   3 C2        0.8050   -10.8783    -3.6012  C.ar    1  <O>11      -0.0157
   4 C3       -0.5391   -11.2290    -3.7692  C.ar    1  <O>11      -0.0454
   5 C4       -1.2224   -10.8607    -4.9311  C.ar    1  <O>11       0.0457
   6 C5       -2.5330   -11.2020    -5.1020  C.ar    1  <O>11       0.0770
   7 N1       -3.5797   -10.4364    -4.7107  N.ar    1  <O>11      -0.2763
   8 N2       -4.7385   -11.0076    -5.1650  N.ar    1  <O>11      -0.1811
   9 C6       -4.3512   -12.1752    -5.6886  C.ar    1  <O>11       0.0575
  10 C7       -2.9481   -12.3016    -5.6611  C.ar    1  <O>11       0.0273
  11 C8       -2.2975   -13.3990    -6.1464  C.ar    1  <O>11      -0.0142
  12 C9       -0.8930   -13.4487    -6.1472  C.ar    1  <O>11      -0.0512
  13 C10      -0.2275   -14.5703    -6.6556  C.ar    1  <O>11      -0.0259
  14 C11      -0.9547   -15.6497    -7.1650  C.ar    1  <O>11       0.1234
  15 F1       -0.3071   -16.7483    -7.6674  F       1  <O>11      -0.2055
  16 C12      -2.3535   -15.6021    -7.1582  C.ar    1  <O>11      -0.0259
  17 C13      -3.0265   -14.4898    -6.6520  C.ar    1  <O>11      -0.0512
  18 C14      -0.5527   -10.1366    -5.9237  C.ar    1  <O>11       0.1713
  19 O2       -1.1898    -9.7971    -6.9976  O.3     1  <O>11      -0.5028
  20 C15       0.7874    -9.7806    -5.7650  C.ar    1  <O>11       0.2012
  21 O3        1.4047    -9.1053    -6.6800  O.3     1  <O>11      -0.5009
  22 H1        3.0183    -9.3568    -5.2229  H       1  <O>11       0.2923
  23 H2       -3.5299    -9.5830    -4.1730  H       1  <O>11       0.1889
  24 H3       -0.5953    -9.3042    -7.5846  H       1  <O>11       0.2923
  25 H4        2.3213    -8.9485    -6.4039  H       1  <O>11       0.2924
  26 H5        1.3082   -11.1481    -2.7415  H       1  <O>11       0.0655
  27 H6       -1.0275   -11.7615    -3.0324  H       1  <O>11       0.0626
  28 H7       -4.9948   -12.8896    -6.0635  H       1  <O>11       0.0854
  29 H8       -0.3503   -12.6554    -5.7715  H       1  <O>11       0.0624
  30 H9        0.8041   -14.6003    -6.6543  H       1  <O>11       0.0646
  31 H10      -2.8930   -16.3986    -7.5318  H       1  <O>11       0.0646
  32 H11      -4.0583   -14.4677    -6.6486  H       1  <O>11       0.0624
@<TRIPOS>BOND
     1     1     2    1
     2     2     3   ar
     3     3     4   ar
     4     4     5   ar
     5     5     6    1
     6     6     7   ar
     7     7     8   ar
     8     8     9   ar
     9     9    10   ar
    10     6    10   ar
    11    10    11    1
    12    11    12   ar
    13    12    13   ar
    14    13    14   ar
    15    14    15    1
    16    14    16   ar
    17    16    17   ar
    18    11    17   ar
    19     5    18   ar
    20    18    19    1
    21    18    20   ar
    22     2    20   ar
    23    20    21    1
    24     1    22    1
    25     7    23    1
    26    19    24    1
    27    21    25    1
    28     3    26    1
    29     4    27    1
    30     9    28    1
    31    12    29    1
    32    13    30    1
    33    16    31    1
    34    17    32    1
@<TRIPOS>MOLECULE
mol53_1_18
 32 34 0 0 0
SMALL
USER_CHARGES
****
VDW energy = 92.10
@<TRIPOS>ATOM
   1 O1        2.7079    -9.8497    -4.4472  O.3     1  <O>11      -0.5032
   2 C1        1.4617   -10.1611    -4.6036  C.ar    1  <O>11       0.1620
   3 C2        0.8050   -10.8783    -3.6012  C.ar    1  <O>11      -0.0157
   4 C3       -0.5391   -11.2290    -3.7692  C.ar    1  <O>11      -0.0454
   5 C4       -1.2224   -10.8607    -4.9311  C.ar    1  <O>11       0.0457
   6 C5       -2.5330   -11.2020    -5.1020  C.ar    1  <O>11       0.0770
   7 N1       -3.5388   -10.3112    -5.2743  N.ar    1  <O>11      -0.2763
   8 N2       -4.6901   -10.9954    -5.5604  N.ar    1  <O>11      -0.1811
   9 C6       -4.3605   -12.2817    -5.4047  C.ar    1  <O>11       0.0575
  10 C7       -2.9871   -12.4216    -5.1226  C.ar    1  <O>11       0.0273
  11 C8       -2.3944   -13.6360    -4.9300  C.ar    1  <O>11      -0.0142
  12 C9       -2.4649   -14.6260    -5.9250  C.ar    1  <O>11      -0.0512
  13 C10      -1.8660   -15.8746    -5.7209  C.ar    1  <O>11      -0.0259
  14 C11      -1.1923   -16.1456    -4.5267  C.ar    1  <O>11       0.1234
  15 F1       -0.6077   -17.3683    -4.3211  F       1  <O>11      -0.2055
  16 C12      -1.1172   -15.1571    -3.5388  C.ar    1  <O>11      -0.0259
  17 C13      -1.7090   -13.9087    -3.7330  C.ar    1  <O>11      -0.0512
  18 C14      -0.5527   -10.1366    -5.9237  C.ar    1  <O>11       0.1713
  19 O2       -1.1898    -9.7971    -6.9976  O.3     1  <O>11      -0.5028
  20 C15       0.7874    -9.7806    -5.7650  C.ar    1  <O>11       0.2012
  21 O3        1.4047    -9.1053    -6.6800  O.3     1  <O>11      -0.5009
  22 H1        3.0183    -9.3568    -5.2229  H       1  <O>11       0.2923
  23 H2       -3.4672    -9.3061    -5.2066  H       1  <O>11       0.1889
  24 H3       -0.5953    -9.3042    -7.5846  H       1  <O>11       0.2923
  25 H4        2.3213    -8.9485    -6.4039  H       1  <O>11       0.2924
  26 H5        1.3082   -11.1481    -2.7415  H       1  <O>11       0.0655
  27 H6       -1.0275   -11.7615    -3.0324  H       1  <O>11       0.0626
  28 H7       -5.0242   -13.0683    -5.4811  H       1  <O>11       0.0854
  29 H8       -2.9600   -14.4317    -6.8093  H       1  <O>11       0.0624
  30 H9       -1.9221   -16.5977    -6.4550  H       1  <O>11       0.0646
  31 H10      -0.6185   -15.3538    -2.6569  H       1  <O>11       0.0646
  32 H11      -1.6437   -13.1862    -2.9990  H       1  <O>11       0.0624
@<TRIPOS>BOND
     1     1     2    1
     2     2     3   ar
     3     3     4   ar
     4     4     5   ar
     5     5     6    1
     6     6     7   ar
     7     7     8   ar
     8     8     9   ar
     9     9    10   ar
    10     6    10   ar
    11    10    11    1
    12    11    12   ar
    13    12    13   ar
    14    13    14   ar
    15    14    15    1
    16    14    16   ar
    17    16    17   ar
    18    11    17   ar
    19     5    18   ar
    20    18    19    1
    21    18    20   ar
    22     2    20   ar
    23    20    21    1
    24     1    22    1
    25     7    23    1
    26    19    24    1
    27    21    25    1
    28     3    26    1
    29     4    27    1
    30     9    28    1
    31    12    29    1
    32    13    30    1
    33    16    31    1
    34    17    32    1
@<TRIPOS>MOLECULE
mol53_1_19
 32 34 0 0 0
SMALL
USER_CHARGES
****
VDW energy = 95.24
@<TRIPOS>ATOM
   1 O1        2.7079    -9.8497    -4.4472  O.3     1  <O>11      -0.5032
   2 C1        1.4617   -10.1611    -4.6036  C.ar    1  <O>11       0.1620
   3 C2        0.8050   -10.8783    -3.6012  C.ar    1  <O>11      -0.0157
   4 C3       -0.5391   -11.2290    -3.7692  C.ar    1  <O>11      -0.0454
   5 C4       -1.2224   -10.8607    -4.9311  C.ar    1  <O>11       0.0457
   6 C5       -2.5330   -11.2020    -5.1020  C.ar    1  <O>11       0.0770
   7 N1       -3.4168   -11.3726    -4.0898  N.ar    1  <O>11      -0.2763
   8 N2       -4.6645   -11.5640    -4.6210  N.ar    1  <O>11      -0.1811
   9 C6       -4.4564   -11.6459    -5.9391  C.ar    1  <O>11       0.0575
  10 C7       -3.1039   -11.4068    -6.2536  C.ar    1  <O>11       0.0273
  11 C8       -2.6313   -11.4225    -7.5341  C.ar    1  <O>11      -0.0142
  12 C9       -1.6312   -12.3355    -7.9102  C.ar    1  <O>11      -0.0512
  13 C10      -1.1399   -12.3426    -9.2209  C.ar    1  <O>11      -0.0259
  14 C11      -1.6411   -11.4427   -10.1656  C.ar    1  <O>11       0.1234
  15 F1       -1.1602   -11.4435   -11.4492  F       1  <O>11      -0.2055
  16 C12      -2.6414   -10.5380    -9.7919  C.ar    1  <O>11      -0.0259
  17 C13      -3.1394   -10.5240    -8.4887  C.ar    1  <O>11      -0.0512
  18 C14      -0.5527   -10.1366    -5.9237  C.ar    1  <O>11       0.1713
  19 O2       -1.1898    -9.7971    -6.9976  O.3     1  <O>11      -0.5028
  20 C15       0.7874    -9.7806    -5.7650  C.ar    1  <O>11       0.2012
  21 O3        1.4047    -9.1053    -6.6800  O.3     1  <O>11      -0.5009
  22 H1        3.0183    -9.3568    -5.2229  H       1  <O>11       0.2923
  23 H2       -3.2061   -11.3628    -3.1022  H       1  <O>11       0.1889
  24 H3       -0.5953    -9.3042    -7.5846  H       1  <O>11       0.2923
  25 H4        2.3213    -8.9485    -6.4039  H       1  <O>11       0.2924
  26 H5        1.3082   -11.1481    -2.7415  H       1  <O>11       0.0655
  27 H6       -1.0275   -11.7615    -3.0324  H       1  <O>11       0.0626
  28 H7       -5.1894   -11.8565    -6.6344  H       1  <O>11       0.0854
  29 H8       -1.2577   -13.0031    -7.2175  H       1  <O>11       0.0624
  30 H9       -0.4048   -13.0148    -9.4907  H       1  <O>11       0.0646
  31 H10      -3.0149    -9.8739   -10.4880  H       1  <O>11       0.0646
  32 H11      -3.8798    -9.8549    -8.2257  H       1  <O>11       0.0624
@<TRIPOS>BOND
     1     1     2    1
     2     2     3   ar
     3     3     4   ar
     4     4     5   ar
     5     5     6    1
     6     6     7   ar
     7     7     8   ar
     8     8     9   ar
     9     9    10   ar
    10     6    10   ar
    11    10    11    1
    12    11    12   ar
    13    12    13   ar
    14    13    14   ar
    15    14    15    1
    16    14    16   ar
    17    16    17   ar
    18    11    17   ar
    19     5    18   ar
    20    18    19    1
    21    18    20   ar
    22     2    20   ar
    23    20    21    1
    24     1    22    1
    25     7    23    1
    26    19    24    1
    27    21    25    1
    28     3    26    1
    29     4    27    1
    30     9    28    1
    31    12    29    1
    32    13    30    1
    33    16    31    1
    34    17    32    1
@<TRIPOS>MOLECULE
mol53_1_20
 32 34 0 0 0
SMALL
USER_CHARGES
****
VDW energy = 105.69
@<TRIPOS>ATOM
   1 O1        2.7079    -9.8497    -4.4472  O.3     1  <O>11      -0.5032
   2 C1        1.4617   -10.1611    -4.6036  C.ar    1  <O>11       0.1620
   3 C2        0.8050   -10.8783    -3.6012  C.ar    1  <O>11      -0.0157
   4 C3       -0.5391   -11.2290    -3.7692  C.ar    1  <O>11      -0.0454
   5 C4       -1.2224   -10.8607    -4.9311  C.ar    1  <O>11       0.0457
   6 C5       -2.5330   -11.2020    -5.1020  C.ar    1  <O>11       0.0770
   7 N1       -2.9972   -11.9684    -6.1179  N.ar    1  <O>11      -0.2763
   8 N2       -4.3237   -12.2314    -5.9017  N.ar    1  <O>11      -0.1811
   9 C6       -4.6410   -11.4892    -4.8359  C.ar    1  <O>11       0.0575
  10 C7       -3.5045   -10.8390    -4.3156  C.ar    1  <O>11       0.0273
  11 C8       -3.5572   -10.0272    -3.2194  C.ar    1  <O>11      -0.0142
  12 C9       -2.3831    -9.4492    -2.7073  C.ar    1  <O>11      -0.0512
  13 C10      -2.4377    -8.6260    -1.5764  C.ar    1  <O>11      -0.0259
  14 C11      -3.6605    -8.3717    -0.9491  C.ar    1  <O>11       0.1234
  15 F1       -3.7182    -7.5694     0.1608  F       1  <O>11      -0.2055
  16 C12      -4.8303    -8.9427    -1.4634  C.ar    1  <O>11      -0.0259
  17 C13      -4.7870    -9.7630    -2.5911  C.ar    1  <O>11      -0.0512
  18 C14      -0.5527   -10.1366    -5.9237  C.ar    1  <O>11       0.1713
  19 O2       -1.1898    -9.7971    -6.9976  O.3     1  <O>11      -0.5028
  20 C15       0.7874    -9.7806    -5.7650  C.ar    1  <O>11       0.2012
  21 O3        1.4047    -9.1053    -6.6800  O.3     1  <O>11      -0.5009
  22 H1        3.0183    -9.3568    -5.2229  H       1  <O>11       0.2923
  23 H2       -2.4656   -12.2992    -6.9103  H       1  <O>11       0.1889
  24 H3       -0.5953    -9.3042    -7.5846  H       1  <O>11       0.2923
  25 H4        2.3213    -8.9485    -6.4039  H       1  <O>11       0.2924
  26 H5        1.3082   -11.1481    -2.7415  H       1  <O>11       0.0655
  27 H6       -1.0275   -11.7615    -3.0324  H       1  <O>11       0.0626
  28 H7       -5.5927   -11.4038    -4.4458  H       1  <O>11       0.0854
  29 H8       -1.4772    -9.6323    -3.1666  H       1  <O>11       0.0624
  30 H9       -1.5719    -8.2053    -1.2046  H       1  <O>11       0.0646
  31 H10      -5.7348    -8.7549    -1.0034  H       1  <O>11       0.0646
  32 H11      -5.6565   -10.1754    -2.9637  H       1  <O>11       0.0624
@<TRIPOS>BOND
     1     1     2    1
     2     2     3   ar
     3     3     4   ar
     4     4     5   ar
     5     5     6    1
     6     6     7   ar
     7     7     8   ar
     8     8     9   ar
     9     9    10   ar
    10     6    10   ar
    11    10    11    1
    12    11    12   ar
    13    12    13   ar
    14    13    14   ar
    15    14    15    1
    16    14    16   ar
    17    16    17   ar
    18    11    17   ar
    19     5    18   ar
    20    18    19    1
    21    18    20   ar
    22     2    20   ar
    23    20    21    1
    24     1    22    1
    25     7    23    1
    26    19    24    1
    27    21    25    1
    28     3    26    1
    29     4    27    1
    30     9    28    1
    31    12    29    1
    32    13    30    1
    33    16    31    1
    34    17    32    1
@<TRIPOS>MOLECULE
mol53_1_21
 32 34 0 0 0
SMALL
USER_CHARGES
****
VDW energy = 111.57
@<TRIPOS>ATOM
   1 O1        2.7079    -9.8497    -4.4472  O.3     1  <O>11      -0.5032
   2 C1        1.4617   -10.1611    -4.6036  C.ar    1  <O>11       0.1620
   3 C2        0.8050   -10.8783    -3.6012  C.ar    1  <O>11      -0.0157
   4 C3       -0.5391   -11.2290    -3.7692  C.ar    1  <O>11      -0.0454
   5 C4       -1.2224   -10.8607    -4.9311  C.ar    1  <O>11       0.0457
   6 C5       -2.5330   -11.2020    -5.1020  C.ar    1  <O>11       0.0770
   7 N1       -3.5388   -10.3112    -5.2743  N.ar    1  <O>11      -0.2763
   8 N2       -4.6901   -10.9954    -5.5604  N.ar    1  <O>11      -0.1811
   9 C6       -4.3605   -12.2817    -5.4047  C.ar    1  <O>11       0.0575
  10 C7       -2.9871   -12.4216    -5.1226  C.ar    1  <O>11       0.0273
  11 C8       -2.3944   -13.6360    -4.9300  C.ar    1  <O>11      -0.0142
  12 C9       -1.0093   -13.7226    -4.7088  C.ar    1  <O>11      -0.0512
  13 C10      -0.4016   -14.9697    -4.5225  C.ar    1  <O>11      -0.0259
  14 C11      -1.1680   -16.1381    -4.5537  C.ar    1  <O>11       0.1234
  15 F1       -0.5765   -17.3617    -4.3757  F       1  <O>11      -0.2055
  16 C12      -2.5484   -16.0507    -4.7679  C.ar    1  <O>11      -0.0259
  17 C13      -3.1641   -14.8124    -4.9527  C.ar    1  <O>11      -0.0512
  18 C14      -0.5527   -10.1366    -5.9237  C.ar    1  <O>11       0.1713
  19 O2       -1.1898    -9.7971    -6.9976  O.3     1  <O>11      -0.5028
  20 C15       0.7874    -9.7806    -5.7650  C.ar    1  <O>11       0.2012
  21 O3        1.4047    -9.1053    -6.6800  O.3     1  <O>11      -0.5009
  22 H1        3.0183    -9.3568    -5.2229  H       1  <O>11       0.2923
  23 H2       -3.4672    -9.3061    -5.2066  H       1  <O>11       0.1889
  24 H3       -0.5953    -9.3042    -7.5846  H       1  <O>11       0.2923
  25 H4        2.3213    -8.9485    -6.4039  H       1  <O>11       0.2924
  26 H5        1.3082   -11.1481    -2.7415  H       1  <O>11       0.0655
  27 H6       -1.0275   -11.7615    -3.0324  H       1  <O>11       0.0626
  28 H7       -5.0242   -13.0683    -5.4811  H       1  <O>11       0.0854
  29 H8       -0.4380   -12.8634    -4.6836  H       1  <O>11       0.0624
  30 H9        0.6162   -15.0267    -4.3615  H       1  <O>11       0.0646
  31 H10      -3.1170   -16.9116    -4.7893  H       1  <O>11       0.0646
  32 H11      -4.1833   -14.7600    -5.1059  H       1  <O>11       0.0624
@<TRIPOS>BOND
     1     1     2    1
     2     2     3   ar
     3     3     4   ar
     4     4     5   ar
     5     5     6    1
     6     6     7   ar
     7     7     8   ar
     8     8     9   ar
     9     9    10   ar
    10     6    10   ar
    11    10    11    1
    12    11    12   ar
    13    12    13   ar
    14    13    14   ar
    15    14    15    1
    16    14    16   ar
    17    16    17   ar
    18    11    17   ar
    19     5    18   ar
    20    18    19    1
    21    18    20   ar
    22     2    20   ar
    23    20    21    1
    24     1    22    1
    25     7    23    1
    26    19    24    1
    27    21    25    1
    28     3    26    1
    29     4    27    1
    30     9    28    1
    31    12    29    1
    32    13    30    1
    33    16    31    1
    34    17    32    1
