@<TRIPOS>MOLECULE
mol55_1_1
 29 31 0 0 0
SMALL
USER_CHARGES
****
VDW energy = -123.16
@<TRIPOS>ATOM
   1 N1       -0.9044     3.5207    -1.9841  N.pl3   1  <O>11      -0.3430
   2 C1        0.1391     4.1715    -1.2332  C.ar    1  <O>11       0.1221
   3 C2        1.0500     4.9413    -1.9515  C.ar    1  <O>11       0.0220
   4 C3        2.0798     5.5930    -1.2695  C.ar    1  <O>11       0.1549
   5 O1        2.9960     6.3570    -1.9350  O.3     1  <O>11      -0.4850
   6 C4        2.5319     7.6942    -2.0100  C.3     1  <O>11       0.1148
   7 C5        3.5295     8.5256    -2.7339  C.ar    1  <O>11      -0.0090
   8 C6        4.5577     9.1725    -2.0285  C.ar    1  <O>11      -0.0553
   9 C7        5.4893     9.9652    -2.7103  C.ar    1  <O>11      -0.0600
  10 C8        5.4038    10.1140    -4.0971  C.ar    1  <O>11      -0.0434
  11 C9        4.3830     9.4652    -4.7982  C.ar    1  <O>11       0.0413
  12 Cl1       4.2807     9.6595    -6.5422  Cl      1  <O>11      -0.0835
  13 C10       3.4521     8.6709    -4.1291  C.ar    1  <O>11      -0.0370
  14 C11       2.1281     5.4270     0.1183  C.ar    1  <O>11       0.1728
  15 N2        2.9819     5.9135     1.0693  N.ar    1  <O>11      -0.1243
  16 N3        2.5833     5.4558     2.2514  N.ar    1  <O>11      -0.0659
  17 N4        1.4865     4.6861     2.0457  N.ar    1  <O>11      -0.2402
  18 C12       1.1594     4.6319     0.7177  C.ar    1  <O>11       0.1813
  19 N5        0.1427     3.9767     0.1115  N.ar    1  <O>11      -0.2116
  20 H1       -1.5961     2.9456    -1.5032  H       1  <O>11       0.1437
  21 H2       -0.9514     3.6350    -2.9966  H       1  <O>11       0.1437
  22 H3        2.3935     8.0884    -1.0027  H       1  <O>11       0.0748
  23 H4        1.5812     7.7202    -2.5432  H       1  <O>11       0.0748
  24 H5        0.9813     4.2163     2.7834  H       1  <O>11       0.1923
  25 H6        0.9652     5.0293    -2.9762  H       1  <O>11       0.0689
  26 H7        4.6267     9.0631    -1.0047  H       1  <O>11       0.0621
  27 H8        6.2410    10.4407    -2.1870  H       1  <O>11       0.0618
  28 H9        6.0893    10.6988    -4.6002  H       1  <O>11       0.0632
  29 H10       2.7075     8.1907    -4.6582  H       1  <O>11       0.0636
@<TRIPOS>BOND
     1     1     2    1
     2     2     3   ar
     3     3     4   ar
     4     4     5    1
     5     5     6    1
     6     6     7    1
     7     7     8   ar
     8     8     9   ar
     9     9    10   ar
    10    10    11   ar
    11    11    12    1
    12    11    13   ar
    13     7    13   ar
    14     4    14   ar
    15    14    15   ar
    16    15    16   ar
    17    16    17   ar
    18    17    18   ar
    19    14    18   ar
    20    18    19   ar
    21     2    19   ar
    22     1    20    1
    23     1    21    1
    24     6    22    1
    25     6    23    1
    26    17    24    1
    27     3    25    1
    28     8    26    1
    29     9    27    1
    30    10    28    1
    31    13    29    1
@<TRIPOS>MOLECULE
mol55_1_2
 29 31 0 0 0
SMALL
USER_CHARGES
****
VDW energy = -123.16
@<TRIPOS>ATOM
   1 N1       -0.9044     3.5207    -1.9841  N.pl3   1  <O>11      -0.3430
   2 C1        0.1391     4.1715    -1.2332  C.ar    1  <O>11       0.1221
   3 C2        1.0500     4.9413    -1.9515  C.ar    1  <O>11       0.0220
   4 C3        2.0798     5.5930    -1.2695  C.ar    1  <O>11       0.1549
   5 O1        2.9960     6.3570    -1.9350  O.3     1  <O>11      -0.4850
   6 C4        4.0948     5.5491    -2.3210  C.3     1  <O>11       0.1148
   7 C5        5.0916     6.3807    -3.0457  C.ar    1  <O>11      -0.0090
   8 C6        6.1199     7.0282    -2.3412  C.ar    1  <O>11      -0.0553
   9 C7        7.0508     7.8211    -3.0237  C.ar    1  <O>11      -0.0600
  10 C8        6.9643     7.9696    -4.4105  C.ar    1  <O>11      -0.0434
  11 C9        5.9434     7.3202    -5.1108  C.ar    1  <O>11       0.0413
  12 Cl1       5.8398     7.5140    -6.8547  Cl      1  <O>11      -0.0835
  13 C10       5.0132     6.5257    -4.4409  C.ar    1  <O>11      -0.0370
  14 C11       2.1281     5.4270     0.1183  C.ar    1  <O>11       0.1728
  15 N2        2.9819     5.9135     1.0693  N.ar    1  <O>11      -0.1243
  16 N3        2.5833     5.4558     2.2514  N.ar    1  <O>11      -0.0659
  17 N4        1.4865     4.6861     2.0457  N.ar    1  <O>11      -0.2402
  18 C12       1.1594     4.6319     0.7177  C.ar    1  <O>11       0.1813
  19 N5        0.1427     3.9767     0.1115  N.ar    1  <O>11      -0.2116
  20 H1       -1.5961     2.9456    -1.5032  H       1  <O>11       0.1437
  21 H2       -0.9514     3.6350    -2.9966  H       1  <O>11       0.1437
  22 H3        3.7461     4.7487    -2.9745  H       1  <O>11       0.0748
  23 H4        4.5581     5.1167    -1.4338  H       1  <O>11       0.0748
  24 H5        0.9813     4.2163     2.7834  H       1  <O>11       0.1923
  25 H6        0.9652     5.0293    -2.9762  H       1  <O>11       0.0689
  26 H7        6.1897     6.9191    -1.3174  H       1  <O>11       0.0621
  27 H8        7.8027     8.2970    -2.5010  H       1  <O>11       0.0618
  28 H9        7.6493     8.5545    -4.9142  H       1  <O>11       0.0632
  29 H10       4.2685     6.0450    -4.9694  H       1  <O>11       0.0636
@<TRIPOS>BOND
     1     1     2    1
     2     2     3   ar
     3     3     4   ar
     4     4     5    1
     5     5     6    1
     6     6     7    1
     7     7     8   ar
     8     8     9   ar
     9     9    10   ar
    10    10    11   ar
    11    11    12    1
    12    11    13   ar
    13     7    13   ar
    14     4    14   ar
    15    14    15   ar
    16    15    16   ar
    17    16    17   ar
    18    17    18   ar
    19    14    18   ar
    20    18    19   ar
    21     2    19   ar
    22     1    20    1
    23     1    21    1
    24     6    22    1
    25     6    23    1
    26    17    24    1
    27     3    25    1
    28     8    26    1
    29     9    27    1
    30    10    28    1
    31    13    29    1
@<TRIPOS>MOLECULE
mol55_1_3
 29 31 0 0 0
SMALL
USER_CHARGES
****
VDW energy = -123.10
@<TRIPOS>ATOM
   1 N1       -0.9044     3.5207    -1.9841  N.pl3   1  <O>11      -0.3430
   2 C1        0.1391     4.1715    -1.2332  C.ar    1  <O>11       0.1221
   3 C2        1.0500     4.9413    -1.9515  C.ar    1  <O>11       0.0220
   4 C3        2.0798     5.5930    -1.2695  C.ar    1  <O>11       0.1549
   5 O1        2.9960     6.3570    -1.9350  O.3     1  <O>11      -0.4850
   6 C4        4.0948     5.5491    -2.3210  C.3     1  <O>11       0.1148
   7 C5        5.0916     6.3807    -3.0457  C.ar    1  <O>11      -0.0090
   8 C6        5.0128     6.5255    -4.4407  C.ar    1  <O>11      -0.0553
   9 C7        5.9595     7.2992    -5.1234  C.ar    1  <O>11      -0.0600
  10 C8        6.9861     7.9350    -4.4201  C.ar    1  <O>11      -0.0434
  11 C9        7.0599     7.7942    -3.0312  C.ar    1  <O>11       0.0413
  12 Cl1       8.3556     8.5951    -2.1541  Cl      1  <O>11      -0.0835
  13 C10       6.1202     7.0286    -2.3415  C.ar    1  <O>11      -0.0370
  14 C11       2.1281     5.4270     0.1183  C.ar    1  <O>11       0.1728
  15 N2        2.9819     5.9135     1.0693  N.ar    1  <O>11      -0.1243
  16 N3        2.5833     5.4558     2.2514  N.ar    1  <O>11      -0.0659
  17 N4        1.4865     4.6861     2.0457  N.ar    1  <O>11      -0.2402
  18 C12       1.1594     4.6319     0.7177  C.ar    1  <O>11       0.1813
  19 N5        0.1427     3.9767     0.1115  N.ar    1  <O>11      -0.2116
  20 H1       -1.5961     2.9456    -1.5032  H       1  <O>11       0.1437
  21 H2       -0.9514     3.6350    -2.9966  H       1  <O>11       0.1437
  22 H3        3.7461     4.7487    -2.9745  H       1  <O>11       0.0748
  23 H4        4.5581     5.1167    -1.4338  H       1  <O>11       0.0748
  24 H5        0.9813     4.2163     2.7834  H       1  <O>11       0.1923
  25 H6        0.9652     5.0293    -2.9762  H       1  <O>11       0.0689
  26 H7        4.2547     6.0603    -4.9641  H       1  <O>11       0.0621
  27 H8        5.8989     7.4000    -6.1487  H       1  <O>11       0.0618
  28 H9        7.6848     8.5046    -4.9225  H       1  <O>11       0.0632
  29 H10       6.1803     6.9380    -1.3152  H       1  <O>11       0.0636
@<TRIPOS>BOND
     1     1     2    1
     2     2     3   ar
     3     3     4   ar
     4     4     5    1
     5     5     6    1
     6     6     7    1
     7     7     8   ar
     8     8     9   ar
     9     9    10   ar
    10    10    11   ar
    11    11    12    1
    12    11    13   ar
    13     7    13   ar
    14     4    14   ar
    15    14    15   ar
    16    15    16   ar
    17    16    17   ar
    18    17    18   ar
    19    14    18   ar
    20    18    19   ar
    21     2    19   ar
    22     1    20    1
    23     1    21    1
    24     6    22    1
    25     6    23    1
    26    17    24    1
    27     3    25    1
    28     8    26    1
    29     9    27    1
    30    10    28    1
    31    13    29    1
@<TRIPOS>MOLECULE
mol55_1_4
 29 31 0 0 0
SMALL
USER_CHARGES
****
VDW energy = -123.10
@<TRIPOS>ATOM
   1 N1       -0.9044     3.5207    -1.9841  N.pl3   1  <O>11      -0.3430
   2 C1        0.1391     4.1715    -1.2332  C.ar    1  <O>11       0.1221
   3 C2        1.0500     4.9413    -1.9515  C.ar    1  <O>11       0.0220
   4 C3        2.0798     5.5930    -1.2695  C.ar    1  <O>11       0.1549
   5 O1        2.9960     6.3570    -1.9350  O.3     1  <O>11      -0.4850
   6 C4        2.5319     7.6942    -2.0100  C.3     1  <O>11       0.1148
   7 C5        3.5295     8.5256    -2.7339  C.ar    1  <O>11      -0.0090
   8 C6        3.4516     8.6708    -4.1289  C.ar    1  <O>11      -0.0553
   9 C7        4.3992     9.4442    -4.8108  C.ar    1  <O>11      -0.0600
  10 C8        5.4256    10.0795    -4.1067  C.ar    1  <O>11      -0.0434
  11 C9        5.4984     9.9383    -2.7177  C.ar    1  <O>11       0.0413
  12 Cl1       6.7939    10.7384    -1.8396  Cl      1  <O>11      -0.0835
  13 C10       4.5579     9.1729    -2.0288  C.ar    1  <O>11      -0.0370
  14 C11       2.1281     5.4270     0.1183  C.ar    1  <O>11       0.1728
  15 N2        2.9819     5.9135     1.0693  N.ar    1  <O>11      -0.1243
  16 N3        2.5833     5.4558     2.2514  N.ar    1  <O>11      -0.0659
  17 N4        1.4865     4.6861     2.0457  N.ar    1  <O>11      -0.2402
  18 C12       1.1594     4.6319     0.7177  C.ar    1  <O>11       0.1813
  19 N5        0.1427     3.9767     0.1115  N.ar    1  <O>11      -0.2116
  20 H1       -1.5961     2.9456    -1.5032  H       1  <O>11       0.1437
  21 H2       -0.9514     3.6350    -2.9966  H       1  <O>11       0.1437
  22 H3        2.3935     8.0884    -1.0027  H       1  <O>11       0.0748
  23 H4        1.5812     7.7202    -2.5432  H       1  <O>11       0.0748
  24 H5        0.9813     4.2163     2.7834  H       1  <O>11       0.1923
  25 H6        0.9652     5.0293    -2.9762  H       1  <O>11       0.0689
  26 H7        2.6937     8.2060    -4.6529  H       1  <O>11       0.0621
  27 H8        4.3393     9.5453    -5.8361  H       1  <O>11       0.0618
  28 H9        6.1249    10.6488    -4.6086  H       1  <O>11       0.0632
  29 H10       4.6173     9.0821    -1.0025  H       1  <O>11       0.0636
@<TRIPOS>BOND
     1     1     2    1
     2     2     3   ar
     3     3     4   ar
     4     4     5    1
     5     5     6    1
     6     6     7    1
     7     7     8   ar
     8     8     9   ar
     9     9    10   ar
    10    10    11   ar
    11    11    12    1
    12    11    13   ar
    13     7    13   ar
    14     4    14   ar
    15    14    15   ar
    16    15    16   ar
    17    16    17   ar
    18    17    18   ar
    19    14    18   ar
    20    18    19   ar
    21     2    19   ar
    22     1    20    1
    23     1    21    1
    24     6    22    1
    25     6    23    1
    26    17    24    1
    27     3    25    1
    28     8    26    1
    29     9    27    1
    30    10    28    1
    31    13    29    1
@<TRIPOS>MOLECULE
mol55_1_5
 29 31 0 0 0
SMALL
USER_CHARGES
****
VDW energy = -122.63
@<TRIPOS>ATOM
   1 N1       -0.9044     3.5207    -1.9841  N.pl3   1  <O>11      -0.3430
   2 C1        0.1391     4.1715    -1.2332  C.ar    1  <O>11       0.1221
   3 C2        1.0500     4.9413    -1.9515  C.ar    1  <O>11       0.0220
   4 C3        2.0798     5.5930    -1.2695  C.ar    1  <O>11       0.1549
   5 O1        2.9960     6.3570    -1.9350  O.3     1  <O>11      -0.4850
   6 C4        4.0948     5.5491    -2.3210  C.3     1  <O>11       0.1148
   7 C5        5.0916     6.3807    -3.0457  C.ar    1  <O>11      -0.0090
   8 C6        5.6909     7.4813    -2.4112  C.ar    1  <O>11      -0.0553
   9 C7        6.6204     8.2710    -3.0992  C.ar    1  <O>11      -0.0600
  10 C8        6.9602     7.9662    -4.4200  C.ar    1  <O>11      -0.0434
  11 C9        6.3668     6.8673    -5.0482  C.ar    1  <O>11       0.0413
  12 Cl1       6.7975     6.4920    -6.7105  Cl      1  <O>11      -0.0835
  13 C10       5.4423     6.0726    -4.3708  C.ar    1  <O>11      -0.0370
  14 C11       2.1281     5.4270     0.1183  C.ar    1  <O>11       0.1728
  15 N2        2.9819     5.9135     1.0693  N.ar    1  <O>11      -0.1243
  16 N3        2.5833     5.4558     2.2514  N.ar    1  <O>11      -0.0659
  17 N4        1.4865     4.6861     2.0457  N.ar    1  <O>11      -0.2402
  18 C12       1.1594     4.6319     0.7177  C.ar    1  <O>11       0.1813
  19 N5        0.1427     3.9767     0.1115  N.ar    1  <O>11      -0.2116
  20 H1       -1.5961     2.9456    -1.5032  H       1  <O>11       0.1437
  21 H2       -0.9514     3.6350    -2.9966  H       1  <O>11       0.1437
  22 H3        3.7461     4.7487    -2.9745  H       1  <O>11       0.0748
  23 H4        4.5581     5.1167    -1.4338  H       1  <O>11       0.0748
  24 H5        0.9813     4.2163     2.7834  H       1  <O>11       0.1923
  25 H6        0.9652     5.0293    -2.9762  H       1  <O>11       0.0689
  26 H7        5.4454     7.7086    -1.4350  H       1  <O>11       0.0621
  27 H8        7.0557     9.0803    -2.6295  H       1  <O>11       0.0618
  28 H9        7.6444     8.5483    -4.9281  H       1  <O>11       0.0632
  29 H10       5.0164     5.2593    -4.8423  H       1  <O>11       0.0636
@<TRIPOS>BOND
     1     1     2    1
     2     2     3   ar
     3     3     4   ar
     4     4     5    1
     5     5     6    1
     6     6     7    1
     7     7     8   ar
     8     8     9   ar
     9     9    10   ar
    10    10    11   ar
    11    11    12    1
    12    11    13   ar
    13     7    13   ar
    14     4    14   ar
    15    14    15   ar
    16    15    16   ar
    17    16    17   ar
    18    17    18   ar
    19    14    18   ar
    20    18    19   ar
    21     2    19   ar
    22     1    20    1
    23     1    21    1
    24     6    22    1
    25     6    23    1
    26    17    24    1
    27     3    25    1
    28     8    26    1
    29     9    27    1
    30    10    28    1
    31    13    29    1
@<TRIPOS>MOLECULE
mol55_1_6
 29 31 0 0 0
SMALL
USER_CHARGES
****
VDW energy = -122.50
@<TRIPOS>ATOM
   1 N1       -0.9044     3.5207    -1.9841  N.pl3   1  <O>11      -0.3430
   2 C1        0.1391     4.1715    -1.2332  C.ar    1  <O>11       0.1221
   3 C2        1.0500     4.9413    -1.9515  C.ar    1  <O>11       0.0220
   4 C3        2.0798     5.5930    -1.2695  C.ar    1  <O>11       0.1549
   5 O1        2.9960     6.3570    -1.9350  O.3     1  <O>11      -0.4850
   6 C4        2.5319     7.6942    -2.0100  C.3     1  <O>11       0.1148
   7 C5        3.5295     8.5256    -2.7339  C.ar    1  <O>11      -0.0090
   8 C6        3.8804     8.2174    -4.0587  C.ar    1  <O>11      -0.0553
   9 C7        4.8293     8.9940    -4.7351  C.ar    1  <O>11      -0.0600
  10 C8        5.4297    10.0828    -4.0972  C.ar    1  <O>11      -0.0434
  11 C9        5.0752    10.3914    -2.7805  C.ar    1  <O>11       0.0413
  12 Cl1       5.8368    11.7609    -1.9843  Cl      1  <O>11      -0.0835
  13 C10       4.1291     9.6262    -2.0991  C.ar    1  <O>11      -0.0370
  14 C11       2.1281     5.4270     0.1183  C.ar    1  <O>11       0.1728
  15 N2        2.9819     5.9135     1.0693  N.ar    1  <O>11      -0.1243
  16 N3        2.5833     5.4558     2.2514  N.ar    1  <O>11      -0.0659
  17 N4        1.4865     4.6861     2.0457  N.ar    1  <O>11      -0.2402
  18 C12       1.1594     4.6319     0.7177  C.ar    1  <O>11       0.1813
  19 N5        0.1427     3.9767     0.1115  N.ar    1  <O>11      -0.2116
  20 H1       -1.5961     2.9456    -1.5032  H       1  <O>11       0.1437
  21 H2       -0.9514     3.6350    -2.9966  H       1  <O>11       0.1437
  22 H3        2.3935     8.0884    -1.0027  H       1  <O>11       0.0748
  23 H4        1.5812     7.7202    -2.5432  H       1  <O>11       0.0748
  24 H5        0.9813     4.2163     2.7834  H       1  <O>11       0.1923
  25 H6        0.9652     5.0293    -2.9762  H       1  <O>11       0.0689
  26 H7        3.4376     7.4162    -4.5349  H       1  <O>11       0.0621
  27 H8        5.0858     8.7617    -5.7073  H       1  <O>11       0.0618
  28 H9        6.1297    10.6551    -4.5946  H       1  <O>11       0.0632
  29 H10       3.8698     9.8680    -1.1300  H       1  <O>11       0.0636
@<TRIPOS>BOND
     1     1     2    1
     2     2     3   ar
     3     3     4   ar
     4     4     5    1
     5     5     6    1
     6     6     7    1
     7     7     8   ar
     8     8     9   ar
     9     9    10   ar
    10    10    11   ar
    11    11    12    1
    12    11    13   ar
    13     7    13   ar
    14     4    14   ar
    15    14    15   ar
    16    15    16   ar
    17    16    17   ar
    18    17    18   ar
    19    14    18   ar
    20    18    19   ar
    21     2    19   ar
    22     1    20    1
    23     1    21    1
    24     6    22    1
    25     6    23    1
    26    17    24    1
    27     3    25    1
    28     8    26    1
    29     9    27    1
    30    10    28    1
    31    13    29    1
@<TRIPOS>MOLECULE
mol55_1_7
 29 31 0 0 0
SMALL
USER_CHARGES
****
VDW energy = -122.50
@<TRIPOS>ATOM
   1 N1       -0.9044     3.5207    -1.9841  N.pl3   1  <O>11      -0.3430
   2 C1        0.1391     4.1715    -1.2332  C.ar    1  <O>11       0.1221
   3 C2        1.0500     4.9413    -1.9515  C.ar    1  <O>11       0.0220
   4 C3        2.0798     5.5930    -1.2695  C.ar    1  <O>11       0.1549
   5 O1        2.9960     6.3570    -1.9350  O.3     1  <O>11      -0.4850
   6 C4        4.0948     5.5491    -2.3210  C.3     1  <O>11       0.1148
   7 C5        5.0916     6.3807    -3.0457  C.ar    1  <O>11      -0.0090
   8 C6        4.7321     7.0460    -4.2295  C.ar    1  <O>11      -0.0553
   9 C7        5.6754     7.8190    -4.9176  C.ar    1  <O>11      -0.0600
  10 C8        6.9791     7.9363    -4.4283  C.ar    1  <O>11      -0.0434
  11 C9        7.3337     7.2778    -3.2471  C.ar    1  <O>11       0.0413
  12 Cl1       8.9762     7.4282    -2.6396  Cl      1  <O>11      -0.0835
  13 C10       6.4009     6.5081    -2.5526  C.ar    1  <O>11      -0.0370
  14 C11       2.1281     5.4270     0.1183  C.ar    1  <O>11       0.1728
  15 N2        2.9819     5.9135     1.0693  N.ar    1  <O>11      -0.1243
  16 N3        2.5833     5.4558     2.2514  N.ar    1  <O>11      -0.0659
  17 N4        1.4865     4.6861     2.0457  N.ar    1  <O>11      -0.2402
  18 C12       1.1594     4.6319     0.7177  C.ar    1  <O>11       0.1813
  19 N5        0.1427     3.9767     0.1115  N.ar    1  <O>11      -0.2116
  20 H1       -1.5961     2.9456    -1.5032  H       1  <O>11       0.1437
  21 H2       -0.9514     3.6350    -2.9966  H       1  <O>11       0.1437
  22 H3        3.7461     4.7487    -2.9745  H       1  <O>11       0.0748
  23 H4        4.5581     5.1167    -1.4338  H       1  <O>11       0.0748
  24 H5        0.9813     4.2163     2.7834  H       1  <O>11       0.1923
  25 H6        0.9652     5.0293    -2.9762  H       1  <O>11       0.0689
  26 H7        3.7697     6.9648    -4.5932  H       1  <O>11       0.0621
  27 H8        5.4071     8.3035    -5.7885  H       1  <O>11       0.0618
  28 H9        7.6752     8.5050    -4.9353  H       1  <O>11       0.0632
  29 H10       6.6720     6.0327    -1.6776  H       1  <O>11       0.0636
@<TRIPOS>BOND
     1     1     2    1
     2     2     3   ar
     3     3     4   ar
     4     4     5    1
     5     5     6    1
     6     6     7    1
     7     7     8   ar
     8     8     9   ar
     9     9    10   ar
    10    10    11   ar
    11    11    12    1
    12    11    13   ar
    13     7    13   ar
    14     4    14   ar
    15    14    15   ar
    16    15    16   ar
    17    16    17   ar
    18    17    18   ar
    19    14    18   ar
    20    18    19   ar
    21     2    19   ar
    22     1    20    1
    23     1    21    1
    24     6    22    1
    25     6    23    1
    26    17    24    1
    27     3    25    1
    28     8    26    1
    29     9    27    1
    30    10    28    1
    31    13    29    1
@<TRIPOS>MOLECULE
mol55_1_8
 29 31 0 0 0
SMALL
USER_CHARGES
****
VDW energy = -119.63
@<TRIPOS>ATOM
   1 N1       -0.9044     3.5207    -1.9841  N.pl3   1  <O>11      -0.3430
   2 C1        0.1391     4.1715    -1.2332  C.ar    1  <O>11       0.1221
   3 C2        1.0500     4.9413    -1.9515  C.ar    1  <O>11       0.0220
   4 C3        2.0798     5.5930    -1.2695  C.ar    1  <O>11       0.1549
   5 O1        2.9960     6.3570    -1.9350  O.3     1  <O>11      -0.4850
   6 C4        4.0948     5.5491    -2.3210  C.3     1  <O>11       0.1148
   7 C5        5.0916     6.3807    -3.0457  C.ar    1  <O>11      -0.0090
   8 C6        6.2761     5.8032    -3.5321  C.ar    1  <O>11      -0.0553
   9 C7        7.2196     6.5903    -4.2038  C.ar    1  <O>11      -0.0600
  10 C8        6.9863     7.9544    -4.3976  C.ar    1  <O>11      -0.0434
  11 C9        5.8044     8.5265    -3.9176  C.ar    1  <O>11       0.0413
  12 Cl1       5.5195    10.2435    -4.1631  Cl      1  <O>11      -0.0835
  13 C10       4.8569     7.7507    -3.2502  C.ar    1  <O>11      -0.0370
  14 C11       2.1281     5.4270     0.1183  C.ar    1  <O>11       0.1728
  15 N2        2.9819     5.9135     1.0693  N.ar    1  <O>11      -0.1243
  16 N3        2.5833     5.4558     2.2514  N.ar    1  <O>11      -0.0659
  17 N4        1.4865     4.6861     2.0457  N.ar    1  <O>11      -0.2402
  18 C12       1.1594     4.6319     0.7177  C.ar    1  <O>11       0.1813
  19 N5        0.1427     3.9767     0.1115  N.ar    1  <O>11      -0.2116
  20 H1       -1.5961     2.9456    -1.5032  H       1  <O>11       0.1437
  21 H2       -0.9514     3.6350    -2.9966  H       1  <O>11       0.1437
  22 H3        3.7461     4.7487    -2.9745  H       1  <O>11       0.0748
  23 H4        4.5581     5.1167    -1.4338  H       1  <O>11       0.0748
  24 H5        0.9813     4.2163     2.7834  H       1  <O>11       0.1923
  25 H6        0.9652     5.0293    -2.9762  H       1  <O>11       0.0689
  26 H7        6.4515     4.7957    -3.3940  H       1  <O>11       0.0621
  27 H8        8.0896     6.1618    -4.5566  H       1  <O>11       0.0618
  28 H9        7.6816     8.5354    -4.8917  H       1  <O>11       0.0632
  29 H10       3.9847     8.1824    -2.9069  H       1  <O>11       0.0636
@<TRIPOS>BOND
     1     1     2    1
     2     2     3   ar
     3     3     4   ar
     4     4     5    1
     5     5     6    1
     6     6     7    1
     7     7     8   ar
     8     8     9   ar
     9     9    10   ar
    10    10    11   ar
    11    11    12    1
    12    11    13   ar
    13     7    13   ar
    14     4    14   ar
    15    14    15   ar
    16    15    16   ar
    17    16    17   ar
    18    17    18   ar
    19    14    18   ar
    20    18    19   ar
    21     2    19   ar
    22     1    20    1
    23     1    21    1
    24     6    22    1
    25     6    23    1
    26    17    24    1
    27     3    25    1
    28     8    26    1
    29     9    27    1
    30    10    28    1
    31    13    29    1
@<TRIPOS>MOLECULE
mol55_1_9
 29 31 0 0 0
SMALL
USER_CHARGES
****
VDW energy = -119.63
@<TRIPOS>ATOM
   1 N1       -0.9044     3.5207    -1.9841  N.pl3   1  <O>11      -0.3430
   2 C1        0.1391     4.1715    -1.2332  C.ar    1  <O>11       0.1221
   3 C2        1.0500     4.9413    -1.9515  C.ar    1  <O>11       0.0220
   4 C3        2.0798     5.5930    -1.2695  C.ar    1  <O>11       0.1549
   5 O1        2.9960     6.3570    -1.9350  O.3     1  <O>11      -0.4850
   6 C4        2.5319     7.6942    -2.0100  C.3     1  <O>11       0.1148
   7 C5        3.5295     8.5256    -2.7339  C.ar    1  <O>11      -0.0090
   8 C6        3.2951     9.8955    -2.9380  C.ar    1  <O>11      -0.0553
   9 C7        4.2300    10.6747    -3.6307  C.ar    1  <O>11      -0.0600
  10 C8        5.4036    10.0947    -4.1196  C.ar    1  <O>11      -0.0434
  11 C9        5.6377     8.7322    -3.9110  C.ar    1  <O>11       0.0413
  12 Cl1       7.1150     8.0095    -4.5313  Cl      1  <O>11      -0.0835
  13 C10       4.7145     7.9481    -3.2196  C.ar    1  <O>11      -0.0370
  14 C11       2.1281     5.4270     0.1183  C.ar    1  <O>11       0.1728
  15 N2        2.9819     5.9135     1.0693  N.ar    1  <O>11      -0.1243
  16 N3        2.5833     5.4558     2.2514  N.ar    1  <O>11      -0.0659
  17 N4        1.4865     4.6861     2.0457  N.ar    1  <O>11      -0.2402
  18 C12       1.1594     4.6319     0.7177  C.ar    1  <O>11       0.1813
  19 N5        0.1427     3.9767     0.1115  N.ar    1  <O>11      -0.2116
  20 H1       -1.5961     2.9456    -1.5032  H       1  <O>11       0.1437
  21 H2       -0.9514     3.6350    -2.9966  H       1  <O>11       0.1437
  22 H3        2.3935     8.0884    -1.0027  H       1  <O>11       0.0748
  23 H4        1.5812     7.7202    -2.5432  H       1  <O>11       0.0748
  24 H5        0.9813     4.2163     2.7834  H       1  <O>11       0.1923
  25 H6        0.9652     5.0293    -2.9762  H       1  <O>11       0.0689
  26 H7        2.4314    10.3290    -2.5762  H       1  <O>11       0.0621
  27 H8        4.0518    11.6801    -3.7805  H       1  <O>11       0.0618
  28 H9        6.0926    10.6680    -4.6311  H       1  <O>11       0.0632
  29 H10       4.9016     6.9450    -3.0650  H       1  <O>11       0.0636
@<TRIPOS>BOND
     1     1     2    1
     2     2     3   ar
     3     3     4   ar
     4     4     5    1
     5     5     6    1
     6     6     7    1
     7     7     8   ar
     8     8     9   ar
     9     9    10   ar
    10    10    11   ar
    11    11    12    1
    12    11    13   ar
    13     7    13   ar
    14     4    14   ar
    15    14    15   ar
    16    15    16   ar
    17    16    17   ar
    18    17    18   ar
    19    14    18   ar
    20    18    19   ar
    21     2    19   ar
    22     1    20    1
    23     1    21    1
    24     6    22    1
    25     6    23    1
    26    17    24    1
    27     3    25    1
    28     8    26    1
    29     9    27    1
    30    10    28    1
    31    13    29    1
@<TRIPOS>MOLECULE
mol55_1_10
 29 31 0 0 0
SMALL
USER_CHARGES
****
VDW energy = -118.11
@<TRIPOS>ATOM
   1 N1       -0.9044     3.5207    -1.9841  N.pl3   1  <O>11      -0.3430
   2 C1        0.1391     4.1715    -1.2332  C.ar    1  <O>11       0.1221
   3 C2        1.0500     4.9413    -1.9515  C.ar    1  <O>11       0.0220
   4 C3        2.0798     5.5930    -1.2695  C.ar    1  <O>11       0.1549
   5 O1        2.9960     6.3570    -1.9350  O.3     1  <O>11      -0.4850
   6 C4        4.2949     5.8310    -1.7220  C.3     1  <O>11       0.1148
   7 C5        5.2918     6.6624    -2.4468  C.ar    1  <O>11      -0.0090
   8 C6        5.8913     7.7629    -1.8124  C.ar    1  <O>11      -0.0553
   9 C7        6.8210     8.5524    -2.5005  C.ar    1  <O>11      -0.0600
  10 C8        7.1607     8.2474    -3.8212  C.ar    1  <O>11      -0.0434
  11 C9        6.5670     7.1485    -4.4493  C.ar    1  <O>11       0.0413
  12 Cl1       6.9977     6.7729    -6.1115  Cl      1  <O>11      -0.0835
  13 C10       5.6424     6.3540    -3.7718  C.ar    1  <O>11      -0.0370
  14 C11       2.1281     5.4270     0.1183  C.ar    1  <O>11       0.1728
  15 N2        2.9819     5.9135     1.0693  N.ar    1  <O>11      -0.1243
  16 N3        2.5833     5.4558     2.2514  N.ar    1  <O>11      -0.0659
  17 N4        1.4865     4.6861     2.0457  N.ar    1  <O>11      -0.2402
  18 C12       1.1594     4.6319     0.7177  C.ar    1  <O>11       0.1813
  19 N5        0.1427     3.9767     0.1115  N.ar    1  <O>11      -0.2116
  20 H1       -1.5961     2.9456    -1.5032  H       1  <O>11       0.1437
  21 H2       -0.9514     3.6350    -2.9966  H       1  <O>11       0.1437
  22 H3        4.3379     4.8065    -2.0933  H       1  <O>11       0.0748
  23 H4        4.5207     5.8396    -0.6553  H       1  <O>11       0.0748
  24 H5        0.9813     4.2163     2.7834  H       1  <O>11       0.1923
  25 H6        0.9652     5.0293    -2.9762  H       1  <O>11       0.0689
  26 H7        5.6459     7.9904    -0.8362  H       1  <O>11       0.0621
  27 H8        7.2564     9.3617    -2.0309  H       1  <O>11       0.0618
  28 H9        7.8450     8.8292    -4.3294  H       1  <O>11       0.0632
  29 H10       5.2164     5.5408    -4.2432  H       1  <O>11       0.0636
@<TRIPOS>BOND
     1     1     2    1
     2     2     3   ar
     3     3     4   ar
     4     4     5    1
     5     5     6    1
     6     6     7    1
     7     7     8   ar
     8     8     9   ar
     9     9    10   ar
    10    10    11   ar
    11    11    12    1
    12    11    13   ar
    13     7    13   ar
    14     4    14   ar
    15    14    15   ar
    16    15    16   ar
    17    16    17   ar
    18    17    18   ar
    19    14    18   ar
    20    18    19   ar
    21     2    19   ar
    22     1    20    1
    23     1    21    1
    24     6    22    1
    25     6    23    1
    26    17    24    1
    27     3    25    1
    28     8    26    1
    29     9    27    1
    30    10    28    1
    31    13    29    1
@<TRIPOS>MOLECULE
mol55_1_11
 29 31 0 0 0
SMALL
USER_CHARGES
****
VDW energy = -118.09
@<TRIPOS>ATOM
   1 N1       -0.9044     3.5207    -1.9841  N.pl3   1  <O>11      -0.3430
   2 C1        0.1391     4.1715    -1.2332  C.ar    1  <O>11       0.1221
   3 C2        1.0500     4.9413    -1.9515  C.ar    1  <O>11       0.0220
   4 C3        2.0798     5.5930    -1.2695  C.ar    1  <O>11       0.1549
   5 O1        2.9960     6.3570    -1.9350  O.3     1  <O>11      -0.4850
   6 C4        2.9413     7.6887    -1.4526  C.3     1  <O>11       0.1148
   7 C5        3.9390     8.5199    -2.1767  C.ar    1  <O>11      -0.0090
   8 C6        5.2478     8.6461    -1.6827  C.ar    1  <O>11      -0.0553
   9 C7        6.1829     9.4392    -2.3591  C.ar    1  <O>11      -0.0600
  10 C8        5.8203    10.1066    -3.5321  C.ar    1  <O>11      -0.0434
  11 C9        4.5188     9.9756    -4.0254  C.ar    1  <O>11       0.0413
  12 Cl1       4.0697    10.8203    -5.5000  Cl      1  <O>11      -0.0835
  13 C10       3.5809     9.1856    -3.3609  C.ar    1  <O>11      -0.0370
  14 C11       2.1281     5.4270     0.1183  C.ar    1  <O>11       0.1728
  15 N2        2.9819     5.9135     1.0693  N.ar    1  <O>11      -0.1243
  16 N3        2.5833     5.4558     2.2514  N.ar    1  <O>11      -0.0659
  17 N4        1.4865     4.6861     2.0457  N.ar    1  <O>11      -0.2402
  18 C12       1.1594     4.6319     0.7177  C.ar    1  <O>11       0.1813
  19 N5        0.1427     3.9767     0.1115  N.ar    1  <O>11      -0.2116
  20 H1       -1.5961     2.9456    -1.5032  H       1  <O>11       0.1437
  21 H2       -0.9514     3.6350    -2.9966  H       1  <O>11       0.1437
  22 H3        3.1666     7.6987    -0.3857  H       1  <O>11       0.0748
  23 H4        1.9426     8.0944    -1.6161  H       1  <O>11       0.0748
  24 H5        0.9813     4.2163     2.7834  H       1  <O>11       0.1923
  25 H6        0.9652     5.0293    -2.9762  H       1  <O>11       0.0689
  26 H7        5.5211     8.1528    -0.8184  H       1  <O>11       0.0621
  27 H8        7.1424     9.5310    -1.9904  H       1  <O>11       0.0618
  28 H9        6.5085    10.6921    -4.0308  H       1  <O>11       0.0632
  29 H10       2.6252     9.0903    -3.7386  H       1  <O>11       0.0636
@<TRIPOS>BOND
     1     1     2    1
     2     2     3   ar
     3     3     4   ar
     4     4     5    1
     5     5     6    1
     6     6     7    1
     7     7     8   ar
     8     8     9   ar
     9     9    10   ar
    10    10    11   ar
    11    11    12    1
    12    11    13   ar
    13     7    13   ar
    14     4    14   ar
    15    14    15   ar
    16    15    16   ar
    17    16    17   ar
    18    17    18   ar
    19    14    18   ar
    20    18    19   ar
    21     2    19   ar
    22     1    20    1
    23     1    21    1
    24     6    22    1
    25     6    23    1
    26    17    24    1
    27     3    25    1
    28     8    26    1
    29     9    27    1
    30    10    28    1
    31    13    29    1
@<TRIPOS>MOLECULE
mol55_1_12
 29 31 0 0 0
SMALL
USER_CHARGES
****
VDW energy = -118.06
@<TRIPOS>ATOM
   1 N1       -0.9044     3.5207    -1.9841  N.pl3   1  <O>11      -0.3430
   2 C1        0.1391     4.1715    -1.2332  C.ar    1  <O>11       0.1221
   3 C2        1.0500     4.9413    -1.9515  C.ar    1  <O>11       0.0220
   4 C3        2.0798     5.5930    -1.2695  C.ar    1  <O>11       0.1549
   5 O1        2.9960     6.3570    -1.9350  O.3     1  <O>11      -0.4850
   6 C4        4.2949     5.8310    -1.7220  C.3     1  <O>11       0.1148
   7 C5        5.2918     6.6624    -2.4468  C.ar    1  <O>11      -0.0090
   8 C6        5.6419     6.3538    -3.7717  C.ar    1  <O>11      -0.0553
   9 C7        6.5902     7.1304    -4.4490  C.ar    1  <O>11      -0.0600
  10 C8        7.1907     8.2196    -3.8119  C.ar    1  <O>11      -0.0434
  11 C9        6.8370     8.5285    -2.4951  C.ar    1  <O>11       0.0413
  12 Cl1       7.5988     9.8985    -1.6998  Cl      1  <O>11      -0.0835
  13 C10       5.8915     7.7633    -1.8128  C.ar    1  <O>11      -0.0370
  14 C11       2.1281     5.4270     0.1183  C.ar    1  <O>11       0.1728
  15 N2        2.9819     5.9135     1.0693  N.ar    1  <O>11      -0.1243
  16 N3        2.5833     5.4558     2.2514  N.ar    1  <O>11      -0.0659
  17 N4        1.4865     4.6861     2.0457  N.ar    1  <O>11      -0.2402
  18 C12       1.1594     4.6319     0.7177  C.ar    1  <O>11       0.1813
  19 N5        0.1427     3.9767     0.1115  N.ar    1  <O>11      -0.2116
  20 H1       -1.5961     2.9456    -1.5032  H       1  <O>11       0.1437
  21 H2       -0.9514     3.6350    -2.9966  H       1  <O>11       0.1437
  22 H3        4.3379     4.8065    -2.0933  H       1  <O>11       0.0748
  23 H4        4.5207     5.8396    -0.6553  H       1  <O>11       0.0748
  24 H5        0.9813     4.2163     2.7834  H       1  <O>11       0.1923
  25 H6        0.9652     5.0293    -2.9762  H       1  <O>11       0.0689
  26 H7        5.1990     5.5523    -4.2474  H       1  <O>11       0.0621
  27 H8        6.8461     6.8978    -5.4213  H       1  <O>11       0.0618
  28 H9        7.8903     8.7918    -4.3099  H       1  <O>11       0.0632
  29 H10       5.6328     8.0054    -0.8435  H       1  <O>11       0.0636
@<TRIPOS>BOND
     1     1     2    1
     2     2     3   ar
     3     3     4   ar
     4     4     5    1
     5     5     6    1
     6     6     7    1
     7     7     8   ar
     8     8     9   ar
     9     9    10   ar
    10    10    11   ar
    11    11    12    1
    12    11    13   ar
    13     7    13   ar
    14     4    14   ar
    15    14    15   ar
    16    15    16   ar
    17    16    17   ar
    18    17    18   ar
    19    14    18   ar
    20    18    19   ar
    21     2    19   ar
    22     1    20    1
    23     1    21    1
    24     6    22    1
    25     6    23    1
    26    17    24    1
    27     3    25    1
    28     8    26    1
    29     9    27    1
    30    10    28    1
    31    13    29    1
@<TRIPOS>MOLECULE
mol55_1_13
 29 31 0 0 0
SMALL
USER_CHARGES
****
VDW energy = -118.03
@<TRIPOS>ATOM
   1 N1       -0.9044     3.5207    -1.9841  N.pl3   1  <O>11      -0.3430
   2 C1        0.1391     4.1715    -1.2332  C.ar    1  <O>11       0.1221
   3 C2        1.0500     4.9413    -1.9515  C.ar    1  <O>11       0.0220
   4 C3        2.0798     5.5930    -1.2695  C.ar    1  <O>11       0.1549
   5 O1        2.9960     6.3570    -1.9350  O.3     1  <O>11      -0.4850
   6 C4        2.9413     7.6887    -1.4526  C.3     1  <O>11       0.1148
   7 C5        3.9390     8.5199    -2.1767  C.ar    1  <O>11      -0.0090
   8 C6        3.5805     9.1855    -3.3606  C.ar    1  <O>11      -0.0553
   9 C7        4.5246     9.9581    -4.0482  C.ar    1  <O>11      -0.0600
  10 C8        5.8281    10.0746    -3.5582  C.ar    1  <O>11      -0.0434
  11 C9        6.1817     9.4159    -2.3768  C.ar    1  <O>11       0.0413
  12 Cl1       7.8239     9.5653    -1.7683  Cl      1  <O>11      -0.0835
  13 C10       5.2481     8.6466    -1.6829  C.ar    1  <O>11      -0.0370
  14 C11       2.1281     5.4270     0.1183  C.ar    1  <O>11       0.1728
  15 N2        2.9819     5.9135     1.0693  N.ar    1  <O>11      -0.1243
  16 N3        2.5833     5.4558     2.2514  N.ar    1  <O>11      -0.0659
  17 N4        1.4865     4.6861     2.0457  N.ar    1  <O>11      -0.2402
  18 C12       1.1594     4.6319     0.7177  C.ar    1  <O>11       0.1813
  19 N5        0.1427     3.9767     0.1115  N.ar    1  <O>11      -0.2116
  20 H1       -1.5961     2.9456    -1.5032  H       1  <O>11       0.1437
  21 H2       -0.9514     3.6350    -2.9966  H       1  <O>11       0.1437
  22 H3        3.1666     7.6987    -0.3857  H       1  <O>11       0.0748
  23 H4        1.9426     8.0944    -1.6161  H       1  <O>11       0.0748
  24 H5        0.9813     4.2163     2.7834  H       1  <O>11       0.1923
  25 H6        0.9652     5.0293    -2.9762  H       1  <O>11       0.0689
  26 H7        2.6183     9.1049    -3.7248  H       1  <O>11       0.0621
  27 H8        4.2570    10.4427    -4.9191  H       1  <O>11       0.0618
  28 H9        6.5248    10.6430    -4.0647  H       1  <O>11       0.0632
  29 H10       5.5185     8.1710    -0.8078  H       1  <O>11       0.0636
@<TRIPOS>BOND
     1     1     2    1
     2     2     3   ar
     3     3     4   ar
     4     4     5    1
     5     5     6    1
     6     6     7    1
     7     7     8   ar
     8     8     9   ar
     9     9    10   ar
    10    10    11   ar
    11    11    12    1
    12    11    13   ar
    13     7    13   ar
    14     4    14   ar
    15    14    15   ar
    16    15    16   ar
    17    16    17   ar
    18    17    18   ar
    19    14    18   ar
    20    18    19   ar
    21     2    19   ar
    22     1    20    1
    23     1    21    1
    24     6    22    1
    25     6    23    1
    26    17    24    1
    27     3    25    1
    28     8    26    1
    29     9    27    1
    30    10    28    1
    31    13    29    1
@<TRIPOS>MOLECULE
mol55_1_14
 29 31 0 0 0
SMALL
USER_CHARGES
****
VDW energy = -117.53
@<TRIPOS>ATOM
   1 N1       -0.9044     3.5207    -1.9841  N.pl3   1  <O>11      -0.3430
   2 C1        0.1391     4.1715    -1.2332  C.ar    1  <O>11       0.1221
   3 C2        1.0500     4.9413    -1.9515  C.ar    1  <O>11       0.0220
   4 C3        2.0798     5.5930    -1.2695  C.ar    1  <O>11       0.1549
   5 O1        2.9960     6.3570    -1.9350  O.3     1  <O>11      -0.4850
   6 C4        4.2949     5.8310    -1.7220  C.3     1  <O>11       0.1148
   7 C5        5.2918     6.6624    -2.4468  C.ar    1  <O>11      -0.0090
   8 C6        5.4289     8.0274    -2.1450  C.ar    1  <O>11      -0.0553
   9 C7        6.3598     8.8119    -2.8371  C.ar    1  <O>11      -0.0600
  10 C8        7.1606     8.2403    -3.8294  C.ar    1  <O>11      -0.0434
  11 C9        7.0265     6.8804    -4.1248  C.ar    1  <O>11       0.0413
  12 Cl1       8.0357     6.1694    -5.3761  Cl      1  <O>11      -0.0835
  13 C10       6.1047     6.0897    -3.4392  C.ar    1  <O>11      -0.0370
  14 C11       2.1281     5.4270     0.1183  C.ar    1  <O>11       0.1728
  15 N2        2.9819     5.9135     1.0693  N.ar    1  <O>11      -0.1243
  16 N3        2.5833     5.4558     2.2514  N.ar    1  <O>11      -0.0659
  17 N4        1.4865     4.6861     2.0457  N.ar    1  <O>11      -0.2402
  18 C12       1.1594     4.6319     0.7177  C.ar    1  <O>11       0.1813
  19 N5        0.1427     3.9767     0.1115  N.ar    1  <O>11      -0.2116
  20 H1       -1.5961     2.9456    -1.5032  H       1  <O>11       0.1437
  21 H2       -0.9514     3.6350    -2.9966  H       1  <O>11       0.1437
  22 H3        4.3379     4.8065    -2.0933  H       1  <O>11       0.0748
  23 H4        4.5207     5.8396    -0.6553  H       1  <O>11       0.0748
  24 H5        0.9813     4.2163     2.7834  H       1  <O>11       0.1923
  25 H6        0.9652     5.0293    -2.9762  H       1  <O>11       0.0689
  26 H7        4.8419     8.4533    -1.4109  H       1  <O>11       0.0621
  27 H8        6.4546     9.8150    -2.6137  H       1  <O>11       0.0618
  28 H9        7.8462     8.8180    -4.3407  H       1  <O>11       0.0632
  29 H10       6.0199     5.0852    -3.6605  H       1  <O>11       0.0636
@<TRIPOS>BOND
     1     1     2    1
     2     2     3   ar
     3     3     4   ar
     4     4     5    1
     5     5     6    1
     6     6     7    1
     7     7     8   ar
     8     8     9   ar
     9     9    10   ar
    10    10    11   ar
    11    11    12    1
    12    11    13   ar
    13     7    13   ar
    14     4    14   ar
    15    14    15   ar
    16    15    16   ar
    17    16    17   ar
    18    17    18   ar
    19    14    18   ar
    20    18    19   ar
    21     2    19   ar
    22     1    20    1
    23     1    21    1
    24     6    22    1
    25     6    23    1
    26    17    24    1
    27     3    25    1
    28     8    26    1
    29     9    27    1
    30    10    28    1
    31    13    29    1
@<TRIPOS>MOLECULE
mol55_1_15
 29 31 0 0 0
SMALL
USER_CHARGES
****
VDW energy = -117.51
@<TRIPOS>ATOM
   1 N1       -0.9044     3.5207    -1.9841  N.pl3   1  <O>11      -0.3430
   2 C1        0.1391     4.1715    -1.2332  C.ar    1  <O>11       0.1221
   3 C2        1.0500     4.9413    -1.9515  C.ar    1  <O>11       0.0220
   4 C3        2.0798     5.5930    -1.2695  C.ar    1  <O>11       0.1549
   5 O1        2.9960     6.3570    -1.9350  O.3     1  <O>11      -0.4850
   6 C4        2.9413     7.6887    -1.4526  C.3     1  <O>11       0.1148
   7 C5        3.9390     8.5199    -2.1767  C.ar    1  <O>11      -0.0090
   8 C6        5.3050     8.1977    -2.1186  C.ar    1  <O>11      -0.0553
   9 C7        6.2447     8.9887    -2.7911  C.ar    1  <O>11      -0.0600
  10 C8        5.8284    10.1010    -3.5274  C.ar    1  <O>11      -0.0434
  11 C9        4.4679    10.4171    -3.5886  C.ar    1  <O>11       0.0413
  12 Cl1       3.9525    11.8193    -4.5148  Cl      1  <O>11      -0.0835
  13 C10       3.5237     9.6340    -2.9251  C.ar    1  <O>11      -0.0370
  14 C11       2.1281     5.4270     0.1183  C.ar    1  <O>11       0.1728
  15 N2        2.9819     5.9135     1.0693  N.ar    1  <O>11      -0.1243
  16 N3        2.5833     5.4558     2.2514  N.ar    1  <O>11      -0.0659
  17 N4        1.4865     4.6861     2.0457  N.ar    1  <O>11      -0.2402
  18 C12       1.1594     4.6319     0.7177  C.ar    1  <O>11       0.1813
  19 N5        0.1427     3.9767     0.1115  N.ar    1  <O>11      -0.2116
  20 H1       -1.5961     2.9456    -1.5032  H       1  <O>11       0.1437
  21 H2       -0.9514     3.6350    -2.9966  H       1  <O>11       0.1437
  22 H3        3.1666     7.6987    -0.3857  H       1  <O>11       0.0748
  23 H4        1.9426     8.0944    -1.6161  H       1  <O>11       0.0748
  24 H5        0.9813     4.2163     2.7834  H       1  <O>11       0.1923
  25 H6        0.9652     5.0293    -2.9762  H       1  <O>11       0.0689
  26 H7        5.6170     7.3756    -1.5786  H       1  <O>11       0.0621
  27 H8        7.2474     8.7495    -2.7428  H       1  <O>11       0.0618
  28 H9        6.5203    10.6851    -4.0225  H       1  <O>11       0.0632
  29 H10       2.5214     9.8726    -2.9837  H       1  <O>11       0.0636
@<TRIPOS>BOND
     1     1     2    1
     2     2     3   ar
     3     3     4   ar
     4     4     5    1
     5     5     6    1
     6     6     7    1
     7     7     8   ar
     8     8     9   ar
     9     9    10   ar
    10    10    11   ar
    11    11    12    1
    12    11    13   ar
    13     7    13   ar
    14     4    14   ar
    15    14    15   ar
    16    15    16   ar
    17    16    17   ar
    18    17    18   ar
    19    14    18   ar
    20    18    19   ar
    21     2    19   ar
    22     1    20    1
    23     1    21    1
    24     6    22    1
    25     6    23    1
    26    17    24    1
    27     3    25    1
    28     8    26    1
    29     9    27    1
    30    10    28    1
    31    13    29    1
@<TRIPOS>MOLECULE
mol55_1_16
 29 31 0 0 0
SMALL
USER_CHARGES
****
VDW energy = -117.47
@<TRIPOS>ATOM
   1 N1       -0.9044     3.5207    -1.9841  N.pl3   1  <O>11      -0.3430
   2 C1        0.1391     4.1715    -1.2332  C.ar    1  <O>11       0.1221
   3 C2        1.0500     4.9413    -1.9515  C.ar    1  <O>11       0.0220
   4 C3        2.0798     5.5930    -1.2695  C.ar    1  <O>11       0.1549
   5 O1        2.9960     6.3570    -1.9350  O.3     1  <O>11      -0.4850
   6 C4        4.2949     5.8310    -1.7220  C.3     1  <O>11       0.1148
   7 C5        5.2918     6.6624    -2.4468  C.ar    1  <O>11      -0.0090
   8 C6        5.2130     6.8070    -3.8418  C.ar    1  <O>11      -0.0553
   9 C7        6.1599     7.5804    -4.5246  C.ar    1  <O>11      -0.0600
  10 C8        7.1866     8.2162    -3.8214  C.ar    1  <O>11      -0.0434
  11 C9        7.2604     8.0756    -2.4324  C.ar    1  <O>11       0.0413
  12 Cl1       8.5562     8.8763    -1.5554  Cl      1  <O>11      -0.0835
  13 C10       6.3205     7.3101    -1.7426  C.ar    1  <O>11      -0.0370
  14 C11       2.1281     5.4270     0.1183  C.ar    1  <O>11       0.1728
  15 N2        2.9819     5.9135     1.0693  N.ar    1  <O>11      -0.1243
  16 N3        2.5833     5.4558     2.2514  N.ar    1  <O>11      -0.0659
  17 N4        1.4865     4.6861     2.0457  N.ar    1  <O>11      -0.2402
  18 C12       1.1594     4.6319     0.7177  C.ar    1  <O>11       0.1813
  19 N5        0.1427     3.9767     0.1115  N.ar    1  <O>11      -0.2116
  20 H1       -1.5961     2.9456    -1.5032  H       1  <O>11       0.1437
  21 H2       -0.9514     3.6350    -2.9966  H       1  <O>11       0.1437
  22 H3        4.3379     4.8065    -2.0933  H       1  <O>11       0.0748
  23 H4        4.5207     5.8396    -0.6553  H       1  <O>11       0.0748
  24 H5        0.9813     4.2163     2.7834  H       1  <O>11       0.1923
  25 H6        0.9652     5.0293    -2.9762  H       1  <O>11       0.0689
  26 H7        4.4549     6.3419    -4.3651  H       1  <O>11       0.0621
  27 H8        6.0993     7.6812    -5.5499  H       1  <O>11       0.0618
  28 H9        7.8854     8.7856    -4.3238  H       1  <O>11       0.0632
  29 H10       6.3805     7.2197    -0.7163  H       1  <O>11       0.0636
@<TRIPOS>BOND
     1     1     2    1
     2     2     3   ar
     3     3     4   ar
     4     4     5    1
     5     5     6    1
     6     6     7    1
     7     7     8   ar
     8     8     9   ar
     9     9    10   ar
    10    10    11   ar
    11    11    12    1
    12    11    13   ar
    13     7    13   ar
    14     4    14   ar
    15    14    15   ar
    16    15    16   ar
    17    16    17   ar
    18    17    18   ar
    19    14    18   ar
    20    18    19   ar
    21     2    19   ar
    22     1    20    1
    23     1    21    1
    24     6    22    1
    25     6    23    1
    26    17    24    1
    27     3    25    1
    28     8    26    1
    29     9    27    1
    30    10    28    1
    31    13    29    1
@<TRIPOS>MOLECULE
mol55_1_17
 29 31 0 0 0
SMALL
USER_CHARGES
****
VDW energy = -117.45
@<TRIPOS>ATOM
   1 N1       -0.9044     3.5207    -1.9841  N.pl3   1  <O>11      -0.3430
   2 C1        0.1391     4.1715    -1.2332  C.ar    1  <O>11       0.1221
   3 C2        1.0500     4.9413    -1.9515  C.ar    1  <O>11       0.0220
   4 C3        2.0798     5.5930    -1.2695  C.ar    1  <O>11       0.1549
   5 O1        2.9960     6.3570    -1.9350  O.3     1  <O>11      -0.4850
   6 C4        2.9413     7.6887    -1.4526  C.3     1  <O>11       0.1148
   7 C5        3.9390     8.5199    -2.1767  C.ar    1  <O>11      -0.0090
   8 C6        3.8610     8.6648    -3.5717  C.ar    1  <O>11      -0.0553
   9 C7        4.8086     9.4381    -4.2539  C.ar    1  <O>11      -0.0600
  10 C8        5.8351    10.0733    -3.5499  C.ar    1  <O>11      -0.0434
  11 C9        5.9081     9.9324    -2.1609  C.ar    1  <O>11       0.0413
  12 Cl1       7.2037    10.7324    -1.2831  Cl      1  <O>11      -0.0835
  13 C10       4.9675     9.1672    -1.4718  C.ar    1  <O>11      -0.0370
  14 C11       2.1281     5.4270     0.1183  C.ar    1  <O>11       0.1728
  15 N2        2.9819     5.9135     1.0693  N.ar    1  <O>11      -0.1243
  16 N3        2.5833     5.4558     2.2514  N.ar    1  <O>11      -0.0659
  17 N4        1.4865     4.6861     2.0457  N.ar    1  <O>11      -0.2402
  18 C12       1.1594     4.6319     0.7177  C.ar    1  <O>11       0.1813
  19 N5        0.1427     3.9767     0.1115  N.ar    1  <O>11      -0.2116
  20 H1       -1.5961     2.9456    -1.5032  H       1  <O>11       0.1437
  21 H2       -0.9514     3.6350    -2.9966  H       1  <O>11       0.1437
  22 H3        3.1666     7.6987    -0.3857  H       1  <O>11       0.0748
  23 H4        1.9426     8.0944    -1.6161  H       1  <O>11       0.0748
  24 H5        0.9813     4.2163     2.7834  H       1  <O>11       0.1923
  25 H6        0.9652     5.0293    -2.9762  H       1  <O>11       0.0689
  26 H7        3.1030     8.2001    -4.0956  H       1  <O>11       0.0621
  27 H8        4.7486     9.5390    -5.2792  H       1  <O>11       0.0618
  28 H9        6.5344    10.6425    -4.0519  H       1  <O>11       0.0632
  29 H10       5.0270     9.0765    -0.4455  H       1  <O>11       0.0636
@<TRIPOS>BOND
     1     1     2    1
     2     2     3   ar
     3     3     4   ar
     4     4     5    1
     5     5     6    1
     6     6     7    1
     7     7     8   ar
     8     8     9   ar
     9     9    10   ar
    10    10    11   ar
    11    11    12    1
    12    11    13   ar
    13     7    13   ar
    14     4    14   ar
    15    14    15   ar
    16    15    16   ar
    17    16    17   ar
    18    17    18   ar
    19    14    18   ar
    20    18    19   ar
    21     2    19   ar
    22     1    20    1
    23     1    21    1
    24     6    22    1
    25     6    23    1
    26    17    24    1
    27     3    25    1
    28     8    26    1
    29     9    27    1
    30    10    28    1
    31    13    29    1
@<TRIPOS>MOLECULE
mol55_1_18
 29 31 0 0 0
SMALL
USER_CHARGES
****
VDW energy = -114.58
@<TRIPOS>ATOM
   1 N1       -0.9044     3.5207    -1.9841  N.pl3   1  <O>11      -0.3430
   2 C1        0.1391     4.1715    -1.2332  C.ar    1  <O>11       0.1221
   3 C2        1.0500     4.9413    -1.9515  C.ar    1  <O>11       0.0220
   4 C3        2.0798     5.5930    -1.2695  C.ar    1  <O>11       0.1549
   5 O1        2.9960     6.3570    -1.9350  O.3     1  <O>11      -0.4850
   6 C4        4.2949     5.8310    -1.7220  C.3     1  <O>11       0.1148
   7 C5        5.2918     6.6624    -2.4468  C.ar    1  <O>11      -0.0090
   8 C6        6.6579     6.3408    -2.3892  C.ar    1  <O>11      -0.0553
   9 C7        7.5970     7.1320    -3.0624  C.ar    1  <O>11      -0.0600
  10 C8        7.1798     8.2439    -3.7988  C.ar    1  <O>11      -0.0434
  11 C9        5.8192     8.5594    -3.8595  C.ar    1  <O>11       0.0413
  12 Cl1       5.3027     9.9611    -4.7858  Cl      1  <O>11      -0.0835
  13 C10       4.8757     7.7761    -3.1953  C.ar    1  <O>11      -0.0370
  14 C11       2.1281     5.4270     0.1183  C.ar    1  <O>11       0.1728
  15 N2        2.9819     5.9135     1.0693  N.ar    1  <O>11      -0.1243
  16 N3        2.5833     5.4558     2.2514  N.ar    1  <O>11      -0.0659
  17 N4        1.4865     4.6861     2.0457  N.ar    1  <O>11      -0.2402
  18 C12       1.1594     4.6319     0.7177  C.ar    1  <O>11       0.1813
  19 N5        0.1427     3.9767     0.1115  N.ar    1  <O>11      -0.2116
  20 H1       -1.5961     2.9456    -1.5032  H       1  <O>11       0.1437
  21 H2       -0.9514     3.6350    -2.9966  H       1  <O>11       0.1437
  22 H3        4.3379     4.8065    -2.0933  H       1  <O>11       0.0748
  23 H4        4.5207     5.8396    -0.6553  H       1  <O>11       0.0748
  24 H5        0.9813     4.2163     2.7834  H       1  <O>11       0.1923
  25 H6        0.9652     5.0293    -2.9762  H       1  <O>11       0.0689
  26 H7        6.9706     5.5189    -1.8491  H       1  <O>11       0.0621
  27 H8        8.5999     6.8932    -3.0145  H       1  <O>11       0.0618
  28 H9        7.8713     8.8281    -4.2944  H       1  <O>11       0.0632
  29 H10       3.8732     8.0142    -3.2535  H       1  <O>11       0.0636
@<TRIPOS>BOND
     1     1     2    1
     2     2     3   ar
     3     3     4   ar
     4     4     5    1
     5     5     6    1
     6     6     7    1
     7     7     8   ar
     8     8     9   ar
     9     9    10   ar
    10    10    11   ar
    11    11    12    1
    12    11    13   ar
    13     7    13   ar
    14     4    14   ar
    15    14    15   ar
    16    15    16   ar
    17    16    17   ar
    18    17    18   ar
    19    14    18   ar
    20    18    19   ar
    21     2    19   ar
    22     1    20    1
    23     1    21    1
    24     6    22    1
    25     6    23    1
    26    17    24    1
    27     3    25    1
    28     8    26    1
    29     9    27    1
    30    10    28    1
    31    13    29    1
@<TRIPOS>MOLECULE
mol55_1_19
 29 31 0 0 0
SMALL
USER_CHARGES
****
VDW energy = -114.56
@<TRIPOS>ATOM
   1 N1       -0.9044     3.5207    -1.9841  N.pl3   1  <O>11      -0.3430
   2 C1        0.1391     4.1715    -1.2332  C.ar    1  <O>11       0.1221
   3 C2        1.0500     4.9413    -1.9515  C.ar    1  <O>11       0.0220
   4 C3        2.0798     5.5930    -1.2695  C.ar    1  <O>11       0.1549
   5 O1        2.9960     6.3570    -1.9350  O.3     1  <O>11      -0.4850
   6 C4        2.9413     7.6887    -1.4526  C.3     1  <O>11       0.1148
   7 C5        3.9390     8.5199    -2.1767  C.ar    1  <O>11      -0.0090
   8 C6        4.0763     9.8848    -1.8748  C.ar    1  <O>11      -0.0553
   9 C7        5.0078    10.6692    -2.5662  C.ar    1  <O>11      -0.0600
  10 C8        5.8091    10.0974    -3.5580  C.ar    1  <O>11      -0.0434
  11 C9        5.6749     8.7376    -3.8536  C.ar    1  <O>11       0.0413
  12 Cl1       6.6846     8.0265    -5.1043  Cl      1  <O>11      -0.0835
  13 C10       4.7524     7.9471    -3.1686  C.ar    1  <O>11      -0.0370
  14 C11       2.1281     5.4270     0.1183  C.ar    1  <O>11       0.1728
  15 N2        2.9819     5.9135     1.0693  N.ar    1  <O>11      -0.1243
  16 N3        2.5833     5.4558     2.2514  N.ar    1  <O>11      -0.0659
  17 N4        1.4865     4.6861     2.0457  N.ar    1  <O>11      -0.2402
  18 C12       1.1594     4.6319     0.7177  C.ar    1  <O>11       0.1813
  19 N5        0.1427     3.9767     0.1115  N.ar    1  <O>11      -0.2116
  20 H1       -1.5961     2.9456    -1.5032  H       1  <O>11       0.1437
  21 H2       -0.9514     3.6350    -2.9966  H       1  <O>11       0.1437
  22 H3        3.1666     7.6987    -0.3857  H       1  <O>11       0.0748
  23 H4        1.9426     8.0944    -1.6161  H       1  <O>11       0.0748
  24 H5        0.9813     4.2163     2.7834  H       1  <O>11       0.1923
  25 H6        0.9652     5.0293    -2.9762  H       1  <O>11       0.0689
  26 H7        3.4889    10.3109    -1.1410  H       1  <O>11       0.0621
  27 H8        5.1028    11.6722    -2.3426  H       1  <O>11       0.0618
  28 H9        6.4952    10.6749    -4.0688  H       1  <O>11       0.0632
  29 H10       4.6674     6.9427    -3.3901  H       1  <O>11       0.0636
@<TRIPOS>BOND
     1     1     2    1
     2     2     3   ar
     3     3     4   ar
     4     4     5    1
     5     5     6    1
     6     6     7    1
     7     7     8   ar
     8     8     9   ar
     9     9    10   ar
    10    10    11   ar
    11    11    12    1
    12    11    13   ar
    13     7    13   ar
    14     4    14   ar
    15    14    15   ar
    16    15    16   ar
    17    16    17   ar
    18    17    18   ar
    19    14    18   ar
    20    18    19   ar
    21     2    19   ar
    22     1    20    1
    23     1    21    1
    24     6    22    1
    25     6    23    1
    26    17    24    1
    27     3    25    1
    28     8    26    1
    29     9    27    1
    30    10    28    1
    31    13    29    1
@<TRIPOS>MOLECULE
mol55_1_20
 29 31 0 0 0
SMALL
USER_CHARGES
****
VDW energy = -113.31
@<TRIPOS>ATOM
   1 N1       -0.9044     3.5207    -1.9841  N.pl3   1  <O>11      -0.3430
   2 C1        0.1391     4.1715    -1.2332  C.ar    1  <O>11       0.1221
   3 C2        1.0500     4.9413    -1.9515  C.ar    1  <O>11       0.0220
   4 C3        2.0798     5.5930    -1.2695  C.ar    1  <O>11       0.1549
   5 O1        2.9960     6.3570    -1.9350  O.3     1  <O>11      -0.4850
   6 C4        2.5319     7.6942    -2.0100  C.3     1  <O>11       0.1148
   7 C5        1.2359     7.7294    -2.7378  C.ar    1  <O>11      -0.0090
   8 C6        1.2113     7.8930    -4.1327  C.ar    1  <O>11      -0.0553
   9 C7       -0.0106     7.9382    -4.8153  C.ar    1  <O>11      -0.0600
  10 C8       -1.2126     7.8168    -4.1130  C.ar    1  <O>11      -0.0434
  11 C9       -1.1861     7.6486    -2.7254  C.ar    1  <O>11       0.0413
  12 Cl1      -2.7023     7.4992    -1.8489  Cl      1  <O>11      -0.0835
  13 C10       0.0256     7.5991    -2.0365  C.ar    1  <O>11      -0.0370
  14 C11       2.1281     5.4270     0.1183  C.ar    1  <O>11       0.1728
  15 N2        2.9819     5.9135     1.0693  N.ar    1  <O>11      -0.1243
  16 N3        2.5833     5.4558     2.2514  N.ar    1  <O>11      -0.0659
  17 N4        1.4865     4.6861     2.0457  N.ar    1  <O>11      -0.2402
  18 C12       1.1594     4.6319     0.7177  C.ar    1  <O>11       0.1813
  19 N5        0.1427     3.9767     0.1115  N.ar    1  <O>11      -0.2116
  20 H1       -1.5961     2.9456    -1.5032  H       1  <O>11       0.1437
  21 H2       -0.9514     3.6350    -2.9966  H       1  <O>11       0.1437
  22 H3        3.2633     8.3039    -2.5416  H       1  <O>11       0.0748
  23 H4        2.3944     8.0889    -1.0030  H       1  <O>11       0.0748
  24 H5        0.9813     4.2163     2.7834  H       1  <O>11       0.1923
  25 H6        0.9652     5.0293    -2.9762  H       1  <O>11       0.0689
  26 H7        2.0964     7.9801    -4.6560  H       1  <O>11       0.0621
  27 H8       -0.0234     8.0615    -5.8399  H       1  <O>11       0.0618
  28 H9       -2.1136     7.8510    -4.6152  H       1  <O>11       0.0632
  29 H10       0.0330     7.4670    -1.0130  H       1  <O>11       0.0636
@<TRIPOS>BOND
     1     1     2    1
     2     2     3   ar
     3     3     4   ar
     4     4     5    1
     5     5     6    1
     6     6     7    1
     7     7     8   ar
     8     8     9   ar
     9     9    10   ar
    10    10    11   ar
    11    11    12    1
    12    11    13   ar
    13     7    13   ar
    14     4    14   ar
    15    14    15   ar
    16    15    16   ar
    17    16    17   ar
    18    17    18   ar
    19    14    18   ar
    20    18    19   ar
    21     2    19   ar
    22     1    20    1
    23     1    21    1
    24     6    22    1
    25     6    23    1
    26    17    24    1
    27     3    25    1
    28     8    26    1
    29     9    27    1
    30    10    28    1
    31    13    29    1
@<TRIPOS>MOLECULE
mol55_1_21
 29 31 0 0 0
SMALL
USER_CHARGES
****
VDW energy = -113.31
@<TRIPOS>ATOM
   1 N1       -0.9044     3.5207    -1.9841  N.pl3   1  <O>11      -0.3430
   2 C1        0.1391     4.1715    -1.2332  C.ar    1  <O>11       0.1221
   3 C2        1.0500     4.9413    -1.9515  C.ar    1  <O>11       0.0220
   4 C3        2.0798     5.5930    -1.2695  C.ar    1  <O>11       0.1549
   5 O1        2.9960     6.3570    -1.9350  O.3     1  <O>11      -0.4850
   6 C4        2.5319     7.6942    -2.0100  C.3     1  <O>11       0.1148
   7 C5        1.2359     7.7294    -2.7378  C.ar    1  <O>11      -0.0090
   8 C6        0.0260     7.5992    -2.0362  C.ar    1  <O>11      -0.0553
   9 C7       -1.1934     7.6202    -2.7244  C.ar    1  <O>11      -0.0600
  10 C8       -1.2137     7.7748    -4.1131  C.ar    1  <O>11      -0.0434
  11 C9       -0.0088     7.9096    -4.8092  C.ar    1  <O>11       0.0413
  12 Cl1      -0.0426     8.1010    -6.5561  Cl      1  <O>11      -0.0835
  13 C10       1.2108     7.8932    -4.1329  C.ar    1  <O>11      -0.0370
  14 C11       2.1281     5.4270     0.1183  C.ar    1  <O>11       0.1728
  15 N2        2.9819     5.9135     1.0693  N.ar    1  <O>11      -0.1243
  16 N3        2.5833     5.4558     2.2514  N.ar    1  <O>11      -0.0659
  17 N4        1.4865     4.6861     2.0457  N.ar    1  <O>11      -0.2402
  18 C12       1.1594     4.6319     0.7177  C.ar    1  <O>11       0.1813
  19 N5        0.1427     3.9767     0.1115  N.ar    1  <O>11      -0.2116
  20 H1       -1.5961     2.9456    -1.5032  H       1  <O>11       0.1437
  21 H2       -0.9514     3.6350    -2.9966  H       1  <O>11       0.1437
  22 H3        3.2633     8.3039    -2.5416  H       1  <O>11       0.0748
  23 H4        2.3944     8.0889    -1.0030  H       1  <O>11       0.0748
  24 H5        0.9813     4.2163     2.7834  H       1  <O>11       0.1923
  25 H6        0.9652     5.0293    -2.9762  H       1  <O>11       0.0689
  26 H7        0.0358     7.4879    -1.0103  H       1  <O>11       0.0621
  27 H8       -2.0794     7.5213    -2.2046  H       1  <O>11       0.0618
  28 H9       -2.1118     7.7894    -4.6212  H       1  <O>11       0.0632
  29 H10       2.0935     8.0012    -4.6564  H       1  <O>11       0.0636
@<TRIPOS>BOND
     1     1     2    1
     2     2     3   ar
     3     3     4   ar
     4     4     5    1
     5     5     6    1
     6     6     7    1
     7     7     8   ar
     8     8     9   ar
     9     9    10   ar
    10    10    11   ar
    11    11    12    1
    12    11    13   ar
    13     7    13   ar
    14     4    14   ar
    15    14    15   ar
    16    15    16   ar
    17    16    17   ar
    18    17    18   ar
    19    14    18   ar
    20    18    19   ar
    21     2    19   ar
    22     1    20    1
    23     1    21    1
    24     6    22    1
    25     6    23    1
    26    17    24    1
    27     3    25    1
    28     8    26    1
    29     9    27    1
    30    10    28    1
    31    13    29    1
@<TRIPOS>MOLECULE
mol55_1_22
 29 31 0 0 0
SMALL
USER_CHARGES
****
VDW energy = -111.45
@<TRIPOS>ATOM
   1 N1       -0.9044     3.5207    -1.9841  N.pl3   1  <O>11      -0.3430
   2 C1        0.1391     4.1715    -1.2332  C.ar    1  <O>11       0.1221
   3 C2        1.0500     4.9413    -1.9515  C.ar    1  <O>11       0.0220
   4 C3        2.0798     5.5930    -1.2695  C.ar    1  <O>11       0.1549
   5 O1        2.9960     6.3570    -1.9350  O.3     1  <O>11      -0.4850
   6 C4        4.2949     5.8310    -1.7220  C.3     1  <O>11       0.1148
   7 C5        4.3536     4.4343    -2.2283  C.ar    1  <O>11      -0.0090
   8 C6        4.7259     4.1784    -3.5584  C.ar    1  <O>11      -0.0553
   9 C7        4.7689     2.8632    -4.0374  C.ar    1  <O>11      -0.0600
  10 C8        4.4455     1.7973    -3.1936  C.ar    1  <O>11      -0.0434
  11 C9        4.0803     2.0535    -1.8686  C.ar    1  <O>11       0.0413
  12 Cl1       3.6724     0.7075    -0.8143  Cl      1  <O>11      -0.0835
  13 C10       4.0374     3.3594    -1.3809  C.ar    1  <O>11      -0.0370
  14 C11       2.1281     5.4270     0.1183  C.ar    1  <O>11       0.1728
  15 N2        2.9819     5.9135     1.0693  N.ar    1  <O>11      -0.1243
  16 N3        2.5833     5.4558     2.2514  N.ar    1  <O>11      -0.0659
  17 N4        1.4865     4.6861     2.0457  N.ar    1  <O>11      -0.2402
  18 C12       1.1594     4.6319     0.7177  C.ar    1  <O>11       0.1813
  19 N5        0.1427     3.9767     0.1115  N.ar    1  <O>11      -0.2116
  20 H1       -1.5961     2.9456    -1.5032  H       1  <O>11       0.1437
  21 H2       -0.9514     3.6350    -2.9966  H       1  <O>11       0.1437
  22 H3        4.5206     5.8400    -0.6551  H       1  <O>11       0.0748
  23 H4        5.0263     6.4412    -2.2523  H       1  <O>11       0.0748
  24 H5        0.9813     4.2163     2.7834  H       1  <O>11       0.1923
  25 H6        0.9652     5.0293    -2.9762  H       1  <O>11       0.0689
  26 H7        4.9686     4.9620    -4.1844  H       1  <O>11       0.0621
  27 H8        5.0403     2.6807    -5.0162  H       1  <O>11       0.0618
  28 H9        4.4759     0.8278    -3.5461  H       1  <O>11       0.0632
  29 H10       3.7738     3.5358    -0.3989  H       1  <O>11       0.0636
@<TRIPOS>BOND
     1     1     2    1
     2     2     3   ar
     3     3     4   ar
     4     4     5    1
     5     5     6    1
     6     6     7    1
     7     7     8   ar
     8     8     9   ar
     9     9    10   ar
    10    10    11   ar
    11    11    12    1
    12    11    13   ar
    13     7    13   ar
    14     4    14   ar
    15    14    15   ar
    16    15    16   ar
    17    16    17   ar
    18    17    18   ar
    19    14    18   ar
    20    18    19   ar
    21     2    19   ar
    22     1    20    1
    23     1    21    1
    24     6    22    1
    25     6    23    1
    26    17    24    1
    27     3    25    1
    28     8    26    1
    29     9    27    1
    30    10    28    1
    31    13    29    1
@<TRIPOS>MOLECULE
mol55_1_23
 29 31 0 0 0
SMALL
USER_CHARGES
****
VDW energy = -111.31
@<TRIPOS>ATOM
   1 N1       -0.9044     3.5207    -1.9841  N.pl3   1  <O>11      -0.3430
   2 C1        0.1391     4.1715    -1.2332  C.ar    1  <O>11       0.1221
   3 C2        1.0500     4.9413    -1.9515  C.ar    1  <O>11       0.0220
   4 C3        2.0798     5.5930    -1.2695  C.ar    1  <O>11       0.1549
   5 O1        2.9960     6.3570    -1.9350  O.3     1  <O>11      -0.4850
   6 C4        2.9413     7.6887    -1.4526  C.3     1  <O>11       0.1148
   7 C5        1.5796     8.2418    -1.6764  C.ar    1  <O>11      -0.0090
   8 C6        1.2758     8.9139    -2.8719  C.ar    1  <O>11      -0.0553
   9 C7       -0.0037     9.4450    -3.0761  C.ar    1  <O>11      -0.0600
  10 C8       -0.9872     9.3060    -2.0931  C.ar    1  <O>11      -0.0434
  11 C9       -0.6847     8.6322    -0.9060  C.ar    1  <O>11       0.0413
  12 Cl1      -1.9263     8.4637     0.3266  Cl      1  <O>11      -0.0835
  13 C10       0.5856     8.0968    -0.6942  C.ar    1  <O>11      -0.0370
  14 C11       2.1281     5.4270     0.1183  C.ar    1  <O>11       0.1728
  15 N2        2.9819     5.9135     1.0693  N.ar    1  <O>11      -0.1243
  16 N3        2.5833     5.4558     2.2514  N.ar    1  <O>11      -0.0659
  17 N4        1.4865     4.6861     2.0457  N.ar    1  <O>11      -0.2402
  18 C12       1.1594     4.6319     0.7177  C.ar    1  <O>11       0.1813
  19 N5        0.1427     3.9767     0.1115  N.ar    1  <O>11      -0.2116
  20 H1       -1.5961     2.9456    -1.5032  H       1  <O>11       0.1437
  21 H2       -0.9514     3.6350    -2.9966  H       1  <O>11       0.1437
  22 H3        3.6726     8.2985    -1.9843  H       1  <O>11       0.0748
  23 H4        3.1674     7.6992    -0.3861  H       1  <O>11       0.0748
  24 H5        0.9813     4.2163     2.7834  H       1  <O>11       0.1923
  25 H6        0.9652     5.0293    -2.9762  H       1  <O>11       0.0689
  26 H7        1.9978     9.0164    -3.6020  H       1  <O>11       0.0621
  27 H8       -0.2210     9.9404    -3.9549  H       1  <O>11       0.0618
  28 H9       -1.9301     9.6979    -2.2423  H       1  <O>11       0.0632
  29 H10       0.7951     7.5948     0.1828  H       1  <O>11       0.0636
@<TRIPOS>BOND
     1     1     2    1
     2     2     3   ar
     3     3     4   ar
     4     4     5    1
     5     5     6    1
     6     6     7    1
     7     7     8   ar
     8     8     9   ar
     9     9    10   ar
    10    10    11   ar
    11    11    12    1
    12    11    13   ar
    13     7    13   ar
    14     4    14   ar
    15    14    15   ar
    16    15    16   ar
    17    16    17   ar
    18    17    18   ar
    19    14    18   ar
    20    18    19   ar
    21     2    19   ar
    22     1    20    1
    23     1    21    1
    24     6    22    1
    25     6    23    1
    26    17    24    1
    27     3    25    1
    28     8    26    1
    29     9    27    1
    30    10    28    1
    31    13    29    1
@<TRIPOS>MOLECULE
mol55_1_24
 29 31 0 0 0
SMALL
USER_CHARGES
****
VDW energy = -111.30
@<TRIPOS>ATOM
   1 N1       -0.9044     3.5207    -1.9841  N.pl3   1  <O>11      -0.3430
   2 C1        0.1391     4.1715    -1.2332  C.ar    1  <O>11       0.1221
   3 C2        1.0500     4.9413    -1.9515  C.ar    1  <O>11       0.0220
   4 C3        2.0798     5.5930    -1.2695  C.ar    1  <O>11       0.1549
   5 O1        2.9960     6.3570    -1.9350  O.3     1  <O>11      -0.4850
   6 C4        2.5319     7.6942    -2.0100  C.3     1  <O>11       0.1148
   7 C5        2.3433     8.2316    -0.6367  C.ar    1  <O>11      -0.0090
   8 C6        3.3995     8.8854     0.0192  C.ar    1  <O>11      -0.0553
   9 C7        3.2242     9.3802     1.3174  C.ar    1  <O>11      -0.0600
  10 C8        1.9958     9.2298     1.9666  C.ar    1  <O>11      -0.0434
  11 C9        0.9440     8.5836     1.3103  C.ar    1  <O>11       0.0413
  12 Cl1      -0.5971     8.3962     2.1346  Cl      1  <O>11      -0.0835
  13 C10       1.1074     8.0901     0.0162  C.ar    1  <O>11      -0.0370
  14 C11       2.1281     5.4270     0.1183  C.ar    1  <O>11       0.1728
  15 N2        2.9819     5.9135     1.0693  N.ar    1  <O>11      -0.1243
  16 N3        2.5833     5.4558     2.2514  N.ar    1  <O>11      -0.0659
  17 N4        1.4865     4.6861     2.0457  N.ar    1  <O>11      -0.2402
  18 C12       1.1594     4.6319     0.7177  C.ar    1  <O>11       0.1813
  19 N5        0.1427     3.9767     0.1115  N.ar    1  <O>11      -0.2116
  20 H1       -1.5961     2.9456    -1.5032  H       1  <O>11       0.1437
  21 H2       -0.9514     3.6350    -2.9966  H       1  <O>11       0.1437
  22 H3        1.5811     7.7200    -2.5436  H       1  <O>11       0.0748
  23 H4        3.2627     8.3039    -2.5420  H       1  <O>11       0.0748
  24 H5        0.9813     4.2163     2.7834  H       1  <O>11       0.1923
  25 H6        0.9652     5.0293    -2.9762  H       1  <O>11       0.0689
  26 H7        4.3075     9.0015    -0.4573  H       1  <O>11       0.0621
  27 H8        4.0042     9.8572     1.7960  H       1  <O>11       0.0618
  28 H9        1.8660     9.5933     2.9237  H       1  <O>11       0.0632
  29 H10       0.3215     7.6215    -0.4612  H       1  <O>11       0.0636
@<TRIPOS>BOND
     1     1     2    1
     2     2     3   ar
     3     3     4   ar
     4     4     5    1
     5     5     6    1
     6     6     7    1
     7     7     8   ar
     8     8     9   ar
     9     9    10   ar
    10    10    11   ar
    11    11    12    1
    12    11    13   ar
    13     7    13   ar
    14     4    14   ar
    15    14    15   ar
    16    15    16   ar
    17    16    17   ar
    18    17    18   ar
    19    14    18   ar
    20    18    19   ar
    21     2    19   ar
    22     1    20    1
    23     1    21    1
    24     6    22    1
    25     6    23    1
    26    17    24    1
    27     3    25    1
    28     8    26    1
    29     9    27    1
    30    10    28    1
    31    13    29    1
@<TRIPOS>MOLECULE
mol55_1_25
 29 31 0 0 0
SMALL
USER_CHARGES
****
VDW energy = -110.96
@<TRIPOS>ATOM
   1 N1       -0.9044     3.5207    -1.9841  N.pl3   1  <O>11      -0.3430
   2 C1        0.1391     4.1715    -1.2332  C.ar    1  <O>11       0.1221
   3 C2        1.0500     4.9413    -1.9515  C.ar    1  <O>11       0.0220
   4 C3        2.0798     5.5930    -1.2695  C.ar    1  <O>11       0.1549
   5 O1        2.9960     6.3570    -1.9350  O.3     1  <O>11      -0.4850
   6 C4        2.5319     7.6942    -2.0100  C.3     1  <O>11       0.1148
   7 C5        2.3433     8.2316    -0.6367  C.ar    1  <O>11      -0.0090
   8 C6        1.1075     8.0897     0.0158  C.ar    1  <O>11      -0.0553
   9 C7        0.9276     8.6072     1.3045  C.ar    1  <O>11      -0.0600
  10 C8        1.9780     9.2644     1.9506  C.ar    1  <O>11      -0.0434
  11 C9        3.2090     9.4000     1.3019  C.ar    1  <O>11       0.0413
  12 Cl1       4.5245    10.2301     2.1203  Cl      1  <O>11      -0.0835
  13 C10       3.3994     8.8854     0.0197  C.ar    1  <O>11      -0.0370
  14 C11       2.1281     5.4270     0.1183  C.ar    1  <O>11       0.1728
  15 N2        2.9819     5.9135     1.0693  N.ar    1  <O>11      -0.1243
  16 N3        2.5833     5.4558     2.2514  N.ar    1  <O>11      -0.0659
  17 N4        1.4865     4.6861     2.0457  N.ar    1  <O>11      -0.2402
  18 C12       1.1594     4.6319     0.7177  C.ar    1  <O>11       0.1813
  19 N5        0.1427     3.9767     0.1115  N.ar    1  <O>11      -0.2116
  20 H1       -1.5961     2.9456    -1.5032  H       1  <O>11       0.1437
  21 H2       -0.9514     3.6350    -2.9966  H       1  <O>11       0.1437
  22 H3        1.5811     7.7200    -2.5436  H       1  <O>11       0.0748
  23 H4        3.2627     8.3039    -2.5420  H       1  <O>11       0.0748
  24 H5        0.9813     4.2163     2.7834  H       1  <O>11       0.1923
  25 H6        0.9652     5.0293    -2.9762  H       1  <O>11       0.0689
  26 H7        0.3297     7.6026    -0.4561  H       1  <O>11       0.0621
  27 H8        0.0167     8.5029     1.7784  H       1  <O>11       0.0618
  28 H9        1.8460     9.6469     2.9000  H       1  <O>11       0.0632
  29 H10       4.3149     8.9848    -0.4463  H       1  <O>11       0.0636
@<TRIPOS>BOND
     1     1     2    1
     2     2     3   ar
     3     3     4   ar
     4     4     5    1
     5     5     6    1
     6     6     7    1
     7     7     8   ar
     8     8     9   ar
     9     9    10   ar
    10    10    11   ar
    11    11    12    1
    12    11    13   ar
    13     7    13   ar
    14     4    14   ar
    15    14    15   ar
    16    15    16   ar
    17    16    17   ar
    18    17    18   ar
    19    14    18   ar
    20    18    19   ar
    21     2    19   ar
    22     1    20    1
    23     1    21    1
    24     6    22    1
    25     6    23    1
    26    17    24    1
    27     3    25    1
    28     8    26    1
    29     9    27    1
    30    10    28    1
    31    13    29    1
@<TRIPOS>MOLECULE
mol55_1_26
 29 31 0 0 0
SMALL
USER_CHARGES
****
VDW energy = -109.14
@<TRIPOS>ATOM
   1 N1       -0.9044     3.5207    -1.9841  N.pl3   1  <O>11      -0.3430
   2 C1        0.1391     4.1715    -1.2332  C.ar    1  <O>11       0.1221
   3 C2        1.0500     4.9413    -1.9515  C.ar    1  <O>11       0.0220
   4 C3        2.0798     5.5930    -1.2695  C.ar    1  <O>11       0.1549
   5 O1        2.9960     6.3570    -1.9350  O.3     1  <O>11      -0.4850
   6 C4        2.7038     6.3452    -3.3220  C.3     1  <O>11       0.1148
   7 C5        3.7008     7.1772    -4.0460  C.ar    1  <O>11      -0.0090
   8 C6        3.4659     8.5471    -4.2496  C.ar    1  <O>11      -0.0553
   9 C7        4.4002     9.3269    -4.9424  C.ar    1  <O>11      -0.0600
  10 C8        5.5738     8.7474    -5.4318  C.ar    1  <O>11      -0.0434
  11 C9        5.8086     7.3850    -5.2236  C.ar    1  <O>11       0.0413
  12 Cl1       7.2860     6.6631    -5.8446  Cl      1  <O>11      -0.0835
  13 C10       4.8860     6.6003    -4.5322  C.ar    1  <O>11      -0.0370
  14 C11       2.1281     5.4270     0.1183  C.ar    1  <O>11       0.1728
  15 N2        2.9819     5.9135     1.0693  N.ar    1  <O>11      -0.1243
  16 N3        2.5833     5.4558     2.2514  N.ar    1  <O>11      -0.0659
  17 N4        1.4865     4.6861     2.0457  N.ar    1  <O>11      -0.2402
  18 C12       1.1594     4.6319     0.7177  C.ar    1  <O>11       0.1813
  19 N5        0.1427     3.9767     0.1115  N.ar    1  <O>11      -0.2116
  20 H1       -1.5961     2.9456    -1.5032  H       1  <O>11       0.1437
  21 H2       -0.9514     3.6350    -2.9966  H       1  <O>11       0.1437
  22 H3        1.7049     6.7503    -3.4868  H       1  <O>11       0.0748
  23 H4        2.7457     5.3213    -3.6941  H       1  <O>11       0.0748
  24 H5        0.9813     4.2163     2.7834  H       1  <O>11       0.1923
  25 H6        0.9652     5.0293    -2.9762  H       1  <O>11       0.0689
  26 H7        2.6020     8.9801    -3.8874  H       1  <O>11       0.0621
  27 H8        4.2215    10.3322    -5.0919  H       1  <O>11       0.0618
  28 H9        6.2624     9.3211    -5.9434  H       1  <O>11       0.0632
  29 H10       5.0736     5.5973    -4.3779  H       1  <O>11       0.0636
@<TRIPOS>BOND
     1     1     2    1
     2     2     3   ar
     3     3     4   ar
     4     4     5    1
     5     5     6    1
     6     6     7    1
     7     7     8   ar
     8     8     9   ar
     9     9    10   ar
    10    10    11   ar
    11    11    12    1
    12    11    13   ar
    13     7    13   ar
    14     4    14   ar
    15    14    15   ar
    16    15    16   ar
    17    16    17   ar
    18    17    18   ar
    19    14    18   ar
    20    18    19   ar
    21     2    19   ar
    22     1    20    1
    23     1    21    1
    24     6    22    1
    25     6    23    1
    26    17    24    1
    27     3    25    1
    28     8    26    1
    29     9    27    1
    30    10    28    1
    31    13    29    1
@<TRIPOS>MOLECULE
mol55_1_27
 29 31 0 0 0
SMALL
USER_CHARGES
****
VDW energy = -109.14
@<TRIPOS>ATOM
   1 N1       -0.9044     3.5207    -1.9841  N.pl3   1  <O>11      -0.3430
   2 C1        0.1391     4.1715    -1.2332  C.ar    1  <O>11       0.1221
   3 C2        1.0500     4.9413    -1.9515  C.ar    1  <O>11       0.0220
   4 C3        2.0798     5.5930    -1.2695  C.ar    1  <O>11       0.1549
   5 O1        2.9960     6.3570    -1.9350  O.3     1  <O>11      -0.4850
   6 C4        2.7038     6.3452    -3.3220  C.3     1  <O>11       0.1148
   7 C5        3.7008     7.1772    -4.0460  C.ar    1  <O>11      -0.0090
   8 C6        4.8856     6.6000    -4.5321  C.ar    1  <O>11      -0.0553
   9 C7        5.8294     7.3874    -5.2031  C.ar    1  <O>11      -0.0600
  10 C8        5.5960     8.7516    -5.3965  C.ar    1  <O>11      -0.0434
  11 C9        4.4139     9.3234    -4.9167  C.ar    1  <O>11       0.0413
  12 Cl1       4.1290    11.0404    -5.1617  Cl      1  <O>11      -0.0835
  13 C10       3.4662     8.5473    -4.2500  C.ar    1  <O>11      -0.0370
  14 C11       2.1281     5.4270     0.1183  C.ar    1  <O>11       0.1728
  15 N2        2.9819     5.9135     1.0693  N.ar    1  <O>11      -0.1243
  16 N3        2.5833     5.4558     2.2514  N.ar    1  <O>11      -0.0659
  17 N4        1.4865     4.6861     2.0457  N.ar    1  <O>11      -0.2402
  18 C12       1.1594     4.6319     0.7177  C.ar    1  <O>11       0.1813
  19 N5        0.1427     3.9767     0.1115  N.ar    1  <O>11      -0.2116
  20 H1       -1.5961     2.9456    -1.5032  H       1  <O>11       0.1437
  21 H2       -0.9514     3.6350    -2.9966  H       1  <O>11       0.1437
  22 H3        1.7049     6.7503    -3.4868  H       1  <O>11       0.0748
  23 H4        2.7457     5.3213    -3.6941  H       1  <O>11       0.0748
  24 H5        0.9813     4.2163     2.7834  H       1  <O>11       0.1923
  25 H6        0.9652     5.0293    -2.9762  H       1  <O>11       0.0689
  26 H7        5.0610     5.5924    -4.3943  H       1  <O>11       0.0621
  27 H8        6.6996     6.9591    -5.5557  H       1  <O>11       0.0618
  28 H9        6.2915     9.3328    -5.8900  H       1  <O>11       0.0632
  29 H10       2.5937     8.9788    -3.9069  H       1  <O>11       0.0636
@<TRIPOS>BOND
     1     1     2    1
     2     2     3   ar
     3     3     4   ar
     4     4     5    1
     5     5     6    1
     6     6     7    1
     7     7     8   ar
     8     8     9   ar
     9     9    10   ar
    10    10    11   ar
    11    11    12    1
    12    11    13   ar
    13     7    13   ar
    14     4    14   ar
    15    14    15   ar
    16    15    16   ar
    17    16    17   ar
    18    17    18   ar
    19    14    18   ar
    20    18    19   ar
    21     2    19   ar
    22     1    20    1
    23     1    21    1
    24     6    22    1
    25     6    23    1
    26    17    24    1
    27     3    25    1
    28     8    26    1
    29     9    27    1
    30    10    28    1
    31    13    29    1
@<TRIPOS>MOLECULE
mol55_1_28
 29 31 0 0 0
SMALL
USER_CHARGES
****
VDW energy = -108.63
@<TRIPOS>ATOM
   1 N1       -0.9044     3.5207    -1.9841  N.pl3   1  <O>11      -0.3430
   2 C1        0.1391     4.1715    -1.2332  C.ar    1  <O>11       0.1221
   3 C2        1.0500     4.9413    -1.9515  C.ar    1  <O>11       0.0220
   4 C3        2.0798     5.5930    -1.2695  C.ar    1  <O>11       0.1549
   5 O1        2.9960     6.3570    -1.9350  O.3     1  <O>11      -0.4850
   6 C4        2.7040     6.3450    -3.3220  C.3     1  <O>11       0.1148
   7 C5        3.7010     7.1770    -4.0460  C.ar    1  <O>11      -0.0090
   8 C6        5.0672     6.8558    -3.9879  C.ar    1  <O>11      -0.0553
   9 C7        6.0064     7.6475    -4.6603  C.ar    1  <O>11      -0.0600
  10 C8        5.5892     8.7597    -5.3964  C.ar    1  <O>11      -0.0434
  11 C9        4.2286     9.0748    -5.4576  C.ar    1  <O>11       0.0413
  12 Cl1       3.7121    10.4768    -6.3834  Cl      1  <O>11      -0.0835
  13 C10       3.2849     8.2910    -4.7941  C.ar    1  <O>11      -0.0370
  14 C11       2.1281     5.4270     0.1183  C.ar    1  <O>11       0.1728
  15 N2        2.9819     5.9135     1.0693  N.ar    1  <O>11      -0.1243
  16 N3        2.5833     5.4558     2.2514  N.ar    1  <O>11      -0.0659
  17 N4        1.4865     4.6861     2.0457  N.ar    1  <O>11      -0.2402
  18 C12       1.1594     4.6319     0.7177  C.ar    1  <O>11       0.1813
  19 N5        0.1427     3.9767     0.1115  N.ar    1  <O>11      -0.2116
  20 H1       -1.5961     2.9456    -1.5032  H       1  <O>11       0.1437
  21 H2       -0.9514     3.6350    -2.9966  H       1  <O>11       0.1437
  22 H3        1.7050     6.7500    -3.4870  H       1  <O>11       0.0748
  23 H4        2.7460     5.3210    -3.6940  H       1  <O>11       0.0748
  24 H5        0.9813     4.2163     2.7834  H       1  <O>11       0.1923
  25 H6        0.9652     5.0293    -2.9762  H       1  <O>11       0.0689
  26 H7        5.3798     6.0337    -3.4481  H       1  <O>11       0.0621
  27 H8        7.0093     7.4090    -4.6121  H       1  <O>11       0.0618
  28 H9        6.2808     9.3443    -5.8915  H       1  <O>11       0.0632
  29 H10       2.2824     8.5289    -4.8527  H       1  <O>11       0.0636
@<TRIPOS>BOND
     1     1     2    1
     2     2     3   ar
     3     3     4   ar
     4     4     5    1
     5     5     6    1
     6     6     7    1
     7     7     8   ar
     8     8     9   ar
     9     9    10   ar
    10    10    11   ar
    11    11    12    1
    12    11    13   ar
    13     7    13   ar
    14     4    14   ar
    15    14    15   ar
    16    15    16   ar
    17    16    17   ar
    18    17    18   ar
    19    14    18   ar
    20    18    19   ar
    21     2    19   ar
    22     1    20    1
    23     1    21    1
    24     6    22    1
    25     6    23    1
    26    17    24    1
    27     3    25    1
    28     8    26    1
    29     9    27    1
    30    10    28    1
    31    13    29    1
@<TRIPOS>MOLECULE
mol55_1_29
 29 31 0 0 0
SMALL
USER_CHARGES
****
VDW energy = -108.28
@<TRIPOS>ATOM
   1 N1       -0.9044     3.5207    -1.9841  N.pl3   1  <O>11      -0.3430
   2 C1        0.1391     4.1715    -1.2332  C.ar    1  <O>11       0.1221
   3 C2        1.0500     4.9413    -1.9515  C.ar    1  <O>11       0.0220
   4 C3        2.0798     5.5930    -1.2695  C.ar    1  <O>11       0.1549
   5 O1        2.9960     6.3570    -1.9350  O.3     1  <O>11      -0.4850
   6 C4        2.5319     7.6942    -2.0100  C.3     1  <O>11       0.1148
   7 C5        2.3433     8.2316    -0.6367  C.ar    1  <O>11      -0.0090
   8 C6        3.4294     8.3027     0.2513  C.ar    1  <O>11      -0.0553
   9 C7        3.2477     8.7976     1.5486  C.ar    1  <O>11      -0.0600
  10 C8        1.9852     9.2275     1.9660  C.ar    1  <O>11      -0.0434
  11 C9        0.9065     9.1611     1.0792  C.ar    1  <O>11       0.0413
  12 Cl1      -0.6788     9.7013     1.6127  Cl      1  <O>11      -0.0835
  13 C10       1.0776     8.6728    -0.2159  C.ar    1  <O>11      -0.0370
  14 C11       2.1281     5.4270     0.1183  C.ar    1  <O>11       0.1728
  15 N2        2.9819     5.9135     1.0693  N.ar    1  <O>11      -0.1243
  16 N3        2.5833     5.4558     2.2514  N.ar    1  <O>11      -0.0659
  17 N4        1.4865     4.6861     2.0457  N.ar    1  <O>11      -0.2402
  18 C12       1.1594     4.6319     0.7177  C.ar    1  <O>11       0.1813
  19 N5        0.1427     3.9767     0.1115  N.ar    1  <O>11      -0.2116
  20 H1       -1.5961     2.9456    -1.5032  H       1  <O>11       0.1437
  21 H2       -0.9514     3.6350    -2.9966  H       1  <O>11       0.1437
  22 H3        1.5811     7.7200    -2.5436  H       1  <O>11       0.0748
  23 H4        3.2627     8.3039    -2.5420  H       1  <O>11       0.0748
  24 H5        0.9813     4.2163     2.7834  H       1  <O>11       0.1923
  25 H6        0.9652     5.0293    -2.9762  H       1  <O>11       0.0689
  26 H7        4.3642     7.9892    -0.0534  H       1  <O>11       0.0621
  27 H8        4.0482     8.8451     2.1981  H       1  <O>11       0.0618
  28 H9        1.8502     9.5915     2.9222  H       1  <O>11       0.0632
  29 H10       0.2755     8.6355    -0.8643  H       1  <O>11       0.0636
@<TRIPOS>BOND
     1     1     2    1
     2     2     3   ar
     3     3     4   ar
     4     4     5    1
     5     5     6    1
     6     6     7    1
     7     7     8   ar
     8     8     9   ar
     9     9    10   ar
    10    10    11   ar
    11    11    12    1
    12    11    13   ar
    13     7    13   ar
    14     4    14   ar
    15    14    15   ar
    16    15    16   ar
    17    16    17   ar
    18    17    18   ar
    19    14    18   ar
    20    18    19   ar
    21     2    19   ar
    22     1    20    1
    23     1    21    1
    24     6    22    1
    25     6    23    1
    26    17    24    1
    27     3    25    1
    28     8    26    1
    29     9    27    1
    30    10    28    1
    31    13    29    1
@<TRIPOS>MOLECULE
mol55_1_30
 29 31 0 0 0
SMALL
USER_CHARGES
****
VDW energy = -105.81
@<TRIPOS>ATOM
   1 N1       -0.9044     3.5207    -1.9841  N.pl3   1  <O>11      -0.3430
   2 C1        0.1391     4.1715    -1.2332  C.ar    1  <O>11       0.1221
   3 C2        1.0500     4.9413    -1.9515  C.ar    1  <O>11       0.0220
   4 C3        2.0798     5.5930    -1.2695  C.ar    1  <O>11       0.1549
   5 O1        2.9960     6.3570    -1.9350  O.3     1  <O>11      -0.4850
   6 C4        2.7040     6.3450    -3.3220  C.3     1  <O>11       0.1148
   7 C5        3.7010     7.1770    -4.0460  C.ar    1  <O>11      -0.0090
   8 C6        3.6230     7.3220    -5.4410  C.ar    1  <O>11      -0.0553
   9 C7        4.5700     8.0960    -6.1230  C.ar    1  <O>11      -0.0600
  10 C8        5.5960     8.7320    -5.4190  C.ar    1  <O>11      -0.0434
  11 C9        5.6690     8.5910    -4.0300  C.ar    1  <O>11       0.0413
  12 Cl1       6.9640     9.3920    -3.1520  Cl      1  <O>11      -0.0835
  13 C10       4.7290     7.8250    -3.3410  C.ar    1  <O>11      -0.0370
  14 C11       2.1281     5.4270     0.1183  C.ar    1  <O>11       0.1728
  15 N2        2.9819     5.9135     1.0693  N.ar    1  <O>11      -0.1243
  16 N3        2.5833     5.4558     2.2514  N.ar    1  <O>11      -0.0659
  17 N4        1.4865     4.6861     2.0457  N.ar    1  <O>11      -0.2402
  18 C12       1.1594     4.6319     0.7177  C.ar    1  <O>11       0.1813
  19 N5        0.1427     3.9767     0.1115  N.ar    1  <O>11      -0.2116
  20 H1       -1.5961     2.9456    -1.5032  H       1  <O>11       0.1437
  21 H2       -0.9514     3.6350    -2.9966  H       1  <O>11       0.1437
  22 H3        1.7050     6.7500    -3.4870  H       1  <O>11       0.0748
  23 H4        2.7460     5.3210    -3.6940  H       1  <O>11       0.0748
  24 H5        0.9813     4.2163     2.7834  H       1  <O>11       0.1923
  25 H6        0.9652     5.0293    -2.9762  H       1  <O>11       0.0689
  26 H7        2.8654     6.8567    -5.9649  H       1  <O>11       0.0621
  27 H8        4.5100     8.1970    -7.1483  H       1  <O>11       0.0618
  28 H9        6.2949     9.3018    -5.9209  H       1  <O>11       0.0632
  29 H10       4.7885     7.7343    -2.3147  H       1  <O>11       0.0636
@<TRIPOS>BOND
     1     1     2    1
     2     2     3   ar
     3     3     4   ar
     4     4     5    1
     5     5     6    1
     6     6     7    1
     7     7     8   ar
     8     8     9   ar
     9     9    10   ar
    10    10    11   ar
    11    11    12    1
    12    11    13   ar
    13     7    13   ar
    14     4    14   ar
    15    14    15   ar
    16    15    16   ar
    17    16    17   ar
    18    17    18   ar
    19    14    18   ar
    20    18    19   ar
    21     2    19   ar
    22     1    20    1
    23     1    21    1
    24     6    22    1
    25     6    23    1
    26    17    24    1
    27     3    25    1
    28     8    26    1
    29     9    27    1
    30    10    28    1
    31    13    29    1
