@<TRIPOS>MOLECULE
mol5_1_1
 29 30 0 0 0
SMALL
USER_CHARGES
****
VDW energy = 116.91
@<TRIPOS>ATOM
   1 O1        3.4420    -9.1855    -5.2979  O.2     1  <O>11      -0.2866
   2 C1        2.8552    -9.8129    -4.4288  C.2     1  <O>11       0.1961
   3 C2        1.4620   -10.1610    -4.6040  C.ar    1  <O>11       0.0282
   4 C3        1.1045   -11.5030    -4.7474  C.ar    1  <O>11      -0.0056
   5 C4       -0.2401   -11.8453    -4.9295  C.ar    1  <O>11       0.1612
   6 O2       -0.5726   -13.0888    -5.0659  O.3     1  <O>11      -0.5032
   7 C5       -1.2211   -10.8510    -4.9642  C.ar    1  <O>11       0.1889
   8 O3       -2.4648   -11.1616    -5.1346  O.3     1  <O>11      -0.5018
   9 C6       -0.8476    -9.5103    -4.8133  C.ar    1  <O>11       0.1671
  10 N1       -1.8635    -8.4893    -4.8487  N.4     1  <O>11       0.0097
  11 O4       -2.6003    -8.4978    -3.5988  O.2     1  <O>11      -0.1299
  12 O5       -2.7731    -8.7490    -5.9474  O.2     1  <O>11      -0.3960
  13 C7        0.4895    -9.1590    -4.6289  C.ar    1  <O>11      -0.0169
  14 C8        3.5590   -10.2100    -3.2160  C.ar    1  <O>11       0.0574
  15 C9        4.5692   -11.1854    -3.2704  C.ar    1  <O>11      -0.0481
  16 C10       5.2359   -11.5754    -2.1033  C.ar    1  <O>11      -0.0609
  17 C11       4.9055   -10.9928    -0.8765  C.ar    1  <O>11      -0.0590
  18 C12       3.9042   -10.0171    -0.8244  C.ar    1  <O>11      -0.0257
  19 C13       3.2339    -9.6205    -1.9829  C.ar    1  <O>11       0.1342
  20 F1        2.2579    -8.6587    -1.9340  F       1  <O>11      -0.2047
  21 H1       -1.5343   -13.1554    -5.1820  H       1  <O>11       0.2923
  22 H2       -3.0034   -10.3547    -5.1323  H       1  <O>11       0.2924
  23 H3        1.8279   -12.2386    -4.7192  H       1  <O>11       0.0662
  24 H4       -2.4501    -8.7764    -6.8265  H       1  <O>11       0.3292
  25 H5        0.7574    -8.1692    -4.5122  H       1  <O>11       0.0649
  26 H6        4.8203   -11.6156    -4.1742  H       1  <O>11       0.0625
  27 H7        5.9739   -12.2954    -2.1487  H       1  <O>11       0.0618
  28 H8        5.3964   -11.2803    -0.0155  H       1  <O>11       0.0618
  29 H9        3.6585    -9.5858     0.0804  H       1  <O>11       0.0646
@<TRIPOS>BOND
     1     1     2    2
     2     2     3    1
     3     3     4   ar
     4     4     5   ar
     5     5     6    1
     6     5     7   ar
     7     7     8    1
     8     7     9   ar
     9     9    10    1
    10    10    11    2
    11    10    12    1
    12     9    13   ar
    13     3    13   ar
    14     2    14    1
    15    14    15   ar
    16    15    16   ar
    17    16    17   ar
    18    17    18   ar
    19    18    19   ar
    20    14    19   ar
    21    19    20    1
    22     6    21    1
    23     8    22    1
    24     4    23    1
    25    12    24    1
    26    13    25    1
    27    15    26    1
    28    16    27    1
    29    17    28    1
    30    18    29    1
@<TRIPOS>MOLECULE
mol5_1_2
 29 30 0 0 0
SMALL
USER_CHARGES
****
VDW energy = 118.06
@<TRIPOS>ATOM
   1 O1        3.4420    -9.1855    -5.2979  O.2     1  <O>11      -0.2866
   2 C1        2.8552    -9.8129    -4.4288  C.2     1  <O>11       0.1961
   3 C2        1.4620   -10.1610    -4.6040  C.ar    1  <O>11       0.0282
   4 C3        1.0134   -11.4175    -4.1924  C.ar    1  <O>11      -0.0056
   5 C4       -0.3305   -11.7648    -4.3705  C.ar    1  <O>11       0.1612
   6 O2       -0.7472   -12.9306    -3.9924  O.3     1  <O>11      -0.5032
   7 C5       -1.2205   -10.8590    -4.9532  C.ar    1  <O>11       0.1889
   8 O3       -2.4628   -11.1758    -5.1222  O.3     1  <O>11      -0.5018
   9 C6       -0.7568    -9.6009    -5.3555  C.ar    1  <O>11       0.1671
  10 N1       -1.6792    -8.6704    -5.9547  N.4     1  <O>11       0.0097
  11 O4       -2.5316    -8.1051    -4.9257  O.2     1  <O>11      -0.1299
  12 O5       -2.4963    -9.3607    -6.9334  O.2     1  <O>11      -0.3960
  13 C7        0.5801    -9.2442    -5.1804  C.ar    1  <O>11      -0.0169
  14 C8        3.5590   -10.2100    -3.2160  C.ar    1  <O>11       0.0574
  15 C9        4.5692   -11.1854    -3.2704  C.ar    1  <O>11      -0.0481
  16 C10       5.2359   -11.5754    -2.1033  C.ar    1  <O>11      -0.0609
  17 C11       4.9055   -10.9928    -0.8765  C.ar    1  <O>11      -0.0590
  18 C12       3.9042   -10.0171    -0.8244  C.ar    1  <O>11      -0.0257
  19 C13       3.2339    -9.6205    -1.9829  C.ar    1  <O>11       0.1342
  20 F1        2.2579    -8.6587    -1.9340  F       1  <O>11      -0.2047
  21 H1       -1.6953   -13.0130    -4.1846  H       1  <O>11       0.2923
  22 H2       -2.9325   -10.4349    -5.5365  H       1  <O>11       0.2924
  23 H3        1.6692   -12.0864    -3.7594  H       1  <O>11       0.0662
  24 H4       -2.0931    -9.7825    -7.6665  H       1  <O>11       0.3292
  25 H5        0.9141    -8.3128    -5.4736  H       1  <O>11       0.0649
  26 H6        4.8203   -11.6156    -4.1742  H       1  <O>11       0.0625
  27 H7        5.9739   -12.2954    -2.1487  H       1  <O>11       0.0618
  28 H8        5.3964   -11.2803    -0.0155  H       1  <O>11       0.0618
  29 H9        3.6585    -9.5858     0.0804  H       1  <O>11       0.0646
@<TRIPOS>BOND
     1     1     2    2
     2     2     3    1
     3     3     4   ar
     4     4     5   ar
     5     5     6    1
     6     5     7   ar
     7     7     8    1
     8     7     9   ar
     9     9    10    1
    10    10    11    2
    11    10    12    1
    12     9    13   ar
    13     3    13   ar
    14     2    14    1
    15    14    15   ar
    16    15    16   ar
    17    16    17   ar
    18    17    18   ar
    19    18    19   ar
    20    14    19   ar
    21    19    20    1
    22     6    21    1
    23     8    22    1
    24     4    23    1
    25    12    24    1
    26    13    25    1
    27    15    26    1
    28    16    27    1
    29    17    28    1
    30    18    29    1
@<TRIPOS>MOLECULE
mol5_1_3
 29 30 0 0 0
SMALL
USER_CHARGES
****
VDW energy = 118.07
@<TRIPOS>ATOM
   1 O1        3.4420    -9.1855    -5.2979  O.2     1  <O>11      -0.2866
   2 C1        2.8552    -9.8129    -4.4288  C.2     1  <O>11       0.1961
   3 C2        1.4620   -10.1610    -4.6040  C.ar    1  <O>11       0.0282
   4 C3        0.4750    -9.2816    -4.1548  C.ar    1  <O>11      -0.0056
   5 C4       -0.8745    -9.6182    -4.3103  C.ar    1  <O>11       0.1612
   6 O2       -1.7906    -8.8053    -3.8912  O.3     1  <O>11      -0.5032
   7 C5       -1.2337   -10.8255    -4.9148  C.ar    1  <O>11       0.1889
   8 O3       -2.4791   -11.1425    -5.0588  O.3     1  <O>11      -0.5018
   9 C6       -0.2326   -11.6942    -5.3652  C.ar    1  <O>11       0.1671
  10 N1       -0.6088   -12.9372    -5.9888  N.4     1  <O>11       0.0097
  11 O4       -1.0863   -12.6774    -7.3340  O.2     1  <O>11      -0.1299
  12 O5       -1.6610   -13.5678    -5.2162  O.2     1  <O>11      -0.3960
  13 C7        1.1151   -11.3669    -5.2170  C.ar    1  <O>11      -0.0169
  14 C8        3.5590   -10.2100    -3.2160  C.ar    1  <O>11       0.0574
  15 C9        4.1229    -9.2369    -2.3734  C.ar    1  <O>11      -0.0481
  16 C10       4.8096    -9.6196    -1.2156  C.ar    1  <O>11      -0.0609
  17 C11       4.9339   -10.9723    -0.8863  C.ar    1  <O>11      -0.0590
  18 C12       4.3664   -11.9400    -1.7222  C.ar    1  <O>11      -0.0257
  19 C13       3.6788   -11.5686    -2.8789  C.ar    1  <O>11       0.1342
  20 F1        3.1156   -12.5159    -3.6947  F       1  <O>11      -0.2047
  21 H1       -2.6661    -9.1838    -4.0728  H       1  <O>11       0.2923
  22 H2       -2.5451   -12.0068    -5.4944  H       1  <O>11       0.2924
  23 H3        0.7391    -8.3883    -3.7106  H       1  <O>11       0.0662
  24 H4       -1.5097   -13.8011    -4.3214  H       1  <O>11       0.3292
  25 H5        1.8481   -12.0090    -5.5567  H       1  <O>11       0.0649
  26 H6        4.0303    -8.2365    -2.6093  H       1  <O>11       0.0625
  27 H7        5.2255    -8.9007    -0.6029  H       1  <O>11       0.0618
  28 H8        5.4405   -11.2551    -0.0328  H       1  <O>11       0.0618
  29 H9        4.4572   -12.9393    -1.4811  H       1  <O>11       0.0646
@<TRIPOS>BOND
     1     1     2    2
     2     2     3    1
     3     3     4   ar
     4     4     5   ar
     5     5     6    1
     6     5     7   ar
     7     7     8    1
     8     7     9   ar
     9     9    10    1
    10    10    11    2
    11    10    12    1
    12     9    13   ar
    13     3    13   ar
    14     2    14    1
    15    14    15   ar
    16    15    16   ar
    17    16    17   ar
    18    17    18   ar
    19    18    19   ar
    20    14    19   ar
    21    19    20    1
    22     6    21    1
    23     8    22    1
    24     4    23    1
    25    12    24    1
    26    13    25    1
    27    15    26    1
    28    16    27    1
    29    17    28    1
    30    18    29    1
@<TRIPOS>MOLECULE
mol5_1_4
 29 30 0 0 0
SMALL
USER_CHARGES
****
VDW energy = 118.10
@<TRIPOS>ATOM
   1 O1        3.4420    -9.1855    -5.2979  O.2     1  <O>11      -0.2866
   2 C1        2.8552    -9.8129    -4.4288  C.2     1  <O>11       0.1961
   3 C2        1.4620   -10.1610    -4.6040  C.ar    1  <O>11       0.0282
   4 C3        0.5946   -10.0836    -3.5127  C.ar    1  <O>11      -0.0056
   5 C4       -0.7516   -10.4308    -3.6728  C.ar    1  <O>11       0.1612
   6 O2       -1.5562   -10.3626    -2.6610  O.3     1  <O>11      -0.5032
   7 C5       -1.2274   -10.8492    -4.9180  C.ar    1  <O>11       0.1889
   8 O3       -2.4698   -11.1734    -5.0709  O.3     1  <O>11      -0.5018
   9 C6       -0.3466   -10.9162    -6.0041  C.ar    1  <O>11       0.1671
  10 N1       -0.8430   -11.3472    -7.2861  N.4     1  <O>11       0.0097
  11 O4       -1.6161   -10.2777    -7.8889  O.2     1  <O>11      -0.1299
  12 O5       -1.6860   -12.5137    -7.1119  O.2     1  <O>11      -0.3960
  13 C7        0.9963   -10.5701    -5.8555  C.ar    1  <O>11      -0.0169
  14 C8        3.5590   -10.2100    -3.2160  C.ar    1  <O>11       0.0574
  15 C9        4.1229    -9.2369    -2.3734  C.ar    1  <O>11      -0.0481
  16 C10       4.8096    -9.6196    -1.2156  C.ar    1  <O>11      -0.0609
  17 C11       4.9339   -10.9723    -0.8863  C.ar    1  <O>11      -0.0590
  18 C12       4.3664   -11.9400    -1.7222  C.ar    1  <O>11      -0.0257
  19 C13       3.6788   -11.5686    -2.8789  C.ar    1  <O>11       0.1342
  20 F1        3.1156   -12.5159    -3.6947  F       1  <O>11      -0.2047
  21 H1       -2.4465   -10.6346    -2.9372  H       1  <O>11       0.2923
  22 H2       -2.6249   -11.4371    -5.9915  H       1  <O>11       0.2924
  23 H3        0.9443    -9.7720    -2.5930  H       1  <O>11       0.0662
  24 H4       -1.3331   -13.2944    -6.7325  H       1  <O>11       0.3292
  25 H5        1.6390   -10.6159    -6.6616  H       1  <O>11       0.0649
  26 H6        4.0303    -8.2365    -2.6093  H       1  <O>11       0.0625
  27 H7        5.2255    -8.9007    -0.6029  H       1  <O>11       0.0618
  28 H8        5.4405   -11.2551    -0.0328  H       1  <O>11       0.0618
  29 H9        4.4572   -12.9393    -1.4811  H       1  <O>11       0.0646
@<TRIPOS>BOND
     1     1     2    2
     2     2     3    1
     3     3     4   ar
     4     4     5   ar
     5     5     6    1
     6     5     7   ar
     7     7     8    1
     8     7     9   ar
     9     9    10    1
    10    10    11    2
    11    10    12    1
    12     9    13   ar
    13     3    13   ar
    14     2    14    1
    15    14    15   ar
    16    15    16   ar
    17    16    17   ar
    18    17    18   ar
    19    18    19   ar
    20    14    19   ar
    21    19    20    1
    22     6    21    1
    23     8    22    1
    24     4    23    1
    25    12    24    1
    26    13    25    1
    27    15    26    1
    28    16    27    1
    29    17    28    1
    30    18    29    1
@<TRIPOS>MOLECULE
mol5_1_5
 29 30 0 0 0
SMALL
USER_CHARGES
****
VDW energy = 118.77
@<TRIPOS>ATOM
   1 O1        3.4420    -9.1855    -5.2979  O.2     1  <O>11      -0.2866
   2 C1        2.8552    -9.8129    -4.4288  C.2     1  <O>11       0.1961
   3 C2        1.4620   -10.1610    -4.6040  C.ar    1  <O>11       0.0282
   4 C3        0.5946   -10.0836    -3.5127  C.ar    1  <O>11      -0.0056
   5 C4       -0.7516   -10.4308    -3.6728  C.ar    1  <O>11       0.1612
   6 O2       -1.5562   -10.3626    -2.6610  O.3     1  <O>11      -0.5032
   7 C5       -1.2274   -10.8492    -4.9180  C.ar    1  <O>11       0.1889
   8 O3       -2.4698   -11.1734    -5.0709  O.3     1  <O>11      -0.5018
   9 C6       -0.3466   -10.9162    -6.0041  C.ar    1  <O>11       0.1671
  10 N1       -0.8430   -11.3472    -7.2861  N.4     1  <O>11       0.0097
  11 O4       -1.6161   -10.2777    -7.8889  O.2     1  <O>11      -0.1299
  12 O5       -1.6860   -12.5137    -7.1119  O.2     1  <O>11      -0.3960
  13 C7        0.9963   -10.5701    -5.8555  C.ar    1  <O>11      -0.0169
  14 C8        3.5590   -10.2100    -3.2160  C.ar    1  <O>11       0.0574
  15 C9        3.5735    -9.3619    -2.0955  C.ar    1  <O>11      -0.0481
  16 C10       4.2602    -9.7383    -0.9356  C.ar    1  <O>11      -0.0609
  17 C11       4.9313   -10.9632    -0.8818  C.ar    1  <O>11      -0.0590
  18 C12       4.9107   -11.8097    -1.9954  C.ar    1  <O>11      -0.0257
  19 C13       4.2280   -11.4440    -3.1568  C.ar    1  <O>11       0.1342
  20 F1        4.2007   -12.2765    -4.2460  F       1  <O>11      -0.2047
  21 H1       -2.4465   -10.6346    -2.9372  H       1  <O>11       0.2923
  22 H2       -2.6249   -11.4371    -5.9915  H       1  <O>11       0.2924
  23 H3        0.9443    -9.7720    -2.5930  H       1  <O>11       0.0662
  24 H4       -1.3331   -13.2944    -6.7325  H       1  <O>11       0.3292
  25 H5        1.6390   -10.6159    -6.6616  H       1  <O>11       0.0649
  26 H6        3.0760    -8.4584    -2.1282  H       1  <O>11       0.0625
  27 H7        4.2711    -9.1094    -0.1174  H       1  <O>11       0.0618
  28 H8        5.4382   -11.2411    -0.0269  H       1  <O>11       0.0618
  29 H9        5.4058   -12.7145    -1.9580  H       1  <O>11       0.0646
@<TRIPOS>BOND
     1     1     2    2
     2     2     3    1
     3     3     4   ar
     4     4     5   ar
     5     5     6    1
     6     5     7   ar
     7     7     8    1
     8     7     9   ar
     9     9    10    1
    10    10    11    2
    11    10    12    1
    12     9    13   ar
    13     3    13   ar
    14     2    14    1
    15    14    15   ar
    16    15    16   ar
    17    16    17   ar
    18    17    18   ar
    19    18    19   ar
    20    14    19   ar
    21    19    20    1
    22     6    21    1
    23     8    22    1
    24     4    23    1
    25    12    24    1
    26    13    25    1
    27    15    26    1
    28    16    27    1
    29    17    28    1
    30    18    29    1
@<TRIPOS>MOLECULE
mol5_1_6
 29 30 0 0 0
SMALL
USER_CHARGES
****
VDW energy = 119.76
@<TRIPOS>ATOM
   1 O1        3.4420    -9.1855    -5.2979  O.2     1  <O>11      -0.2866
   2 C1        2.8552    -9.8129    -4.4288  C.2     1  <O>11       0.1961
   3 C2        1.4620   -10.1610    -4.6040  C.ar    1  <O>11       0.0282
   4 C3        0.4750    -9.2816    -4.1548  C.ar    1  <O>11      -0.0056
   5 C4       -0.8745    -9.6182    -4.3103  C.ar    1  <O>11       0.1612
   6 O2       -1.7906    -8.8053    -3.8912  O.3     1  <O>11      -0.5032
   7 C5       -1.2337   -10.8255    -4.9148  C.ar    1  <O>11       0.1889
   8 O3       -2.4791   -11.1425    -5.0588  O.3     1  <O>11      -0.5018
   9 C6       -0.2326   -11.6942    -5.3652  C.ar    1  <O>11       0.1671
  10 N1       -0.6088   -12.9372    -5.9888  N.4     1  <O>11       0.0097
  11 O4       -1.0863   -12.6774    -7.3340  O.2     1  <O>11      -0.1299
  12 O5       -1.6610   -13.5678    -5.2162  O.2     1  <O>11      -0.3960
  13 C7        1.1151   -11.3669    -5.2170  C.ar    1  <O>11      -0.0169
  14 C8        3.5590   -10.2100    -3.2160  C.ar    1  <O>11       0.0574
  15 C9        4.5692   -11.1854    -3.2704  C.ar    1  <O>11      -0.0481
  16 C10       5.2359   -11.5754    -2.1033  C.ar    1  <O>11      -0.0609
  17 C11       4.9055   -10.9928    -0.8765  C.ar    1  <O>11      -0.0590
  18 C12       3.9042   -10.0171    -0.8244  C.ar    1  <O>11      -0.0257
  19 C13       3.2339    -9.6205    -1.9829  C.ar    1  <O>11       0.1342
  20 F1        2.2579    -8.6587    -1.9340  F       1  <O>11      -0.2047
  21 H1       -2.6661    -9.1838    -4.0728  H       1  <O>11       0.2923
  22 H2       -2.5451   -12.0068    -5.4944  H       1  <O>11       0.2924
  23 H3        0.7391    -8.3883    -3.7106  H       1  <O>11       0.0662
  24 H4       -1.5097   -13.8011    -4.3214  H       1  <O>11       0.3292
  25 H5        1.8481   -12.0090    -5.5567  H       1  <O>11       0.0649
  26 H6        4.8203   -11.6156    -4.1742  H       1  <O>11       0.0625
  27 H7        5.9739   -12.2954    -2.1487  H       1  <O>11       0.0618
  28 H8        5.3964   -11.2803    -0.0155  H       1  <O>11       0.0618
  29 H9        3.6585    -9.5858     0.0804  H       1  <O>11       0.0646
@<TRIPOS>BOND
     1     1     2    2
     2     2     3    1
     3     3     4   ar
     4     4     5   ar
     5     5     6    1
     6     5     7   ar
     7     7     8    1
     8     7     9   ar
     9     9    10    1
    10    10    11    2
    11    10    12    1
    12     9    13   ar
    13     3    13   ar
    14     2    14    1
    15    14    15   ar
    16    15    16   ar
    17    16    17   ar
    18    17    18   ar
    19    18    19   ar
    20    14    19   ar
    21    19    20    1
    22     6    21    1
    23     8    22    1
    24     4    23    1
    25    12    24    1
    26    13    25    1
    27    15    26    1
    28    16    27    1
    29    17    28    1
    30    18    29    1
@<TRIPOS>MOLECULE
mol5_1_7
 29 30 0 0 0
SMALL
USER_CHARGES
****
VDW energy = 125.89
@<TRIPOS>ATOM
   1 O1        3.4420    -9.1855    -5.2979  O.2     1  <O>11      -0.2866
   2 C1        2.8552    -9.8129    -4.4288  C.2     1  <O>11       0.1961
   3 C2        1.4620   -10.1610    -4.6040  C.ar    1  <O>11       0.0282
   4 C3        0.4750    -9.2816    -4.1548  C.ar    1  <O>11      -0.0056
   5 C4       -0.8745    -9.6182    -4.3103  C.ar    1  <O>11       0.1612
   6 O2       -1.7906    -8.8053    -3.8912  O.3     1  <O>11      -0.5032
   7 C5       -1.2337   -10.8255    -4.9148  C.ar    1  <O>11       0.1889
   8 O3       -2.4791   -11.1425    -5.0588  O.3     1  <O>11      -0.5018
   9 C6       -0.2326   -11.6942    -5.3652  C.ar    1  <O>11       0.1671
  10 N1       -0.6088   -12.9372    -5.9888  N.4     1  <O>11       0.0097
  11 O4       -1.0863   -12.6774    -7.3340  O.2     1  <O>11      -0.1299
  12 O5       -1.6610   -13.5678    -5.2162  O.2     1  <O>11      -0.3960
  13 C7        1.1151   -11.3669    -5.2170  C.ar    1  <O>11      -0.0169
  14 C8        3.5590   -10.2100    -3.2160  C.ar    1  <O>11       0.0574
  15 C9        2.8900   -10.9321    -2.2130  C.ar    1  <O>11      -0.0481
  16 C10       3.5630   -11.3021    -1.0430  C.ar    1  <O>11      -0.0609
  17 C11       4.9070   -10.9610    -0.8670  C.ar    1  <O>11      -0.0590
  18 C12       5.5740   -10.2479    -1.8690  C.ar    1  <O>11      -0.0257
  19 C13       4.9120    -9.8749    -3.0400  C.ar    1  <O>11       0.1342
  20 F1        5.5670    -9.1829    -4.0259  F       1  <O>11      -0.2047
  21 H1       -2.6661    -9.1838    -4.0728  H       1  <O>11       0.2923
  22 H2       -2.5451   -12.0068    -5.4944  H       1  <O>11       0.2924
  23 H3        0.7391    -8.3883    -3.7106  H       1  <O>11       0.0662
  24 H4       -1.5097   -13.8011    -4.3214  H       1  <O>11       0.3292
  25 H5        1.8481   -12.0090    -5.5567  H       1  <O>11       0.0649
  26 H6        1.8989   -11.1904    -2.3396  H       1  <O>11       0.0625
  27 H7        3.0653   -11.8284    -0.3079  H       1  <O>11       0.0618
  28 H8        5.4037   -11.2332    -0.0043  H       1  <O>11       0.0618
  29 H9        6.5663    -9.9949    -1.7410  H       1  <O>11       0.0646
@<TRIPOS>BOND
     1     1     2    2
     2     2     3    1
     3     3     4   ar
     4     4     5   ar
     5     5     6    1
     6     5     7   ar
     7     7     8    1
     8     7     9   ar
     9     9    10    1
    10    10    11    2
    11    10    12    1
    12     9    13   ar
    13     3    13   ar
    14     2    14    1
    15    14    15   ar
    16    15    16   ar
    17    16    17   ar
    18    17    18   ar
    19    18    19   ar
    20    14    19   ar
    21    19    20    1
    22     6    21    1
    23     8    22    1
    24     4    23    1
    25    12    24    1
    26    13    25    1
    27    15    26    1
    28    16    27    1
    29    17    28    1
    30    18    29    1
@<TRIPOS>MOLECULE
mol5_1_8
 29 30 0 0 0
SMALL
USER_CHARGES
****
VDW energy = 127.08
@<TRIPOS>ATOM
   1 O1        3.4420    -9.1855    -5.2979  O.2     1  <O>11      -0.2866
   2 C1        2.8552    -9.8129    -4.4288  C.2     1  <O>11       0.1961
   3 C2        1.4620   -10.1610    -4.6040  C.ar    1  <O>11       0.0282
   4 C3        0.8012    -9.7736    -5.7713  C.ar    1  <O>11      -0.0056
   5 C4       -0.5498   -10.0966    -5.9413  C.ar    1  <O>11       0.1612
   6 O2       -1.1646    -9.7351    -7.0216  O.3     1  <O>11      -0.5032
   7 C5       -1.2340   -10.8060    -4.9510  C.ar    1  <O>11       0.1889
   8 O3       -2.4830   -11.1050    -5.1020  O.3     1  <O>11      -0.5018
   9 C6       -0.5562   -11.1924    -3.7887  C.ar    1  <O>11       0.1671
  10 N1       -1.2664   -11.9248    -2.7714  N.4     1  <O>11       0.0097
  11 O4       -1.4507   -13.2972    -3.2044  O.2     1  <O>11      -0.1299
  12 O5       -2.5606   -11.3111    -2.5470  O.2     1  <O>11      -0.3960
  13 C7        0.7908   -10.8774    -3.6107  C.ar    1  <O>11      -0.0169
  14 C8        3.5590   -10.2100    -3.2160  C.ar    1  <O>11       0.0574
  15 C9        4.2287   -11.4441    -3.1575  C.ar    1  <O>11      -0.0481
  16 C10       4.8936   -11.8304    -1.9882  C.ar    1  <O>11      -0.0609
  17 C11       4.9012   -10.9884    -0.8726  C.ar    1  <O>11      -0.0590
  18 C12       4.2398    -9.7571    -0.9340  C.ar    1  <O>11      -0.0257
  19 C13       3.5744    -9.3621    -2.0959  C.ar    1  <O>11       0.1342
  20 F1        2.9326    -8.1522    -2.1597  F       1  <O>11      -0.2047
  21 H1       -2.0877   -10.0341    -6.9836  H       1  <O>11       0.2923
  22 H2       -2.7951   -11.5946    -4.3248  H       1  <O>11       0.2924
  23 H3        1.3062    -9.2519    -6.5047  H       1  <O>11       0.0662
  24 H4       -2.6134   -10.4201    -2.2620  H       1  <O>11       0.3292
  25 H5        1.2862   -11.1706    -2.7542  H       1  <O>11       0.0649
  26 H6        4.2301   -12.0678    -3.9797  H       1  <O>11       0.0625
  27 H7        5.3800   -12.7398    -1.9496  H       1  <O>11       0.0618
  28 H8        5.3910   -11.2729    -0.0099  H       1  <O>11       0.0618
  29 H9        4.2439    -9.1339    -0.1114  H       1  <O>11       0.0646
@<TRIPOS>BOND
     1     1     2    2
     2     2     3    1
     3     3     4   ar
     4     4     5   ar
     5     5     6    1
     6     5     7   ar
     7     7     8    1
     8     7     9   ar
     9     9    10    1
    10    10    11    2
    11    10    12    1
    12     9    13   ar
    13     3    13   ar
    14     2    14    1
    15    14    15   ar
    16    15    16   ar
    17    16    17   ar
    18    17    18   ar
    19    18    19   ar
    20    14    19   ar
    21    19    20    1
    22     6    21    1
    23     8    22    1
    24     4    23    1
    25    12    24    1
    26    13    25    1
    27    15    26    1
    28    16    27    1
    29    17    28    1
    30    18    29    1
@<TRIPOS>MOLECULE
mol5_1_9
 29 30 0 0 0
SMALL
USER_CHARGES
****
VDW energy = 128.06
@<TRIPOS>ATOM
   1 O1        3.4420    -9.1855    -5.2979  O.2     1  <O>11      -0.2866
   2 C1        2.8552    -9.8129    -4.4288  C.2     1  <O>11       0.1961
   3 C2        1.4620   -10.1610    -4.6040  C.ar    1  <O>11       0.0282
   4 C3        0.8012    -9.7736    -5.7713  C.ar    1  <O>11      -0.0056
   5 C4       -0.5498   -10.0966    -5.9413  C.ar    1  <O>11       0.1612
   6 O2       -1.1646    -9.7351    -7.0216  O.3     1  <O>11      -0.5032
   7 C5       -1.2340   -10.8060    -4.9510  C.ar    1  <O>11       0.1889
   8 O3       -2.4830   -11.1050    -5.1020  O.3     1  <O>11      -0.5018
   9 C6       -0.5562   -11.1924    -3.7887  C.ar    1  <O>11       0.1671
  10 N1       -1.2664   -11.9248    -2.7714  N.4     1  <O>11       0.0097
  11 O4       -1.4507   -13.2972    -3.2044  O.2     1  <O>11      -0.1299
  12 O5       -2.5606   -11.3111    -2.5470  O.2     1  <O>11      -0.3960
  13 C7        0.7908   -10.8774    -3.6107  C.ar    1  <O>11      -0.0169
  14 C8        3.5590   -10.2100    -3.2160  C.ar    1  <O>11       0.0574
  15 C9        4.5692   -11.1854    -3.2704  C.ar    1  <O>11      -0.0481
  16 C10       5.2359   -11.5754    -2.1033  C.ar    1  <O>11      -0.0609
  17 C11       4.9055   -10.9928    -0.8765  C.ar    1  <O>11      -0.0590
  18 C12       3.9042   -10.0171    -0.8244  C.ar    1  <O>11      -0.0257
  19 C13       3.2339    -9.6205    -1.9829  C.ar    1  <O>11       0.1342
  20 F1        2.2579    -8.6587    -1.9340  F       1  <O>11      -0.2047
  21 H1       -2.0877   -10.0341    -6.9836  H       1  <O>11       0.2923
  22 H2       -2.7951   -11.5946    -4.3248  H       1  <O>11       0.2924
  23 H3        1.3062    -9.2519    -6.5047  H       1  <O>11       0.0662
  24 H4       -2.6134   -10.4201    -2.2620  H       1  <O>11       0.3292
  25 H5        1.2862   -11.1706    -2.7542  H       1  <O>11       0.0649
  26 H6        4.8203   -11.6156    -4.1742  H       1  <O>11       0.0625
  27 H7        5.9739   -12.2954    -2.1487  H       1  <O>11       0.0618
  28 H8        5.3964   -11.2803    -0.0155  H       1  <O>11       0.0618
  29 H9        3.6585    -9.5858     0.0804  H       1  <O>11       0.0646
@<TRIPOS>BOND
     1     1     2    2
     2     2     3    1
     3     3     4   ar
     4     4     5   ar
     5     5     6    1
     6     5     7   ar
     7     7     8    1
     8     7     9   ar
     9     9    10    1
    10    10    11    2
    11    10    12    1
    12     9    13   ar
    13     3    13   ar
    14     2    14    1
    15    14    15   ar
    16    15    16   ar
    17    16    17   ar
    18    17    18   ar
    19    18    19   ar
    20    14    19   ar
    21    19    20    1
    22     6    21    1
    23     8    22    1
    24     4    23    1
    25    12    24    1
    26    13    25    1
    27    15    26    1
    28    16    27    1
    29    17    28    1
    30    18    29    1
@<TRIPOS>MOLECULE
mol5_1_10
 29 30 0 0 0
SMALL
USER_CHARGES
****
VDW energy = 128.66
@<TRIPOS>ATOM
   1 O1        3.4420    -9.1855    -5.2979  O.2     1  <O>11      -0.2866
   2 C1        2.8552    -9.8129    -4.4288  C.2     1  <O>11       0.1961
   3 C2        1.4620   -10.1610    -4.6040  C.ar    1  <O>11       0.0282
   4 C3        0.5946   -10.0836    -3.5127  C.ar    1  <O>11      -0.0056
   5 C4       -0.7516   -10.4308    -3.6728  C.ar    1  <O>11       0.1612
   6 O2       -1.5562   -10.3626    -2.6610  O.3     1  <O>11      -0.5032
   7 C5       -1.2274   -10.8492    -4.9180  C.ar    1  <O>11       0.1889
   8 O3       -2.4698   -11.1734    -5.0709  O.3     1  <O>11      -0.5018
   9 C6       -0.3466   -10.9162    -6.0041  C.ar    1  <O>11       0.1671
  10 N1       -0.8430   -11.3472    -7.2861  N.4     1  <O>11       0.0097
  11 O4       -1.6161   -10.2777    -7.8889  O.2     1  <O>11      -0.1299
  12 O5       -1.6860   -12.5137    -7.1119  O.2     1  <O>11      -0.3960
  13 C7        0.9963   -10.5701    -5.8555  C.ar    1  <O>11      -0.0169
  14 C8        3.5590   -10.2100    -3.2160  C.ar    1  <O>11       0.0574
  15 C9        4.5692   -11.1854    -3.2704  C.ar    1  <O>11      -0.0481
  16 C10       5.2359   -11.5754    -2.1033  C.ar    1  <O>11      -0.0609
  17 C11       4.9055   -10.9928    -0.8765  C.ar    1  <O>11      -0.0590
  18 C12       3.9042   -10.0171    -0.8244  C.ar    1  <O>11      -0.0257
  19 C13       3.2339    -9.6205    -1.9829  C.ar    1  <O>11       0.1342
  20 F1        2.2579    -8.6587    -1.9340  F       1  <O>11      -0.2047
  21 H1       -2.4465   -10.6346    -2.9372  H       1  <O>11       0.2923
  22 H2       -2.6249   -11.4371    -5.9915  H       1  <O>11       0.2924
  23 H3        0.9443    -9.7720    -2.5930  H       1  <O>11       0.0662
  24 H4       -1.3331   -13.2944    -6.7325  H       1  <O>11       0.3292
  25 H5        1.6390   -10.6159    -6.6616  H       1  <O>11       0.0649
  26 H6        4.8203   -11.6156    -4.1742  H       1  <O>11       0.0625
  27 H7        5.9739   -12.2954    -2.1487  H       1  <O>11       0.0618
  28 H8        5.3964   -11.2803    -0.0155  H       1  <O>11       0.0618
  29 H9        3.6585    -9.5858     0.0804  H       1  <O>11       0.0646
@<TRIPOS>BOND
     1     1     2    2
     2     2     3    1
     3     3     4   ar
     4     4     5   ar
     5     5     6    1
     6     5     7   ar
     7     7     8    1
     8     7     9   ar
     9     9    10    1
    10    10    11    2
    11    10    12    1
    12     9    13   ar
    13     3    13   ar
    14     2    14    1
    15    14    15   ar
    16    15    16   ar
    17    16    17   ar
    18    17    18   ar
    19    18    19   ar
    20    14    19   ar
    21    19    20    1
    22     6    21    1
    23     8    22    1
    24     4    23    1
    25    12    24    1
    26    13    25    1
    27    15    26    1
    28    16    27    1
    29    17    28    1
    30    18    29    1
@<TRIPOS>MOLECULE
mol5_1_11
 29 30 0 0 0
SMALL
USER_CHARGES
****
VDW energy = 133.64
@<TRIPOS>ATOM
   1 O1        3.4420    -9.1855    -5.2979  O.2     1  <O>11      -0.2866
   2 C1        2.8552    -9.8129    -4.4288  C.2     1  <O>11       0.1961
   3 C2        1.4620   -10.1610    -4.6040  C.ar    1  <O>11       0.0282
   4 C3        1.0134   -11.4175    -4.1924  C.ar    1  <O>11      -0.0056
   5 C4       -0.3305   -11.7648    -4.3705  C.ar    1  <O>11       0.1612
   6 O2       -0.7472   -12.9306    -3.9924  O.3     1  <O>11      -0.5032
   7 C5       -1.2205   -10.8590    -4.9532  C.ar    1  <O>11       0.1889
   8 O3       -2.4628   -11.1758    -5.1222  O.3     1  <O>11      -0.5018
   9 C6       -0.7568    -9.6009    -5.3555  C.ar    1  <O>11       0.1671
  10 N1       -1.6792    -8.6704    -5.9547  N.4     1  <O>11       0.0097
  11 O4       -0.9549    -7.4994    -6.4122  O.2     1  <O>11      -0.1299
  12 O5       -2.6711    -8.2727    -4.9750  O.2     1  <O>11      -0.3960
  13 C7        0.5801    -9.2442    -5.1804  C.ar    1  <O>11      -0.0169
  14 C8        3.5590   -10.2100    -3.2160  C.ar    1  <O>11       0.0574
  15 C9        4.5692   -11.1854    -3.2704  C.ar    1  <O>11      -0.0481
  16 C10       5.2359   -11.5754    -2.1033  C.ar    1  <O>11      -0.0609
  17 C11       4.9055   -10.9928    -0.8765  C.ar    1  <O>11      -0.0590
  18 C12       3.9042   -10.0171    -0.8244  C.ar    1  <O>11      -0.0257
  19 C13       3.2339    -9.6205    -1.9829  C.ar    1  <O>11       0.1342
  20 F1        2.2579    -8.6587    -1.9340  F       1  <O>11      -0.2047
  21 H1       -1.6953   -13.0130    -4.1846  H       1  <O>11       0.2923
  22 H2       -2.9325   -10.4349    -5.5365  H       1  <O>11       0.2924
  23 H3        1.6692   -12.0864    -3.7594  H       1  <O>11       0.0662
  24 H4       -3.2251    -8.9174    -4.5809  H       1  <O>11       0.3292
  25 H5        0.9141    -8.3128    -5.4736  H       1  <O>11       0.0649
  26 H6        4.8203   -11.6156    -4.1742  H       1  <O>11       0.0625
  27 H7        5.9739   -12.2954    -2.1487  H       1  <O>11       0.0618
  28 H8        5.3964   -11.2803    -0.0155  H       1  <O>11       0.0618
  29 H9        3.6585    -9.5858     0.0804  H       1  <O>11       0.0646
@<TRIPOS>BOND
     1     1     2    2
     2     2     3    1
     3     3     4   ar
     4     4     5   ar
     5     5     6    1
     6     5     7   ar
     7     7     8    1
     8     7     9   ar
     9     9    10    1
    10    10    11    2
    11    10    12    1
    12     9    13   ar
    13     3    13   ar
    14     2    14    1
    15    14    15   ar
    16    15    16   ar
    17    16    17   ar
    18    17    18   ar
    19    18    19   ar
    20    14    19   ar
    21    19    20    1
    22     6    21    1
    23     8    22    1
    24     4    23    1
    25    12    24    1
    26    13    25    1
    27    15    26    1
    28    16    27    1
    29    17    28    1
    30    18    29    1
@<TRIPOS>MOLECULE
mol5_1_12
 29 30 0 0 0
SMALL
USER_CHARGES
****
VDW energy = 136.40
@<TRIPOS>ATOM
   1 O1        3.4420    -9.1855    -5.2979  O.2     1  <O>11      -0.2866
   2 C1        2.8552    -9.8129    -4.4288  C.2     1  <O>11       0.1961
   3 C2        1.4620   -10.1610    -4.6040  C.ar    1  <O>11       0.0282
   4 C3        0.4750    -9.2816    -4.1548  C.ar    1  <O>11      -0.0056
   5 C4       -0.8745    -9.6182    -4.3103  C.ar    1  <O>11       0.1612
   6 O2       -1.7906    -8.8053    -3.8912  O.3     1  <O>11      -0.5032
   7 C5       -1.2337   -10.8255    -4.9148  C.ar    1  <O>11       0.1889
   8 O3       -2.4791   -11.1425    -5.0588  O.3     1  <O>11      -0.5018
   9 C6       -0.2326   -11.6942    -5.3652  C.ar    1  <O>11       0.1671
  10 N1       -0.6088   -12.9372    -5.9888  N.4     1  <O>11       0.0097
  11 O4        0.4158   -13.9332    -5.7374  O.2     1  <O>11      -0.1299
  12 O5       -0.7493   -12.7390    -7.4181  O.2     1  <O>11      -0.3960
  13 C7        1.1151   -11.3669    -5.2170  C.ar    1  <O>11      -0.0169
  14 C8        3.5590   -10.2100    -3.2160  C.ar    1  <O>11       0.0574
  15 C9        4.1229    -9.2369    -2.3734  C.ar    1  <O>11      -0.0481
  16 C10       4.8096    -9.6196    -1.2156  C.ar    1  <O>11      -0.0609
  17 C11       4.9339   -10.9723    -0.8863  C.ar    1  <O>11      -0.0590
  18 C12       4.3664   -11.9400    -1.7222  C.ar    1  <O>11      -0.0257
  19 C13       3.6788   -11.5686    -2.8789  C.ar    1  <O>11       0.1342
  20 F1        3.1156   -12.5159    -3.6947  F       1  <O>11      -0.2047
  21 H1       -2.6661    -9.1838    -4.0728  H       1  <O>11       0.2923
  22 H2       -2.5451   -12.0068    -5.4944  H       1  <O>11       0.2924
  23 H3        0.7391    -8.3883    -3.7106  H       1  <O>11       0.0662
  24 H4       -1.3748   -12.1234    -7.7464  H       1  <O>11       0.3292
  25 H5        1.8481   -12.0090    -5.5567  H       1  <O>11       0.0649
  26 H6        4.0303    -8.2365    -2.6093  H       1  <O>11       0.0625
  27 H7        5.2255    -8.9007    -0.6029  H       1  <O>11       0.0618
  28 H8        5.4405   -11.2551    -0.0328  H       1  <O>11       0.0618
  29 H9        4.4572   -12.9393    -1.4811  H       1  <O>11       0.0646
@<TRIPOS>BOND
     1     1     2    2
     2     2     3    1
     3     3     4   ar
     4     4     5   ar
     5     5     6    1
     6     5     7   ar
     7     7     8    1
     8     7     9   ar
     9     9    10    1
    10    10    11    2
    11    10    12    1
    12     9    13   ar
    13     3    13   ar
    14     2    14    1
    15    14    15   ar
    16    15    16   ar
    17    16    17   ar
    18    17    18   ar
    19    18    19   ar
    20    14    19   ar
    21    19    20    1
    22     6    21    1
    23     8    22    1
    24     4    23    1
    25    12    24    1
    26    13    25    1
    27    15    26    1
    28    16    27    1
    29    17    28    1
    30    18    29    1
@<TRIPOS>MOLECULE
mol5_1_13
 29 30 0 0 0
SMALL
USER_CHARGES
****
VDW energy = 136.86
@<TRIPOS>ATOM
   1 O1        3.4420    -9.1855    -5.2979  O.2     1  <O>11      -0.2866
   2 C1        2.8552    -9.8129    -4.4288  C.2     1  <O>11       0.1961
   3 C2        1.4620   -10.1610    -4.6040  C.ar    1  <O>11       0.0282
   4 C3        0.4750    -9.2816    -4.1548  C.ar    1  <O>11      -0.0056
   5 C4       -0.8745    -9.6182    -4.3103  C.ar    1  <O>11       0.1612
   6 O2       -1.7906    -8.8053    -3.8912  O.3     1  <O>11      -0.5032
   7 C5       -1.2337   -10.8255    -4.9148  C.ar    1  <O>11       0.1889
   8 O3       -2.4791   -11.1425    -5.0588  O.3     1  <O>11      -0.5018
   9 C6       -0.2326   -11.6942    -5.3652  C.ar    1  <O>11       0.1671
  10 N1       -0.6088   -12.9372    -5.9888  N.4     1  <O>11       0.0097
  11 O4        0.4158   -13.9332    -5.7374  O.2     1  <O>11      -0.1299
  12 O5       -0.7493   -12.7390    -7.4181  O.2     1  <O>11      -0.3960
  13 C7        1.1151   -11.3669    -5.2170  C.ar    1  <O>11      -0.0169
  14 C8        3.5590   -10.2100    -3.2160  C.ar    1  <O>11       0.0574
  15 C9        4.5692   -11.1854    -3.2704  C.ar    1  <O>11      -0.0481
  16 C10       5.2359   -11.5754    -2.1033  C.ar    1  <O>11      -0.0609
  17 C11       4.9055   -10.9928    -0.8765  C.ar    1  <O>11      -0.0590
  18 C12       3.9042   -10.0171    -0.8244  C.ar    1  <O>11      -0.0257
  19 C13       3.2339    -9.6205    -1.9829  C.ar    1  <O>11       0.1342
  20 F1        2.2579    -8.6587    -1.9340  F       1  <O>11      -0.2047
  21 H1       -2.6661    -9.1838    -4.0728  H       1  <O>11       0.2923
  22 H2       -2.5451   -12.0068    -5.4944  H       1  <O>11       0.2924
  23 H3        0.7391    -8.3883    -3.7106  H       1  <O>11       0.0662
  24 H4       -1.3748   -12.1234    -7.7464  H       1  <O>11       0.3292
  25 H5        1.8481   -12.0090    -5.5567  H       1  <O>11       0.0649
  26 H6        4.8203   -11.6156    -4.1742  H       1  <O>11       0.0625
  27 H7        5.9739   -12.2954    -2.1487  H       1  <O>11       0.0618
  28 H8        5.3964   -11.2803    -0.0155  H       1  <O>11       0.0618
  29 H9        3.6585    -9.5858     0.0804  H       1  <O>11       0.0646
@<TRIPOS>BOND
     1     1     2    2
     2     2     3    1
     3     3     4   ar
     4     4     5   ar
     5     5     6    1
     6     5     7   ar
     7     7     8    1
     8     7     9   ar
     9     9    10    1
    10    10    11    2
    11    10    12    1
    12     9    13   ar
    13     3    13   ar
    14     2    14    1
    15    14    15   ar
    16    15    16   ar
    17    16    17   ar
    18    17    18   ar
    19    18    19   ar
    20    14    19   ar
    21    19    20    1
    22     6    21    1
    23     8    22    1
    24     4    23    1
    25    12    24    1
    26    13    25    1
    27    15    26    1
    28    16    27    1
    29    17    28    1
    30    18    29    1
@<TRIPOS>MOLECULE
mol5_1_14
 29 30 0 0 0
SMALL
USER_CHARGES
****
VDW energy = 139.59
@<TRIPOS>ATOM
   1 O1        3.4420    -9.1855    -5.2979  O.2     1  <O>11      -0.2866
   2 C1        2.8552    -9.8129    -4.4288  C.2     1  <O>11       0.1961
   3 C2        1.4620   -10.1610    -4.6040  C.ar    1  <O>11       0.0282
   4 C3        0.8012    -9.7736    -5.7713  C.ar    1  <O>11      -0.0056
   5 C4       -0.5498   -10.0966    -5.9413  C.ar    1  <O>11       0.1612
   6 O2       -1.1646    -9.7351    -7.0216  O.3     1  <O>11      -0.5032
   7 C5       -1.2340   -10.8060    -4.9510  C.ar    1  <O>11       0.1889
   8 O3       -2.4830   -11.1050    -5.1020  O.3     1  <O>11      -0.5018
   9 C6       -0.5562   -11.1924    -3.7887  C.ar    1  <O>11       0.1671
  10 N1       -1.2664   -11.9248    -2.7714  N.4     1  <O>11       0.0097
  11 O4       -0.6987   -11.6196    -1.4716  O.2     1  <O>11      -0.1299
  12 O5       -1.1495   -13.3470    -3.0277  O.2     1  <O>11      -0.3960
  13 C7        0.7908   -10.8774    -3.6107  C.ar    1  <O>11      -0.0169
  14 C8        3.5590   -10.2100    -3.2160  C.ar    1  <O>11       0.0574
  15 C9        4.2287   -11.4441    -3.1575  C.ar    1  <O>11      -0.0481
  16 C10       4.8936   -11.8304    -1.9882  C.ar    1  <O>11      -0.0609
  17 C11       4.9012   -10.9884    -0.8726  C.ar    1  <O>11      -0.0590
  18 C12       4.2398    -9.7571    -0.9340  C.ar    1  <O>11      -0.0257
  19 C13       3.5744    -9.3621    -2.0959  C.ar    1  <O>11       0.1342
  20 F1        2.9326    -8.1522    -2.1597  F       1  <O>11      -0.2047
  21 H1       -2.0877   -10.0341    -6.9836  H       1  <O>11       0.2923
  22 H2       -2.7951   -11.5946    -4.3248  H       1  <O>11       0.2924
  23 H3        1.3062    -9.2519    -6.5047  H       1  <O>11       0.0662
  24 H4       -1.4717   -13.7063    -3.8309  H       1  <O>11       0.3292
  25 H5        1.2862   -11.1706    -2.7542  H       1  <O>11       0.0649
  26 H6        4.2301   -12.0678    -3.9797  H       1  <O>11       0.0625
  27 H7        5.3800   -12.7398    -1.9496  H       1  <O>11       0.0618
  28 H8        5.3910   -11.2729    -0.0099  H       1  <O>11       0.0618
  29 H9        4.2439    -9.1339    -0.1114  H       1  <O>11       0.0646
@<TRIPOS>BOND
     1     1     2    2
     2     2     3    1
     3     3     4   ar
     4     4     5   ar
     5     5     6    1
     6     5     7   ar
     7     7     8    1
     8     7     9   ar
     9     9    10    1
    10    10    11    2
    11    10    12    1
    12     9    13   ar
    13     3    13   ar
    14     2    14    1
    15    14    15   ar
    16    15    16   ar
    17    16    17   ar
    18    17    18   ar
    19    18    19   ar
    20    14    19   ar
    21    19    20    1
    22     6    21    1
    23     8    22    1
    24     4    23    1
    25    12    24    1
    26    13    25    1
    27    15    26    1
    28    16    27    1
    29    17    28    1
    30    18    29    1
@<TRIPOS>MOLECULE
mol5_1_15
 29 30 0 0 0
SMALL
USER_CHARGES
****
VDW energy = 140.25
@<TRIPOS>ATOM
   1 O1        3.4420    -9.1855    -5.2979  O.2     1  <O>11      -0.2866
   2 C1        2.8552    -9.8129    -4.4288  C.2     1  <O>11       0.1961
   3 C2        1.4620   -10.1610    -4.6040  C.ar    1  <O>11       0.0282
   4 C3        1.1306   -11.3698    -5.2190  C.ar    1  <O>11      -0.0056
   5 C4       -0.2153   -11.7067    -5.4025  C.ar    1  <O>11       0.1612
   6 O2       -0.5240   -12.8256    -5.9755  O.3     1  <O>11      -0.5032
   7 C5       -1.2229   -10.8409    -4.9699  C.ar    1  <O>11       0.1889
   8 O3       -2.4681   -11.1462    -5.1391  O.3     1  <O>11      -0.5018
   9 C6       -0.8747    -9.6351    -4.3498  C.ar    1  <O>11       0.1671
  10 N1       -1.9179    -8.7467    -3.9046  N.4     1  <O>11       0.0097
  11 O4       -1.4449    -7.3765    -3.9677  O.2     1  <O>11      -0.1299
  12 O5       -2.2796    -9.0704    -2.5385  O.2     1  <O>11      -0.3960
  13 C7        0.4636    -9.2912    -4.1602  C.ar    1  <O>11      -0.0169
  14 C8        3.5590   -10.2100    -3.2160  C.ar    1  <O>11       0.0574
  15 C9        2.8900   -10.9321    -2.2130  C.ar    1  <O>11      -0.0481
  16 C10       3.5630   -11.3021    -1.0430  C.ar    1  <O>11      -0.0609
  17 C11       4.9070   -10.9610    -0.8670  C.ar    1  <O>11      -0.0590
  18 C12       5.5740   -10.2479    -1.8690  C.ar    1  <O>11      -0.0257
  19 C13       4.9120    -9.8749    -3.0400  C.ar    1  <O>11       0.1342
  20 F1        5.5670    -9.1829    -4.0259  F       1  <O>11      -0.2047
  21 H1       -1.4903   -12.9072    -6.0256  H       1  <O>11       0.2923
  22 H2       -3.0266   -10.4379    -4.7820  H       1  <O>11       0.2924
  23 H3        1.8739   -12.0114    -5.5365  H       1  <O>11       0.0662
  24 H4       -2.6056    -9.9237    -2.3298  H       1  <O>11       0.3292
  25 H5        0.7134    -8.4036    -3.6968  H       1  <O>11       0.0649
  26 H6        1.8989   -11.1904    -2.3396  H       1  <O>11       0.0625
  27 H7        3.0653   -11.8284    -0.3079  H       1  <O>11       0.0618
  28 H8        5.4037   -11.2332    -0.0043  H       1  <O>11       0.0618
  29 H9        6.5663    -9.9949    -1.7410  H       1  <O>11       0.0646
@<TRIPOS>BOND
     1     1     2    2
     2     2     3    1
     3     3     4   ar
     4     4     5   ar
     5     5     6    1
     6     5     7   ar
     7     7     8    1
     8     7     9   ar
     9     9    10    1
    10    10    11    2
    11    10    12    1
    12     9    13   ar
    13     3    13   ar
    14     2    14    1
    15    14    15   ar
    16    15    16   ar
    17    16    17   ar
    18    17    18   ar
    19    18    19   ar
    20    14    19   ar
    21    19    20    1
    22     6    21    1
    23     8    22    1
    24     4    23    1
    25    12    24    1
    26    13    25    1
    27    15    26    1
    28    16    27    1
    29    17    28    1
    30    18    29    1
@<TRIPOS>MOLECULE
mol5_1_16
 29 30 0 0 0
SMALL
USER_CHARGES
****
VDW energy = 143.28
@<TRIPOS>ATOM
   1 O1        3.4420    -9.1855    -5.2979  O.2     1  <O>11      -0.2866
   2 C1        2.8552    -9.8129    -4.4288  C.2     1  <O>11       0.1961
   3 C2        1.4620   -10.1610    -4.6040  C.ar    1  <O>11       0.0282
   4 C3        0.4750    -9.2816    -4.1548  C.ar    1  <O>11      -0.0056
   5 C4       -0.8745    -9.6182    -4.3103  C.ar    1  <O>11       0.1612
   6 O2       -1.7906    -8.8053    -3.8912  O.3     1  <O>11      -0.5032
   7 C5       -1.2337   -10.8255    -4.9148  C.ar    1  <O>11       0.1889
   8 O3       -2.4791   -11.1425    -5.0588  O.3     1  <O>11      -0.5018
   9 C6       -0.2326   -11.6942    -5.3652  C.ar    1  <O>11       0.1671
  10 N1       -0.6088   -12.9372    -5.9888  N.4     1  <O>11       0.0097
  11 O4        0.4158   -13.9332    -5.7374  O.2     1  <O>11      -0.1299
  12 O5       -0.7493   -12.7390    -7.4181  O.2     1  <O>11      -0.3960
  13 C7        1.1151   -11.3669    -5.2170  C.ar    1  <O>11      -0.0169
  14 C8        3.5590   -10.2100    -3.2160  C.ar    1  <O>11       0.0574
  15 C9        2.8900   -10.9321    -2.2130  C.ar    1  <O>11      -0.0481
  16 C10       3.5630   -11.3021    -1.0430  C.ar    1  <O>11      -0.0609
  17 C11       4.9070   -10.9610    -0.8670  C.ar    1  <O>11      -0.0590
  18 C12       5.5740   -10.2479    -1.8690  C.ar    1  <O>11      -0.0257
  19 C13       4.9120    -9.8749    -3.0400  C.ar    1  <O>11       0.1342
  20 F1        5.5670    -9.1829    -4.0259  F       1  <O>11      -0.2047
  21 H1       -2.6661    -9.1838    -4.0728  H       1  <O>11       0.2923
  22 H2       -2.5451   -12.0068    -5.4944  H       1  <O>11       0.2924
  23 H3        0.7391    -8.3883    -3.7106  H       1  <O>11       0.0662
  24 H4       -1.3748   -12.1234    -7.7464  H       1  <O>11       0.3292
  25 H5        1.8481   -12.0090    -5.5567  H       1  <O>11       0.0649
  26 H6        1.8989   -11.1904    -2.3396  H       1  <O>11       0.0625
  27 H7        3.0653   -11.8284    -0.3079  H       1  <O>11       0.0618
  28 H8        5.4037   -11.2332    -0.0043  H       1  <O>11       0.0618
  29 H9        6.5663    -9.9949    -1.7410  H       1  <O>11       0.0646
@<TRIPOS>BOND
     1     1     2    2
     2     2     3    1
     3     3     4   ar
     4     4     5   ar
     5     5     6    1
     6     5     7   ar
     7     7     8    1
     8     7     9   ar
     9     9    10    1
    10    10    11    2
    11    10    12    1
    12     9    13   ar
    13     3    13   ar
    14     2    14    1
    15    14    15   ar
    16    15    16   ar
    17    16    17   ar
    18    17    18   ar
    19    18    19   ar
    20    14    19   ar
    21    19    20    1
    22     6    21    1
    23     8    22    1
    24     4    23    1
    25    12    24    1
    26    13    25    1
    27    15    26    1
    28    16    27    1
    29    17    28    1
    30    18    29    1
@<TRIPOS>MOLECULE
mol5_1_17
 29 30 0 0 0
SMALL
USER_CHARGES
****
VDW energy = 144.35
@<TRIPOS>ATOM
   1 O1        3.4420    -9.1855    -5.2979  O.2     1  <O>11      -0.2866
   2 C1        2.8552    -9.8129    -4.4288  C.2     1  <O>11       0.1961
   3 C2        1.4620   -10.1610    -4.6040  C.ar    1  <O>11       0.0282
   4 C3        0.4750    -9.2816    -4.1548  C.ar    1  <O>11      -0.0056
   5 C4       -0.8745    -9.6182    -4.3103  C.ar    1  <O>11       0.1612
   6 O2       -1.7906    -8.8053    -3.8912  O.3     1  <O>11      -0.5032
   7 C5       -1.2337   -10.8255    -4.9148  C.ar    1  <O>11       0.1889
   8 O3       -2.4791   -11.1425    -5.0588  O.3     1  <O>11      -0.5018
   9 C6       -0.2326   -11.6942    -5.3652  C.ar    1  <O>11       0.1671
  10 N1       -0.6088   -12.9372    -5.9888  N.4     1  <O>11       0.0097
  11 O4       -1.8856   -12.7745    -6.6583  O.2     1  <O>11      -0.1299
  12 O5       -0.7213   -13.9713    -4.9789  O.2     1  <O>11      -0.3960
  13 C7        1.1151   -11.3669    -5.2170  C.ar    1  <O>11      -0.0169
  14 C8        3.5590   -10.2100    -3.2160  C.ar    1  <O>11       0.0574
  15 C9        4.2287   -11.4441    -3.1575  C.ar    1  <O>11      -0.0481
  16 C10       4.8936   -11.8304    -1.9882  C.ar    1  <O>11      -0.0609
  17 C11       4.9012   -10.9884    -0.8726  C.ar    1  <O>11      -0.0590
  18 C12       4.2398    -9.7571    -0.9340  C.ar    1  <O>11      -0.0257
  19 C13       3.5744    -9.3621    -2.0959  C.ar    1  <O>11       0.1342
  20 F1        2.9326    -8.1522    -2.1597  F       1  <O>11      -0.2047
  21 H1       -2.6661    -9.1838    -4.0728  H       1  <O>11       0.2923
  22 H2       -2.5451   -12.0068    -5.4944  H       1  <O>11       0.2924
  23 H3        0.7391    -8.3883    -3.7106  H       1  <O>11       0.0662
  24 H4        0.0220   -14.1975    -4.4552  H       1  <O>11       0.3292
  25 H5        1.8481   -12.0090    -5.5567  H       1  <O>11       0.0649
  26 H6        4.2301   -12.0678    -3.9797  H       1  <O>11       0.0625
  27 H7        5.3800   -12.7398    -1.9496  H       1  <O>11       0.0618
  28 H8        5.3910   -11.2729    -0.0099  H       1  <O>11       0.0618
  29 H9        4.2439    -9.1339    -0.1114  H       1  <O>11       0.0646
@<TRIPOS>BOND
     1     1     2    2
     2     2     3    1
     3     3     4   ar
     4     4     5   ar
     5     5     6    1
     6     5     7   ar
     7     7     8    1
     8     7     9   ar
     9     9    10    1
    10    10    11    2
    11    10    12    1
    12     9    13   ar
    13     3    13   ar
    14     2    14    1
    15    14    15   ar
    16    15    16   ar
    17    16    17   ar
    18    17    18   ar
    19    18    19   ar
    20    14    19   ar
    21    19    20    1
    22     6    21    1
    23     8    22    1
    24     4    23    1
    25    12    24    1
    26    13    25    1
    27    15    26    1
    28    16    27    1
    29    17    28    1
    30    18    29    1
@<TRIPOS>MOLECULE
mol5_1_18
 29 30 0 0 0
SMALL
USER_CHARGES
****
VDW energy = 145.25
@<TRIPOS>ATOM
   1 O1        3.4420    -9.1855    -5.2979  O.2     1  <O>11      -0.2866
   2 C1        2.8552    -9.8129    -4.4288  C.2     1  <O>11       0.1961
   3 C2        1.4620   -10.1610    -4.6040  C.ar    1  <O>11       0.0282
   4 C3        0.4750    -9.2816    -4.1548  C.ar    1  <O>11      -0.0056
   5 C4       -0.8745    -9.6182    -4.3103  C.ar    1  <O>11       0.1612
   6 O2       -1.7906    -8.8053    -3.8912  O.3     1  <O>11      -0.5032
   7 C5       -1.2337   -10.8255    -4.9148  C.ar    1  <O>11       0.1889
   8 O3       -2.4791   -11.1425    -5.0588  O.3     1  <O>11      -0.5018
   9 C6       -0.2326   -11.6942    -5.3652  C.ar    1  <O>11       0.1671
  10 N1       -0.6088   -12.9372    -5.9888  N.4     1  <O>11       0.0097
  11 O4       -1.3830   -13.7317    -5.0537  O.2     1  <O>11      -0.1299
  12 O5        0.5837   -13.6676    -6.3715  O.2     1  <O>11      -0.3960
  13 C7        1.1151   -11.3669    -5.2170  C.ar    1  <O>11      -0.0169
  14 C8        3.5590   -10.2100    -3.2160  C.ar    1  <O>11       0.0574
  15 C9        4.5692   -11.1854    -3.2704  C.ar    1  <O>11      -0.0481
  16 C10       5.2359   -11.5754    -2.1033  C.ar    1  <O>11      -0.0609
  17 C11       4.9055   -10.9928    -0.8765  C.ar    1  <O>11      -0.0590
  18 C12       3.9042   -10.0171    -0.8244  C.ar    1  <O>11      -0.0257
  19 C13       3.2339    -9.6205    -1.9829  C.ar    1  <O>11       0.1342
  20 F1        2.2579    -8.6587    -1.9340  F       1  <O>11      -0.2047
  21 H1       -2.6661    -9.1838    -4.0728  H       1  <O>11       0.2923
  22 H2       -2.5451   -12.0068    -5.4944  H       1  <O>11       0.2924
  23 H3        0.7391    -8.3883    -3.7106  H       1  <O>11       0.0662
  24 H4        1.1924   -13.2879    -6.9742  H       1  <O>11       0.3292
  25 H5        1.8481   -12.0090    -5.5567  H       1  <O>11       0.0649
  26 H6        4.8203   -11.6156    -4.1742  H       1  <O>11       0.0625
  27 H7        5.9739   -12.2954    -2.1487  H       1  <O>11       0.0618
  28 H8        5.3964   -11.2803    -0.0155  H       1  <O>11       0.0618
  29 H9        3.6585    -9.5858     0.0804  H       1  <O>11       0.0646
@<TRIPOS>BOND
     1     1     2    2
     2     2     3    1
     3     3     4   ar
     4     4     5   ar
     5     5     6    1
     6     5     7   ar
     7     7     8    1
     8     7     9   ar
     9     9    10    1
    10    10    11    2
    11    10    12    1
    12     9    13   ar
    13     3    13   ar
    14     2    14    1
    15    14    15   ar
    16    15    16   ar
    17    16    17   ar
    18    17    18   ar
    19    18    19   ar
    20    14    19   ar
    21    19    20    1
    22     6    21    1
    23     8    22    1
    24     4    23    1
    25    12    24    1
    26    13    25    1
    27    15    26    1
    28    16    27    1
    29    17    28    1
    30    18    29    1
@<TRIPOS>MOLECULE
mol5_1_19
 29 30 0 0 0
SMALL
USER_CHARGES
****
VDW energy = 145.47
@<TRIPOS>ATOM
   1 O1        3.4420    -9.1855    -5.2979  O.2     1  <O>11      -0.2866
   2 C1        2.8552    -9.8129    -4.4288  C.2     1  <O>11       0.1961
   3 C2        1.4620   -10.1610    -4.6040  C.ar    1  <O>11       0.0282
   4 C3        0.4750    -9.2816    -4.1548  C.ar    1  <O>11      -0.0056
   5 C4       -0.8745    -9.6182    -4.3103  C.ar    1  <O>11       0.1612
   6 O2       -1.7906    -8.8053    -3.8912  O.3     1  <O>11      -0.5032
   7 C5       -1.2337   -10.8255    -4.9148  C.ar    1  <O>11       0.1889
   8 O3       -2.4791   -11.1425    -5.0588  O.3     1  <O>11      -0.5018
   9 C6       -0.2326   -11.6942    -5.3652  C.ar    1  <O>11       0.1671
  10 N1       -0.6088   -12.9372    -5.9888  N.4     1  <O>11       0.0097
  11 O4       -1.8856   -12.7745    -6.6583  O.2     1  <O>11      -0.1299
  12 O5       -0.7213   -13.9713    -4.9789  O.2     1  <O>11      -0.3960
  13 C7        1.1151   -11.3669    -5.2170  C.ar    1  <O>11      -0.0169
  14 C8        3.5590   -10.2100    -3.2160  C.ar    1  <O>11       0.0574
  15 C9        4.5692   -11.1854    -3.2704  C.ar    1  <O>11      -0.0481
  16 C10       5.2359   -11.5754    -2.1033  C.ar    1  <O>11      -0.0609
  17 C11       4.9055   -10.9928    -0.8765  C.ar    1  <O>11      -0.0590
  18 C12       3.9042   -10.0171    -0.8244  C.ar    1  <O>11      -0.0257
  19 C13       3.2339    -9.6205    -1.9829  C.ar    1  <O>11       0.1342
  20 F1        2.2579    -8.6587    -1.9340  F       1  <O>11      -0.2047
  21 H1       -2.6661    -9.1838    -4.0728  H       1  <O>11       0.2923
  22 H2       -2.5451   -12.0068    -5.4944  H       1  <O>11       0.2924
  23 H3        0.7391    -8.3883    -3.7106  H       1  <O>11       0.0662
  24 H4        0.0220   -14.1975    -4.4552  H       1  <O>11       0.3292
  25 H5        1.8481   -12.0090    -5.5567  H       1  <O>11       0.0649
  26 H6        4.8203   -11.6156    -4.1742  H       1  <O>11       0.0625
  27 H7        5.9739   -12.2954    -2.1487  H       1  <O>11       0.0618
  28 H8        5.3964   -11.2803    -0.0155  H       1  <O>11       0.0618
  29 H9        3.6585    -9.5858     0.0804  H       1  <O>11       0.0646
@<TRIPOS>BOND
     1     1     2    2
     2     2     3    1
     3     3     4   ar
     4     4     5   ar
     5     5     6    1
     6     5     7   ar
     7     7     8    1
     8     7     9   ar
     9     9    10    1
    10    10    11    2
    11    10    12    1
    12     9    13   ar
    13     3    13   ar
    14     2    14    1
    15    14    15   ar
    16    15    16   ar
    17    16    17   ar
    18    17    18   ar
    19    18    19   ar
    20    14    19   ar
    21    19    20    1
    22     6    21    1
    23     8    22    1
    24     4    23    1
    25    12    24    1
    26    13    25    1
    27    15    26    1
    28    16    27    1
    29    17    28    1
    30    18    29    1
@<TRIPOS>MOLECULE
mol5_1_20
 29 30 0 0 0
SMALL
USER_CHARGES
****
VDW energy = 145.67
@<TRIPOS>ATOM
   1 O1        3.4420    -9.1855    -5.2979  O.2     1  <O>11      -0.2866
   2 C1        2.8552    -9.8129    -4.4288  C.2     1  <O>11       0.1961
   3 C2        1.4620   -10.1610    -4.6040  C.ar    1  <O>11       0.0282
   4 C3        0.4750    -9.2816    -4.1548  C.ar    1  <O>11      -0.0056
   5 C4       -0.8745    -9.6182    -4.3103  C.ar    1  <O>11       0.1612
   6 O2       -1.7906    -8.8053    -3.8912  O.3     1  <O>11      -0.5032
   7 C5       -1.2337   -10.8255    -4.9148  C.ar    1  <O>11       0.1889
   8 O3       -2.4791   -11.1425    -5.0588  O.3     1  <O>11      -0.5018
   9 C6       -0.2326   -11.6942    -5.3652  C.ar    1  <O>11       0.1671
  10 N1       -0.6088   -12.9372    -5.9888  N.4     1  <O>11       0.0097
  11 O4       -1.8856   -12.7745    -6.6583  O.2     1  <O>11      -0.1299
  12 O5       -0.7213   -13.9713    -4.9789  O.2     1  <O>11      -0.3960
  13 C7        1.1151   -11.3669    -5.2170  C.ar    1  <O>11      -0.0169
  14 C8        3.5590   -10.2100    -3.2160  C.ar    1  <O>11       0.0574
  15 C9        4.1229    -9.2369    -2.3734  C.ar    1  <O>11      -0.0481
  16 C10       4.8096    -9.6196    -1.2156  C.ar    1  <O>11      -0.0609
  17 C11       4.9339   -10.9723    -0.8863  C.ar    1  <O>11      -0.0590
  18 C12       4.3664   -11.9400    -1.7222  C.ar    1  <O>11      -0.0257
  19 C13       3.6788   -11.5686    -2.8789  C.ar    1  <O>11       0.1342
  20 F1        3.1156   -12.5159    -3.6947  F       1  <O>11      -0.2047
  21 H1       -2.6661    -9.1838    -4.0728  H       1  <O>11       0.2923
  22 H2       -2.5451   -12.0068    -5.4944  H       1  <O>11       0.2924
  23 H3        0.7391    -8.3883    -3.7106  H       1  <O>11       0.0662
  24 H4        0.0220   -14.1975    -4.4552  H       1  <O>11       0.3292
  25 H5        1.8481   -12.0090    -5.5567  H       1  <O>11       0.0649
  26 H6        4.0303    -8.2365    -2.6093  H       1  <O>11       0.0625
  27 H7        5.2255    -8.9007    -0.6029  H       1  <O>11       0.0618
  28 H8        5.4405   -11.2551    -0.0328  H       1  <O>11       0.0618
  29 H9        4.4572   -12.9393    -1.4811  H       1  <O>11       0.0646
@<TRIPOS>BOND
     1     1     2    2
     2     2     3    1
     3     3     4   ar
     4     4     5   ar
     5     5     6    1
     6     5     7   ar
     7     7     8    1
     8     7     9   ar
     9     9    10    1
    10    10    11    2
    11    10    12    1
    12     9    13   ar
    13     3    13   ar
    14     2    14    1
    15    14    15   ar
    16    15    16   ar
    17    16    17   ar
    18    17    18   ar
    19    18    19   ar
    20    14    19   ar
    21    19    20    1
    22     6    21    1
    23     8    22    1
    24     4    23    1
    25    12    24    1
    26    13    25    1
    27    15    26    1
    28    16    27    1
    29    17    28    1
    30    18    29    1
@<TRIPOS>MOLECULE
mol5_1_21
 29 30 0 0 0
SMALL
USER_CHARGES
****
VDW energy = 145.94
@<TRIPOS>ATOM
   1 O1        3.4420    -9.1855    -5.2979  O.2     1  <O>11      -0.2866
   2 C1        2.8552    -9.8129    -4.4288  C.2     1  <O>11       0.1961
   3 C2        1.4620   -10.1610    -4.6040  C.ar    1  <O>11       0.0282
   4 C3        0.5946   -10.0836    -3.5127  C.ar    1  <O>11      -0.0056
   5 C4       -0.7516   -10.4308    -3.6728  C.ar    1  <O>11       0.1612
   6 O2       -1.5562   -10.3626    -2.6610  O.3     1  <O>11      -0.5032
   7 C5       -1.2274   -10.8492    -4.9180  C.ar    1  <O>11       0.1889
   8 O3       -2.4698   -11.1734    -5.0709  O.3     1  <O>11      -0.5018
   9 C6       -0.3466   -10.9162    -6.0041  C.ar    1  <O>11       0.1671
  10 N1       -0.8430   -11.3472    -7.2861  N.4     1  <O>11       0.0097
  11 O4       -2.2400   -10.9766    -7.4124  O.2     1  <O>11      -0.1299
  12 O5       -0.7132   -12.7869    -7.3967  O.2     1  <O>11      -0.3960
  13 C7        0.9963   -10.5701    -5.8555  C.ar    1  <O>11      -0.0169
  14 C8        3.5590   -10.2100    -3.2160  C.ar    1  <O>11       0.0574
  15 C9        4.1229    -9.2369    -2.3734  C.ar    1  <O>11      -0.0481
  16 C10       4.8096    -9.6196    -1.2156  C.ar    1  <O>11      -0.0609
  17 C11       4.9339   -10.9723    -0.8863  C.ar    1  <O>11      -0.0590
  18 C12       4.3664   -11.9400    -1.7222  C.ar    1  <O>11      -0.0257
  19 C13       3.6788   -11.5686    -2.8789  C.ar    1  <O>11       0.1342
  20 F1        3.1156   -12.5159    -3.6947  F       1  <O>11      -0.2047
  21 H1       -2.4465   -10.6346    -2.9372  H       1  <O>11       0.2923
  22 H2       -2.6249   -11.4371    -5.9915  H       1  <O>11       0.2924
  23 H3        0.9443    -9.7720    -2.5930  H       1  <O>11       0.0662
  24 H4        0.1318   -13.1872    -7.3357  H       1  <O>11       0.3292
  25 H5        1.6390   -10.6159    -6.6616  H       1  <O>11       0.0649
  26 H6        4.0303    -8.2365    -2.6093  H       1  <O>11       0.0625
  27 H7        5.2255    -8.9007    -0.6029  H       1  <O>11       0.0618
  28 H8        5.4405   -11.2551    -0.0328  H       1  <O>11       0.0618
  29 H9        4.4572   -12.9393    -1.4811  H       1  <O>11       0.0646
@<TRIPOS>BOND
     1     1     2    2
     2     2     3    1
     3     3     4   ar
     4     4     5   ar
     5     5     6    1
     6     5     7   ar
     7     7     8    1
     8     7     9   ar
     9     9    10    1
    10    10    11    2
    11    10    12    1
    12     9    13   ar
    13     3    13   ar
    14     2    14    1
    15    14    15   ar
    16    15    16   ar
    17    16    17   ar
    18    17    18   ar
    19    18    19   ar
    20    14    19   ar
    21    19    20    1
    22     6    21    1
    23     8    22    1
    24     4    23    1
    25    12    24    1
    26    13    25    1
    27    15    26    1
    28    16    27    1
    29    17    28    1
    30    18    29    1
@<TRIPOS>MOLECULE
mol5_1_22
 29 30 0 0 0
SMALL
USER_CHARGES
****
VDW energy = 146.15
@<TRIPOS>ATOM
   1 O1        3.4420    -9.1855    -5.2979  O.2     1  <O>11      -0.2866
   2 C1        2.8552    -9.8129    -4.4288  C.2     1  <O>11       0.1961
   3 C2        1.4620   -10.1610    -4.6040  C.ar    1  <O>11       0.0282
   4 C3        0.5946   -10.0836    -3.5127  C.ar    1  <O>11      -0.0056
   5 C4       -0.7516   -10.4308    -3.6728  C.ar    1  <O>11       0.1612
   6 O2       -1.5562   -10.3626    -2.6610  O.3     1  <O>11      -0.5032
   7 C5       -1.2274   -10.8492    -4.9180  C.ar    1  <O>11       0.1889
   8 O3       -2.4698   -11.1734    -5.0709  O.3     1  <O>11      -0.5018
   9 C6       -0.3466   -10.9162    -6.0041  C.ar    1  <O>11       0.1671
  10 N1       -0.8430   -11.3472    -7.2861  N.4     1  <O>11       0.0097
  11 O4        0.2639   -11.4696    -8.2161  O.2     1  <O>11      -0.1299
  12 O5       -1.7920   -10.3740    -7.7902  O.2     1  <O>11      -0.3960
  13 C7        0.9963   -10.5701    -5.8555  C.ar    1  <O>11      -0.0169
  14 C8        3.5590   -10.2100    -3.2160  C.ar    1  <O>11       0.0574
  15 C9        4.5692   -11.1854    -3.2704  C.ar    1  <O>11      -0.0481
  16 C10       5.2359   -11.5754    -2.1033  C.ar    1  <O>11      -0.0609
  17 C11       4.9055   -10.9928    -0.8765  C.ar    1  <O>11      -0.0590
  18 C12       3.9042   -10.0171    -0.8244  C.ar    1  <O>11      -0.0257
  19 C13       3.2339    -9.6205    -1.9829  C.ar    1  <O>11       0.1342
  20 F1        2.2579    -8.6587    -1.9340  F       1  <O>11      -0.2047
  21 H1       -2.4465   -10.6346    -2.9372  H       1  <O>11       0.2923
  22 H2       -2.6249   -11.4371    -5.9915  H       1  <O>11       0.2924
  23 H3        0.9443    -9.7720    -2.5930  H       1  <O>11       0.0662
  24 H4       -2.5676   -10.1795    -7.3017  H       1  <O>11       0.3292
  25 H5        1.6390   -10.6159    -6.6616  H       1  <O>11       0.0649
  26 H6        4.8203   -11.6156    -4.1742  H       1  <O>11       0.0625
  27 H7        5.9739   -12.2954    -2.1487  H       1  <O>11       0.0618
  28 H8        5.3964   -11.2803    -0.0155  H       1  <O>11       0.0618
  29 H9        3.6585    -9.5858     0.0804  H       1  <O>11       0.0646
@<TRIPOS>BOND
     1     1     2    2
     2     2     3    1
     3     3     4   ar
     4     4     5   ar
     5     5     6    1
     6     5     7   ar
     7     7     8    1
     8     7     9   ar
     9     9    10    1
    10    10    11    2
    11    10    12    1
    12     9    13   ar
    13     3    13   ar
    14     2    14    1
    15    14    15   ar
    16    15    16   ar
    17    16    17   ar
    18    17    18   ar
    19    18    19   ar
    20    14    19   ar
    21    19    20    1
    22     6    21    1
    23     8    22    1
    24     4    23    1
    25    12    24    1
    26    13    25    1
    27    15    26    1
    28    16    27    1
    29    17    28    1
    30    18    29    1
@<TRIPOS>MOLECULE
mol5_1_23
 29 30 0 0 0
SMALL
USER_CHARGES
****
VDW energy = 146.41
@<TRIPOS>ATOM
   1 O1        3.4420    -9.1855    -5.2979  O.2     1  <O>11      -0.2866
   2 C1        2.8552    -9.8129    -4.4288  C.2     1  <O>11       0.1961
   3 C2        1.4620   -10.1610    -4.6040  C.ar    1  <O>11       0.0282
   4 C3        1.1045   -11.5030    -4.7474  C.ar    1  <O>11      -0.0056
   5 C4       -0.2401   -11.8453    -4.9295  C.ar    1  <O>11       0.1612
   6 O2       -0.5726   -13.0888    -5.0659  O.3     1  <O>11      -0.5032
   7 C5       -1.2211   -10.8510    -4.9642  C.ar    1  <O>11       0.1889
   8 O3       -2.4648   -11.1616    -5.1346  O.3     1  <O>11      -0.5018
   9 C6       -0.8476    -9.5103    -4.8133  C.ar    1  <O>11       0.1671
  10 N1       -1.8635    -8.4893    -4.8487  N.4     1  <O>11       0.0097
  11 O4       -2.5470    -8.5324    -6.1277  O.2     1  <O>11      -0.1299
  12 O5       -1.2489    -7.1881    -4.6731  O.2     1  <O>11      -0.3960
  13 C7        0.4895    -9.1590    -4.6289  C.ar    1  <O>11      -0.0169
  14 C8        3.5590   -10.2100    -3.2160  C.ar    1  <O>11       0.0574
  15 C9        4.5692   -11.1854    -3.2704  C.ar    1  <O>11      -0.0481
  16 C10       5.2359   -11.5754    -2.1033  C.ar    1  <O>11      -0.0609
  17 C11       4.9055   -10.9928    -0.8765  C.ar    1  <O>11      -0.0590
  18 C12       3.9042   -10.0171    -0.8244  C.ar    1  <O>11      -0.0257
  19 C13       3.2339    -9.6205    -1.9829  C.ar    1  <O>11       0.1342
  20 F1        2.2579    -8.6587    -1.9340  F       1  <O>11      -0.2047
  21 H1       -1.5343   -13.1554    -5.1820  H       1  <O>11       0.2923
  22 H2       -3.0034   -10.3547    -5.1323  H       1  <O>11       0.2924
  23 H3        1.8279   -12.2386    -4.7192  H       1  <O>11       0.0662
  24 H4       -0.7664    -6.9994    -3.8923  H       1  <O>11       0.3292
  25 H5        0.7574    -8.1692    -4.5122  H       1  <O>11       0.0649
  26 H6        4.8203   -11.6156    -4.1742  H       1  <O>11       0.0625
  27 H7        5.9739   -12.2954    -2.1487  H       1  <O>11       0.0618
  28 H8        5.3964   -11.2803    -0.0155  H       1  <O>11       0.0618
  29 H9        3.6585    -9.5858     0.0804  H       1  <O>11       0.0646
@<TRIPOS>BOND
     1     1     2    2
     2     2     3    1
     3     3     4   ar
     4     4     5   ar
     5     5     6    1
     6     5     7   ar
     7     7     8    1
     8     7     9   ar
     9     9    10    1
    10    10    11    2
    11    10    12    1
    12     9    13   ar
    13     3    13   ar
    14     2    14    1
    15    14    15   ar
    16    15    16   ar
    17    16    17   ar
    18    17    18   ar
    19    18    19   ar
    20    14    19   ar
    21    19    20    1
    22     6    21    1
    23     8    22    1
    24     4    23    1
    25    12    24    1
    26    13    25    1
    27    15    26    1
    28    16    27    1
    29    17    28    1
    30    18    29    1
@<TRIPOS>MOLECULE
mol5_1_24
 29 30 0 0 0
SMALL
USER_CHARGES
****
VDW energy = 146.73
@<TRIPOS>ATOM
   1 O1        3.4420    -9.1855    -5.2979  O.2     1  <O>11      -0.2866
   2 C1        2.8552    -9.8129    -4.4288  C.2     1  <O>11       0.1961
   3 C2        1.4620   -10.1610    -4.6040  C.ar    1  <O>11       0.0282
   4 C3        1.1306   -11.3698    -5.2190  C.ar    1  <O>11      -0.0056
   5 C4       -0.2153   -11.7067    -5.4025  C.ar    1  <O>11       0.1612
   6 O2       -0.5240   -12.8256    -5.9755  O.3     1  <O>11      -0.5032
   7 C5       -1.2229   -10.8409    -4.9699  C.ar    1  <O>11       0.1889
   8 O3       -2.4681   -11.1462    -5.1391  O.3     1  <O>11      -0.5018
   9 C6       -0.8747    -9.6351    -4.3498  C.ar    1  <O>11       0.1671
  10 N1       -1.9179    -8.7467    -3.9046  N.4     1  <O>11       0.0097
  11 O4       -3.0902    -9.5214    -3.5431  O.2     1  <O>11      -0.1299
  12 O5       -2.2578    -7.8256    -4.9714  O.2     1  <O>11      -0.3960
  13 C7        0.4636    -9.2912    -4.1602  C.ar    1  <O>11      -0.0169
  14 C8        3.5590   -10.2100    -3.2160  C.ar    1  <O>11       0.0574
  15 C9        4.2287   -11.4441    -3.1575  C.ar    1  <O>11      -0.0481
  16 C10       4.8936   -11.8304    -1.9882  C.ar    1  <O>11      -0.0609
  17 C11       4.9012   -10.9884    -0.8726  C.ar    1  <O>11      -0.0590
  18 C12       4.2398    -9.7571    -0.9340  C.ar    1  <O>11      -0.0257
  19 C13       3.5744    -9.3621    -2.0959  C.ar    1  <O>11       0.1342
  20 F1        2.9326    -8.1522    -2.1597  F       1  <O>11      -0.2047
  21 H1       -1.4903   -12.9072    -6.0256  H       1  <O>11       0.2923
  22 H2       -3.0266   -10.4379    -4.7820  H       1  <O>11       0.2924
  23 H3        1.8739   -12.0114    -5.5365  H       1  <O>11       0.0662
  24 H4       -1.6050    -7.2506    -5.3195  H       1  <O>11       0.3292
  25 H5        0.7134    -8.4036    -3.6968  H       1  <O>11       0.0649
  26 H6        4.2301   -12.0678    -3.9797  H       1  <O>11       0.0625
  27 H7        5.3800   -12.7398    -1.9496  H       1  <O>11       0.0618
  28 H8        5.3910   -11.2729    -0.0099  H       1  <O>11       0.0618
  29 H9        4.2439    -9.1339    -0.1114  H       1  <O>11       0.0646
@<TRIPOS>BOND
     1     1     2    2
     2     2     3    1
     3     3     4   ar
     4     4     5   ar
     5     5     6    1
     6     5     7   ar
     7     7     8    1
     8     7     9   ar
     9     9    10    1
    10    10    11    2
    11    10    12    1
    12     9    13   ar
    13     3    13   ar
    14     2    14    1
    15    14    15   ar
    16    15    16   ar
    17    16    17   ar
    18    17    18   ar
    19    18    19   ar
    20    14    19   ar
    21    19    20    1
    22     6    21    1
    23     8    22    1
    24     4    23    1
    25    12    24    1
    26    13    25    1
    27    15    26    1
    28    16    27    1
    29    17    28    1
    30    18    29    1
@<TRIPOS>MOLECULE
mol5_1_25
 29 30 0 0 0
SMALL
USER_CHARGES
****
VDW energy = 147.55
@<TRIPOS>ATOM
   1 O1        3.4420    -9.1855    -5.2979  O.2     1  <O>11      -0.2866
   2 C1        2.8552    -9.8129    -4.4288  C.2     1  <O>11       0.1961
   3 C2        1.4620   -10.1610    -4.6040  C.ar    1  <O>11       0.0282
   4 C3        0.4750    -9.2816    -4.1548  C.ar    1  <O>11      -0.0056
   5 C4       -0.8745    -9.6182    -4.3103  C.ar    1  <O>11       0.1612
   6 O2       -1.7906    -8.8053    -3.8912  O.3     1  <O>11      -0.5032
   7 C5       -1.2337   -10.8255    -4.9148  C.ar    1  <O>11       0.1889
   8 O3       -2.4791   -11.1425    -5.0588  O.3     1  <O>11      -0.5018
   9 C6       -0.2326   -11.6942    -5.3652  C.ar    1  <O>11       0.1671
  10 N1       -0.6088   -12.9372    -5.9888  N.4     1  <O>11       0.0097
  11 O4       -1.3830   -13.7317    -5.0537  O.2     1  <O>11      -0.1299
  12 O5        0.5837   -13.6676    -6.3715  O.2     1  <O>11      -0.3960
  13 C7        1.1151   -11.3669    -5.2170  C.ar    1  <O>11      -0.0169
  14 C8        3.5590   -10.2100    -3.2160  C.ar    1  <O>11       0.0574
  15 C9        4.1229    -9.2369    -2.3734  C.ar    1  <O>11      -0.0481
  16 C10       4.8096    -9.6196    -1.2156  C.ar    1  <O>11      -0.0609
  17 C11       4.9339   -10.9723    -0.8863  C.ar    1  <O>11      -0.0590
  18 C12       4.3664   -11.9400    -1.7222  C.ar    1  <O>11      -0.0257
  19 C13       3.6788   -11.5686    -2.8789  C.ar    1  <O>11       0.1342
  20 F1        3.1156   -12.5159    -3.6947  F       1  <O>11      -0.2047
  21 H1       -2.6661    -9.1838    -4.0728  H       1  <O>11       0.2923
  22 H2       -2.5451   -12.0068    -5.4944  H       1  <O>11       0.2924
  23 H3        0.7391    -8.3883    -3.7106  H       1  <O>11       0.0662
  24 H4        1.1924   -13.2879    -6.9742  H       1  <O>11       0.3292
  25 H5        1.8481   -12.0090    -5.5567  H       1  <O>11       0.0649
  26 H6        4.0303    -8.2365    -2.6093  H       1  <O>11       0.0625
  27 H7        5.2255    -8.9007    -0.6029  H       1  <O>11       0.0618
  28 H8        5.4405   -11.2551    -0.0328  H       1  <O>11       0.0618
  29 H9        4.4572   -12.9393    -1.4811  H       1  <O>11       0.0646
@<TRIPOS>BOND
     1     1     2    2
     2     2     3    1
     3     3     4   ar
     4     4     5   ar
     5     5     6    1
     6     5     7   ar
     7     7     8    1
     8     7     9   ar
     9     9    10    1
    10    10    11    2
    11    10    12    1
    12     9    13   ar
    13     3    13   ar
    14     2    14    1
    15    14    15   ar
    16    15    16   ar
    17    16    17   ar
    18    17    18   ar
    19    18    19   ar
    20    14    19   ar
    21    19    20    1
    22     6    21    1
    23     8    22    1
    24     4    23    1
    25    12    24    1
    26    13    25    1
    27    15    26    1
    28    16    27    1
    29    17    28    1
    30    18    29    1
@<TRIPOS>MOLECULE
mol5_1_26
 29 30 0 0 0
SMALL
USER_CHARGES
****
VDW energy = 148.55
@<TRIPOS>ATOM
   1 O1        3.4420    -9.1855    -5.2979  O.2     1  <O>11      -0.2866
   2 C1        2.8552    -9.8129    -4.4288  C.2     1  <O>11       0.1961
   3 C2        1.4620   -10.1610    -4.6040  C.ar    1  <O>11       0.0282
   4 C3        0.8012    -9.7736    -5.7713  C.ar    1  <O>11      -0.0056
   5 C4       -0.5498   -10.0966    -5.9413  C.ar    1  <O>11       0.1612
   6 O2       -1.1646    -9.7351    -7.0216  O.3     1  <O>11      -0.5032
   7 C5       -1.2340   -10.8060    -4.9510  C.ar    1  <O>11       0.1889
   8 O3       -2.4830   -11.1050    -5.1020  O.3     1  <O>11      -0.5018
   9 C6       -0.5562   -11.1924    -3.7887  C.ar    1  <O>11       0.1671
  10 N1       -1.2664   -11.9248    -2.7714  N.4     1  <O>11       0.0097
  11 O4       -2.3806   -11.1287    -2.2923  O.2     1  <O>11      -0.1299
  12 O5       -0.3707   -12.2149    -1.6689  O.2     1  <O>11      -0.3960
  13 C7        0.7908   -10.8774    -3.6107  C.ar    1  <O>11      -0.0169
  14 C8        3.5590   -10.2100    -3.2160  C.ar    1  <O>11       0.0574
  15 C9        4.2287   -11.4441    -3.1575  C.ar    1  <O>11      -0.0481
  16 C10       4.8936   -11.8304    -1.9882  C.ar    1  <O>11      -0.0609
  17 C11       4.9012   -10.9884    -0.8726  C.ar    1  <O>11      -0.0590
  18 C12       4.2398    -9.7571    -0.9340  C.ar    1  <O>11      -0.0257
  19 C13       3.5744    -9.3621    -2.0959  C.ar    1  <O>11       0.1342
  20 F1        2.9326    -8.1522    -2.1597  F       1  <O>11      -0.2047
  21 H1       -2.0877   -10.0341    -6.9836  H       1  <O>11       0.2923
  22 H2       -2.7951   -11.5946    -4.3248  H       1  <O>11       0.2924
  23 H3        1.3062    -9.2519    -6.5047  H       1  <O>11       0.0662
  24 H4        0.4026   -12.7236    -1.8149  H       1  <O>11       0.3292
  25 H5        1.2862   -11.1706    -2.7542  H       1  <O>11       0.0649
  26 H6        4.2301   -12.0678    -3.9797  H       1  <O>11       0.0625
  27 H7        5.3800   -12.7398    -1.9496  H       1  <O>11       0.0618
  28 H8        5.3910   -11.2729    -0.0099  H       1  <O>11       0.0618
  29 H9        4.2439    -9.1339    -0.1114  H       1  <O>11       0.0646
@<TRIPOS>BOND
     1     1     2    2
     2     2     3    1
     3     3     4   ar
     4     4     5   ar
     5     5     6    1
     6     5     7   ar
     7     7     8    1
     8     7     9   ar
     9     9    10    1
    10    10    11    2
    11    10    12    1
    12     9    13   ar
    13     3    13   ar
    14     2    14    1
    15    14    15   ar
    16    15    16   ar
    17    16    17   ar
    18    17    18   ar
    19    18    19   ar
    20    14    19   ar
    21    19    20    1
    22     6    21    1
    23     8    22    1
    24     4    23    1
    25    12    24    1
    26    13    25    1
    27    15    26    1
    28    16    27    1
    29    17    28    1
    30    18    29    1
@<TRIPOS>MOLECULE
mol5_1_27
 29 30 0 0 0
SMALL
USER_CHARGES
****
VDW energy = 151.81
@<TRIPOS>ATOM
   1 O1        3.4420    -9.1855    -5.2979  O.2     1  <O>11      -0.2866
   2 C1        2.8552    -9.8129    -4.4288  C.2     1  <O>11       0.1961
   3 C2        1.4620   -10.1610    -4.6040  C.ar    1  <O>11       0.0282
   4 C3        0.4750    -9.2816    -4.1548  C.ar    1  <O>11      -0.0056
   5 C4       -0.8745    -9.6182    -4.3103  C.ar    1  <O>11       0.1612
   6 O2       -1.7906    -8.8053    -3.8912  O.3     1  <O>11      -0.5032
   7 C5       -1.2337   -10.8255    -4.9148  C.ar    1  <O>11       0.1889
   8 O3       -2.4791   -11.1425    -5.0588  O.3     1  <O>11      -0.5018
   9 C6       -0.2326   -11.6942    -5.3652  C.ar    1  <O>11       0.1671
  10 N1       -0.6088   -12.9372    -5.9888  N.4     1  <O>11       0.0097
  11 O4       -1.8856   -12.7745    -6.6583  O.2     1  <O>11      -0.1299
  12 O5       -0.7213   -13.9713    -4.9789  O.2     1  <O>11      -0.3960
  13 C7        1.1151   -11.3669    -5.2170  C.ar    1  <O>11      -0.0169
  14 C8        3.5590   -10.2100    -3.2160  C.ar    1  <O>11       0.0574
  15 C9        2.8900   -10.9321    -2.2130  C.ar    1  <O>11      -0.0481
  16 C10       3.5630   -11.3021    -1.0430  C.ar    1  <O>11      -0.0609
  17 C11       4.9070   -10.9610    -0.8670  C.ar    1  <O>11      -0.0590
  18 C12       5.5740   -10.2479    -1.8690  C.ar    1  <O>11      -0.0257
  19 C13       4.9120    -9.8749    -3.0400  C.ar    1  <O>11       0.1342
  20 F1        5.5670    -9.1829    -4.0259  F       1  <O>11      -0.2047
  21 H1       -2.6661    -9.1838    -4.0728  H       1  <O>11       0.2923
  22 H2       -2.5451   -12.0068    -5.4944  H       1  <O>11       0.2924
  23 H3        0.7391    -8.3883    -3.7106  H       1  <O>11       0.0662
  24 H4        0.0220   -14.1975    -4.4552  H       1  <O>11       0.3292
  25 H5        1.8481   -12.0090    -5.5567  H       1  <O>11       0.0649
  26 H6        1.8989   -11.1904    -2.3396  H       1  <O>11       0.0625
  27 H7        3.0653   -11.8284    -0.3079  H       1  <O>11       0.0618
  28 H8        5.4037   -11.2332    -0.0043  H       1  <O>11       0.0618
  29 H9        6.5663    -9.9949    -1.7410  H       1  <O>11       0.0646
@<TRIPOS>BOND
     1     1     2    2
     2     2     3    1
     3     3     4   ar
     4     4     5   ar
     5     5     6    1
     6     5     7   ar
     7     7     8    1
     8     7     9   ar
     9     9    10    1
    10    10    11    2
    11    10    12    1
    12     9    13   ar
    13     3    13   ar
    14     2    14    1
    15    14    15   ar
    16    15    16   ar
    17    16    17   ar
    18    17    18   ar
    19    18    19   ar
    20    14    19   ar
    21    19    20    1
    22     6    21    1
    23     8    22    1
    24     4    23    1
    25    12    24    1
    26    13    25    1
    27    15    26    1
    28    16    27    1
    29    17    28    1
    30    18    29    1
@<TRIPOS>MOLECULE
mol5_1_28
 29 30 0 0 0
SMALL
USER_CHARGES
****
VDW energy = 155.19
@<TRIPOS>ATOM
   1 O1        3.4420    -9.1855    -5.2979  O.2     1  <O>11      -0.2866
   2 C1        2.8552    -9.8129    -4.4288  C.2     1  <O>11       0.1961
   3 C2        1.4620   -10.1610    -4.6040  C.ar    1  <O>11       0.0282
   4 C3        0.8012    -9.7736    -5.7713  C.ar    1  <O>11      -0.0056
   5 C4       -0.5498   -10.0966    -5.9413  C.ar    1  <O>11       0.1612
   6 O2       -1.1646    -9.7351    -7.0216  O.3     1  <O>11      -0.5032
   7 C5       -1.2340   -10.8060    -4.9510  C.ar    1  <O>11       0.1889
   8 O3       -2.4830   -11.1050    -5.1020  O.3     1  <O>11      -0.5018
   9 C6       -0.5562   -11.1924    -3.7887  C.ar    1  <O>11       0.1671
  10 N1       -1.2664   -11.9248    -2.7714  N.4     1  <O>11       0.0097
  11 O4       -2.3101   -12.7209    -3.3894  O.2     1  <O>11      -0.1299
  12 O5       -1.8608   -10.9951    -1.8310  O.2     1  <O>11      -0.3960
  13 C7        0.7908   -10.8774    -3.6107  C.ar    1  <O>11      -0.0169
  14 C8        3.5590   -10.2100    -3.2160  C.ar    1  <O>11       0.0574
  15 C9        4.5692   -11.1854    -3.2704  C.ar    1  <O>11      -0.0481
  16 C10       5.2359   -11.5754    -2.1033  C.ar    1  <O>11      -0.0609
  17 C11       4.9055   -10.9928    -0.8765  C.ar    1  <O>11      -0.0590
  18 C12       3.9042   -10.0171    -0.8244  C.ar    1  <O>11      -0.0257
  19 C13       3.2339    -9.6205    -1.9829  C.ar    1  <O>11       0.1342
  20 F1        2.2579    -8.6587    -1.9340  F       1  <O>11      -0.2047
  21 H1       -2.0877   -10.0341    -6.9836  H       1  <O>11       0.2923
  22 H2       -2.7951   -11.5946    -4.3248  H       1  <O>11       0.2924
  23 H3        1.3062    -9.2519    -6.5047  H       1  <O>11       0.0662
  24 H4       -1.3161   -10.4064    -1.3466  H       1  <O>11       0.3292
  25 H5        1.2862   -11.1706    -2.7542  H       1  <O>11       0.0649
  26 H6        4.8203   -11.6156    -4.1742  H       1  <O>11       0.0625
  27 H7        5.9739   -12.2954    -2.1487  H       1  <O>11       0.0618
  28 H8        5.3964   -11.2803    -0.0155  H       1  <O>11       0.0618
  29 H9        3.6585    -9.5858     0.0804  H       1  <O>11       0.0646
@<TRIPOS>BOND
     1     1     2    2
     2     2     3    1
     3     3     4   ar
     4     4     5   ar
     5     5     6    1
     6     5     7   ar
     7     7     8    1
     8     7     9   ar
     9     9    10    1
    10    10    11    2
    11    10    12    1
    12     9    13   ar
    13     3    13   ar
    14     2    14    1
    15    14    15   ar
    16    15    16   ar
    17    16    17   ar
    18    17    18   ar
    19    18    19   ar
    20    14    19   ar
    21    19    20    1
    22     6    21    1
    23     8    22    1
    24     4    23    1
    25    12    24    1
    26    13    25    1
    27    15    26    1
    28    16    27    1
    29    17    28    1
    30    18    29    1
@<TRIPOS>MOLECULE
mol5_1_29
 29 30 0 0 0
SMALL
USER_CHARGES
****
VDW energy = 155.50
@<TRIPOS>ATOM
   1 O1        3.4420    -9.1855    -5.2979  O.2     1  <O>11      -0.2866
   2 C1        2.8552    -9.8129    -4.4288  C.2     1  <O>11       0.1961
   3 C2        1.4620   -10.1610    -4.6040  C.ar    1  <O>11       0.0282
   4 C3        0.5946   -10.0836    -3.5127  C.ar    1  <O>11      -0.0056
   5 C4       -0.7516   -10.4308    -3.6728  C.ar    1  <O>11       0.1612
   6 O2       -1.5562   -10.3626    -2.6610  O.3     1  <O>11      -0.5032
   7 C5       -1.2274   -10.8492    -4.9180  C.ar    1  <O>11       0.1889
   8 O3       -2.4698   -11.1734    -5.0709  O.3     1  <O>11      -0.5018
   9 C6       -0.3466   -10.9162    -6.0041  C.ar    1  <O>11       0.1671
  10 N1       -0.8430   -11.3472    -7.2861  N.4     1  <O>11       0.0097
  11 O4       -2.2400   -10.9766    -7.4124  O.2     1  <O>11      -0.1299
  12 O5       -0.7132   -12.7869    -7.3967  O.2     1  <O>11      -0.3960
  13 C7        0.9963   -10.5701    -5.8555  C.ar    1  <O>11      -0.0169
  14 C8        3.5590   -10.2100    -3.2160  C.ar    1  <O>11       0.0574
  15 C9        4.5692   -11.1854    -3.2704  C.ar    1  <O>11      -0.0481
  16 C10       5.2359   -11.5754    -2.1033  C.ar    1  <O>11      -0.0609
  17 C11       4.9055   -10.9928    -0.8765  C.ar    1  <O>11      -0.0590
  18 C12       3.9042   -10.0171    -0.8244  C.ar    1  <O>11      -0.0257
  19 C13       3.2339    -9.6205    -1.9829  C.ar    1  <O>11       0.1342
  20 F1        2.2579    -8.6587    -1.9340  F       1  <O>11      -0.2047
  21 H1       -2.4465   -10.6346    -2.9372  H       1  <O>11       0.2923
  22 H2       -2.6249   -11.4371    -5.9915  H       1  <O>11       0.2924
  23 H3        0.9443    -9.7720    -2.5930  H       1  <O>11       0.0662
  24 H4        0.1318   -13.1872    -7.3357  H       1  <O>11       0.3292
  25 H5        1.6390   -10.6159    -6.6616  H       1  <O>11       0.0649
  26 H6        4.8203   -11.6156    -4.1742  H       1  <O>11       0.0625
  27 H7        5.9739   -12.2954    -2.1487  H       1  <O>11       0.0618
  28 H8        5.3964   -11.2803    -0.0155  H       1  <O>11       0.0618
  29 H9        3.6585    -9.5858     0.0804  H       1  <O>11       0.0646
@<TRIPOS>BOND
     1     1     2    2
     2     2     3    1
     3     3     4   ar
     4     4     5   ar
     5     5     6    1
     6     5     7   ar
     7     7     8    1
     8     7     9   ar
     9     9    10    1
    10    10    11    2
    11    10    12    1
    12     9    13   ar
    13     3    13   ar
    14     2    14    1
    15    14    15   ar
    16    15    16   ar
    17    16    17   ar
    18    17    18   ar
    19    18    19   ar
    20    14    19   ar
    21    19    20    1
    22     6    21    1
    23     8    22    1
    24     4    23    1
    25    12    24    1
    26    13    25    1
    27    15    26    1
    28    16    27    1
    29    17    28    1
    30    18    29    1
@<TRIPOS>MOLECULE
mol5_1_30
 29 30 0 0 0
SMALL
USER_CHARGES
****
VDW energy = 158.39
@<TRIPOS>ATOM
   1 O1        3.4420    -9.1855    -5.2979  O.2     1  <O>11      -0.2866
   2 C1        2.8552    -9.8129    -4.4288  C.2     1  <O>11       0.1961
   3 C2        1.4620   -10.1610    -4.6040  C.ar    1  <O>11       0.0282
   4 C3        0.5946   -10.0836    -3.5127  C.ar    1  <O>11      -0.0056
   5 C4       -0.7516   -10.4308    -3.6728  C.ar    1  <O>11       0.1612
   6 O2       -1.5562   -10.3626    -2.6610  O.3     1  <O>11      -0.5032
   7 C5       -1.2274   -10.8492    -4.9180  C.ar    1  <O>11       0.1889
   8 O3       -2.4698   -11.1734    -5.0709  O.3     1  <O>11      -0.5018
   9 C6       -0.3466   -10.9162    -6.0041  C.ar    1  <O>11       0.1671
  10 N1       -0.8430   -11.3472    -7.2861  N.4     1  <O>11       0.0097
  11 O4       -1.3768   -12.6913    -7.1701  O.2     1  <O>11      -0.1299
  12 O5        0.2382   -11.3385    -8.2519  O.2     1  <O>11      -0.3960
  13 C7        0.9963   -10.5701    -5.8555  C.ar    1  <O>11      -0.0169
  14 C8        3.5590   -10.2100    -3.2160  C.ar    1  <O>11       0.0574
  15 C9        4.5692   -11.1854    -3.2704  C.ar    1  <O>11      -0.0481
  16 C10       5.2359   -11.5754    -2.1033  C.ar    1  <O>11      -0.0609
  17 C11       4.9055   -10.9928    -0.8765  C.ar    1  <O>11      -0.0590
  18 C12       3.9042   -10.0171    -0.8244  C.ar    1  <O>11      -0.0257
  19 C13       3.2339    -9.6205    -1.9829  C.ar    1  <O>11       0.1342
  20 F1        2.2579    -8.6587    -1.9340  F       1  <O>11      -0.2047
  21 H1       -2.4465   -10.6346    -2.9372  H       1  <O>11       0.2923
  22 H2       -2.6249   -11.4371    -5.9915  H       1  <O>11       0.2924
  23 H3        0.9443    -9.7720    -2.5930  H       1  <O>11       0.0662
  24 H4        0.6904   -10.5401    -8.4418  H       1  <O>11       0.3292
  25 H5        1.6390   -10.6159    -6.6616  H       1  <O>11       0.0649
  26 H6        4.8203   -11.6156    -4.1742  H       1  <O>11       0.0625
  27 H7        5.9739   -12.2954    -2.1487  H       1  <O>11       0.0618
  28 H8        5.3964   -11.2803    -0.0155  H       1  <O>11       0.0618
  29 H9        3.6585    -9.5858     0.0804  H       1  <O>11       0.0646
@<TRIPOS>BOND
     1     1     2    2
     2     2     3    1
     3     3     4   ar
     4     4     5   ar
     5     5     6    1
     6     5     7   ar
     7     7     8    1
     8     7     9   ar
     9     9    10    1
    10    10    11    2
    11    10    12    1
    12     9    13   ar
    13     3    13   ar
    14     2    14    1
    15    14    15   ar
    16    15    16   ar
    17    16    17   ar
    18    17    18   ar
    19    18    19   ar
    20    14    19   ar
    21    19    20    1
    22     6    21    1
    23     8    22    1
    24     4    23    1
    25    12    24    1
    26    13    25    1
    27    15    26    1
    28    16    27    1
    29    17    28    1
    30    18    29    1
