@<TRIPOS>MOLECULE
mol50_1_1
 34 36 0 0 0
SMALL
USER_CHARGES
****
VDW energy = 1.72
@<TRIPOS>ATOM
   1 O1        3.3127    -9.0776    -5.5893  O.2     1  <O>11      -0.1300
   2 N1        2.8495    -9.8143    -4.4295  N.4     1  <O>11       0.0061
   3 O2        3.6348   -11.0240    -4.2799  O.2     1  <O>11      -0.3961
   4 C1        1.4620   -10.1610    -4.6040  C.ar    1  <O>11       0.1251
   5 C2        0.7715   -10.7699    -3.5541  C.ar    1  <O>11      -0.0314
   6 C3       -0.5731   -11.1203    -3.7207  C.ar    1  <O>11      -0.0561
   7 C4       -1.2228   -10.8606    -4.9303  C.ar    1  <O>11      -0.0191
   8 C5       -0.5193   -10.2452    -5.9712  C.ar    1  <O>11       0.1340
   9 O3       -1.1595    -9.9923    -7.1517  O.3     1  <O>11      -0.4235
  10 C6       -1.7350    -8.7432    -7.1040  C.ar    1  <O>11       0.3239
  11 N2       -1.0179    -7.6731    -7.5177  N.ar    1  <O>11      -0.2030
  12 C7       -1.6025    -6.4623    -7.4618  C.ar    1  <O>11       0.0350
  13 C8       -2.8801    -6.2573    -7.0085  C.ar    1  <O>11      -0.0173
  14 C9       -3.5426    -7.3885    -6.6064  C.ar    1  <O>11       0.0778
  15 C10      -4.8773    -7.2828    -6.1164  C.ar    1  <O>11       0.0006
  16 C11      -5.9246    -7.9626    -6.7596  C.ar    1  <O>11      -0.0526
  17 C12      -7.2365    -7.8497    -6.2856  C.ar    1  <O>11      -0.0611
  18 C13      -7.5139    -7.0596    -5.1659  C.ar    1  <O>11      -0.0617
  19 C14      -6.4698    -6.3867    -4.5230  C.ar    1  <O>11      -0.0611
  20 C15      -5.1575    -6.4979    -4.9855  C.ar    1  <O>11      -0.0526
  21 N3       -3.0014    -8.6216    -6.6430  N.ar    1  <O>11      -0.1946
  22 C16       0.8212    -9.8900    -5.8138  C.ar    1  <O>11       0.0108
  23 H1        4.5620   -10.9684    -4.1569  H       1  <O>11       0.3292
  24 H2        1.2502   -10.9605    -2.6599  H       1  <O>11       0.0640
  25 H3       -1.0865   -11.5719    -2.9477  H       1  <O>11       0.0619
  26 H4       -2.2137   -11.1207    -5.0548  H       1  <O>11       0.0654
  27 H5       -1.0595    -5.6433    -7.7773  H       1  <O>11       0.0832
  28 H6       -3.3115    -5.3205    -6.9726  H       1  <O>11       0.0654
  29 H7       -5.7256    -8.5482    -7.5858  H       1  <O>11       0.0624
  30 H8       -8.0013    -8.3511    -6.7638  H       1  <O>11       0.0618
  31 H9       -8.4812    -6.9737    -4.8166  H       1  <O>11       0.0618
  32 H10      -6.6720    -5.8013    -3.6975  H       1  <O>11       0.0618
  33 H11      -4.3940    -6.0043    -4.4972  H       1  <O>11       0.0624
  34 H12       1.3332    -9.4317    -6.5839  H       1  <O>11       0.0677
@<TRIPOS>BOND
     1     1     2    2
     2     2     3    1
     3     2     4    1
     4     4     5   ar
     5     5     6   ar
     6     6     7   ar
     7     7     8   ar
     8     8     9    1
     9     9    10    1
    10    10    11   ar
    11    11    12   ar
    12    12    13   ar
    13    13    14   ar
    14    14    15    1
    15    15    16   ar
    16    16    17   ar
    17    17    18   ar
    18    18    19   ar
    19    19    20   ar
    20    15    20   ar
    21    14    21   ar
    22    10    21   ar
    23     8    22   ar
    24     4    22   ar
    25     3    23    1
    26     5    24    1
    27     6    25    1
    28     7    26    1
    29    12    27    1
    30    13    28    1
    31    16    29    1
    32    17    30    1
    33    18    31    1
    34    19    32    1
    35    20    33    1
    36    22    34    1
@<TRIPOS>MOLECULE
mol50_1_2
 34 36 0 0 0
SMALL
USER_CHARGES
****
VDW energy = 2.39
@<TRIPOS>ATOM
   1 O1        3.3127    -9.0776    -5.5893  O.2     1  <O>11      -0.1300
   2 N1        2.8495    -9.8143    -4.4295  N.4     1  <O>11       0.0061
   3 O2        3.6348   -11.0240    -4.2799  O.2     1  <O>11      -0.3961
   4 C1        1.4620   -10.1610    -4.6040  C.ar    1  <O>11       0.1251
   5 C2        0.9655   -10.3693    -5.8924  C.ar    1  <O>11      -0.0314
   6 C3       -0.3840   -10.6945    -6.0702  C.ar    1  <O>11      -0.0561
   7 C4       -1.2305   -10.8127    -4.9646  C.ar    1  <O>11      -0.0191
   8 C5       -0.7173   -10.6063    -3.6797  C.ar    1  <O>11       0.1340
   9 O3       -1.5488   -10.7242    -2.6017  O.3     1  <O>11      -0.4235
  10 C6       -2.0703   -11.9970    -2.5606  C.ar    1  <O>11       0.3239
  11 N2       -3.0999   -12.2585    -1.7226  N.ar    1  <O>11      -0.2030
  12 C7       -3.5929   -13.5104    -1.7005  C.ar    1  <O>11       0.0350
  13 C8       -3.1078   -14.5301    -2.4782  C.ar    1  <O>11      -0.0173
  14 C9       -2.0650   -14.1885    -3.3003  C.ar    1  <O>11       0.0778
  15 C10      -1.4874   -15.1782    -4.1487  C.ar    1  <O>11       0.0006
  16 C11      -1.4882   -15.0053    -5.5425  C.ar    1  <O>11      -0.0526
  17 C12      -0.9315   -15.9820    -6.3760  C.ar    1  <O>11      -0.0611
  18 C13      -0.3685   -17.1377    -5.8260  C.ar    1  <O>11      -0.0617
  19 C14      -0.3639   -17.3071    -4.4377  C.ar    1  <O>11      -0.0611
  20 C15      -0.9118   -16.3356    -3.5985  C.ar    1  <O>11      -0.0526
  21 N3       -1.5368   -12.9507    -3.3587  N.ar    1  <O>11      -0.1946
  22 C16       0.6276   -10.2838    -3.4920  C.ar    1  <O>11       0.0108
  23 H1        4.5620   -10.9684    -4.1569  H       1  <O>11       0.3292
  24 H2        1.5904   -10.2837    -6.7092  H       1  <O>11       0.0640
  25 H3       -0.7552   -10.8476    -7.0209  H       1  <O>11       0.0619
  26 H4       -2.2263   -11.0503    -5.0950  H       1  <O>11       0.0654
  27 H5       -4.3789   -13.7141    -1.0636  H       1  <O>11       0.0832
  28 H6       -3.4989   -15.4847    -2.4471  H       1  <O>11       0.0654
  29 H7       -1.9012   -14.1537    -5.9540  H       1  <O>11       0.0624
  30 H8       -0.9366   -15.8489    -7.3993  H       1  <O>11       0.0618
  31 H9        0.0403   -17.8599    -6.4396  H       1  <O>11       0.0618
  32 H10       0.0493   -18.1600    -4.0292  H       1  <O>11       0.0618
  33 H11      -0.8941   -16.4673    -2.5750  H       1  <O>11       0.0624
  34 H12       1.0011   -10.1376    -2.5411  H       1  <O>11       0.0677
@<TRIPOS>BOND
     1     1     2    2
     2     2     3    1
     3     2     4    1
     4     4     5   ar
     5     5     6   ar
     6     6     7   ar
     7     7     8   ar
     8     8     9    1
     9     9    10    1
    10    10    11   ar
    11    11    12   ar
    12    12    13   ar
    13    13    14   ar
    14    14    15    1
    15    15    16   ar
    16    16    17   ar
    17    17    18   ar
    18    18    19   ar
    19    19    20   ar
    20    15    20   ar
    21    14    21   ar
    22    10    21   ar
    23     8    22   ar
    24     4    22   ar
    25     3    23    1
    26     5    24    1
    27     6    25    1
    28     7    26    1
    29    12    27    1
    30    13    28    1
    31    16    29    1
    32    17    30    1
    33    18    31    1
    34    19    32    1
    35    20    33    1
    36    22    34    1
@<TRIPOS>MOLECULE
mol50_1_3
 34 36 0 0 0
SMALL
USER_CHARGES
****
VDW energy = 4.19
@<TRIPOS>ATOM
   1 O1        3.3127    -9.0776    -5.5893  O.2     1  <O>11      -0.1300
   2 N1        2.8495    -9.8143    -4.4295  N.4     1  <O>11       0.0061
   3 O2        3.6348   -11.0240    -4.2799  O.2     1  <O>11      -0.3961
   4 C1        1.4620   -10.1610    -4.6040  C.ar    1  <O>11       0.1251
   5 C2        0.5542    -9.1748    -4.9956  C.ar    1  <O>11      -0.0314
   6 C3       -0.7971    -9.5018    -5.1554  C.ar    1  <O>11      -0.0561
   7 C4       -1.2363   -10.8085    -4.9266  C.ar    1  <O>11      -0.0191
   8 C5       -0.3141   -11.7868    -4.5400  C.ar    1  <O>11       0.1340
   9 O3       -0.7484   -13.0635    -4.3187  O.3     1  <O>11      -0.4235
  10 C6       -0.6789   -13.7821    -5.4902  C.ar    1  <O>11       0.3239
  11 N2       -1.2852   -14.9898    -5.5571  N.ar    1  <O>11      -0.2030
  12 C7       -1.2035   -15.6733    -6.7134  C.ar    1  <O>11       0.0350
  13 C8       -0.5402   -15.2126    -7.8213  C.ar    1  <O>11      -0.0173
  14 C9        0.0488   -13.9829    -7.6765  C.ar    1  <O>11       0.0778
  15 C10       0.7651   -13.4150    -8.7707  C.ar    1  <O>11       0.0006
  16 C11       0.3687   -12.1821    -9.3141  C.ar    1  <O>11      -0.0526
  17 C12       1.0647   -11.6302   -10.3956  C.ar    1  <O>11      -0.0611
  18 C13       2.1620   -12.3025   -10.9424  C.ar    1  <O>11      -0.0617
  19 C14       2.5590   -13.5281   -10.3978  C.ar    1  <O>11      -0.0611
  20 C15       1.8742   -14.0833    -9.3156  C.ar    1  <O>11      -0.0526
  21 N3       -0.0046   -13.2603    -6.5409  N.ar    1  <O>11      -0.1946
  22 C16       1.0360   -11.4710    -4.3802  C.ar    1  <O>11       0.0108
  23 H1        4.5620   -10.9684    -4.1569  H       1  <O>11       0.3292
  24 H2        0.8781    -8.2100    -5.1662  H       1  <O>11       0.0640
  25 H3       -1.4715    -8.7755    -5.4430  H       1  <O>11       0.0619
  26 H4       -2.2330   -11.0499    -5.0421  H       1  <O>11       0.0654
  27 H5       -1.6654   -16.5945    -6.7692  H       1  <O>11       0.0832
  28 H6       -0.4880   -15.7518    -8.6997  H       1  <O>11       0.0654
  29 H7       -0.4397   -11.6807    -8.9139  H       1  <O>11       0.0624
  30 H8        0.7673   -10.7243   -10.7906  H       1  <O>11       0.0618
  31 H9        2.6747   -11.8978   -11.7413  H       1  <O>11       0.0618
  32 H10       3.3673   -14.0274   -10.8005  H       1  <O>11       0.0618
  33 H11       2.1822   -14.9837    -8.9161  H       1  <O>11       0.0624
  34 H12       1.7121   -12.1985    -4.0995  H       1  <O>11       0.0677
@<TRIPOS>BOND
     1     1     2    2
     2     2     3    1
     3     2     4    1
     4     4     5   ar
     5     5     6   ar
     6     6     7   ar
     7     7     8   ar
     8     8     9    1
     9     9    10    1
    10    10    11   ar
    11    11    12   ar
    12    12    13   ar
    13    13    14   ar
    14    14    15    1
    15    15    16   ar
    16    16    17   ar
    17    17    18   ar
    18    18    19   ar
    19    19    20   ar
    20    15    20   ar
    21    14    21   ar
    22    10    21   ar
    23     8    22   ar
    24     4    22   ar
    25     3    23    1
    26     5    24    1
    27     6    25    1
    28     7    26    1
    29    12    27    1
    30    13    28    1
    31    16    29    1
    32    17    30    1
    33    18    31    1
    34    19    32    1
    35    20    33    1
    36    22    34    1
@<TRIPOS>MOLECULE
mol50_1_4
 34 36 0 0 0
SMALL
USER_CHARGES
****
VDW energy = 4.30
@<TRIPOS>ATOM
   1 O1        3.3127    -9.0776    -5.5893  O.2     1  <O>11      -0.1300
   2 N1        2.8495    -9.8143    -4.4295  N.4     1  <O>11       0.0061
   3 O2        3.6348   -11.0240    -4.2799  O.2     1  <O>11      -0.3961
   4 C1        1.4620   -10.1610    -4.6040  C.ar    1  <O>11       0.1251
   5 C2        0.5542    -9.1748    -4.9956  C.ar    1  <O>11      -0.0314
   6 C3       -0.7971    -9.5018    -5.1554  C.ar    1  <O>11      -0.0561
   7 C4       -1.2363   -10.8085    -4.9266  C.ar    1  <O>11      -0.0191
   8 C5       -0.3141   -11.7868    -4.5400  C.ar    1  <O>11       0.1340
   9 O3       -0.7484   -13.0635    -4.3187  O.3     1  <O>11      -0.4235
  10 C6       -1.1100   -13.2036    -2.9984  C.ar    1  <O>11       0.3239
  11 N2       -1.3364   -14.4438    -2.5072  N.ar    1  <O>11      -0.2030
  12 C7       -1.6884   -14.5551    -1.2131  C.ar    1  <O>11       0.0350
  13 C8       -1.8302   -13.4825    -0.3709  C.ar    1  <O>11      -0.0173
  14 C9       -1.5849   -12.2597    -0.9408  C.ar    1  <O>11       0.0778
  15 C10      -1.7067   -11.0800    -0.1495  C.ar    1  <O>11       0.0006
  16 C11      -0.6024   -10.2317     0.0331  C.ar    1  <O>11      -0.0526
  17 C12      -0.7188    -9.0797     0.8193  C.ar    1  <O>11      -0.0611
  18 C13      -1.9374    -8.7641     1.4279  C.ar    1  <O>11      -0.0617
  19 C14      -3.0380    -9.6068     1.2418  C.ar    1  <O>11      -0.0611
  20 C15      -2.9325   -10.7548     0.4548  C.ar    1  <O>11      -0.0526
  21 N3       -1.2301   -12.0962    -2.2300  N.ar    1  <O>11      -0.1946
  22 C16       1.0360   -11.4710    -4.3802  C.ar    1  <O>11       0.0108
  23 H1        4.5620   -10.9684    -4.1569  H       1  <O>11       0.3292
  24 H2        0.8781    -8.2100    -5.1662  H       1  <O>11       0.0640
  25 H3       -1.4715    -8.7755    -5.4430  H       1  <O>11       0.0619
  26 H4       -2.2330   -11.0499    -5.0421  H       1  <O>11       0.0654
  27 H5       -1.8611   -15.4992    -0.8340  H       1  <O>11       0.0832
  28 H6       -2.1016   -13.5877     0.6191  H       1  <O>11       0.0654
  29 H7        0.2993   -10.4589    -0.4146  H       1  <O>11       0.0624
  30 H8        0.0971    -8.4615     0.9502  H       1  <O>11       0.0618
  31 H9       -2.0240    -7.9161     2.0097  H       1  <O>11       0.0618
  32 H10      -3.9380    -9.3772     1.6913  H       1  <O>11       0.0618
  33 H11      -3.7541   -11.3640     0.3170  H       1  <O>11       0.0624
  34 H12       1.7121   -12.1985    -4.0995  H       1  <O>11       0.0677
@<TRIPOS>BOND
     1     1     2    2
     2     2     3    1
     3     2     4    1
     4     4     5   ar
     5     5     6   ar
     6     6     7   ar
     7     7     8   ar
     8     8     9    1
     9     9    10    1
    10    10    11   ar
    11    11    12   ar
    12    12    13   ar
    13    13    14   ar
    14    14    15    1
    15    15    16   ar
    16    16    17   ar
    17    17    18   ar
    18    18    19   ar
    19    19    20   ar
    20    15    20   ar
    21    14    21   ar
    22    10    21   ar
    23     8    22   ar
    24     4    22   ar
    25     3    23    1
    26     5    24    1
    27     6    25    1
    28     7    26    1
    29    12    27    1
    30    13    28    1
    31    16    29    1
    32    17    30    1
    33    18    31    1
    34    19    32    1
    35    20    33    1
    36    22    34    1
@<TRIPOS>MOLECULE
mol50_1_5
 34 36 0 0 0
SMALL
USER_CHARGES
****
VDW energy = 5.01
@<TRIPOS>ATOM
   1 O1        3.3127    -9.0776    -5.5893  O.2     1  <O>11      -0.1300
   2 N1        2.8495    -9.8143    -4.4295  N.4     1  <O>11       0.0061
   3 O2        3.6348   -11.0240    -4.2799  O.2     1  <O>11      -0.3961
   4 C1        1.4620   -10.1610    -4.6040  C.ar    1  <O>11       0.1251
   5 C2        0.5542    -9.1748    -4.9956  C.ar    1  <O>11      -0.0314
   6 C3       -0.7971    -9.5018    -5.1554  C.ar    1  <O>11      -0.0561
   7 C4       -1.2363   -10.8085    -4.9266  C.ar    1  <O>11      -0.0191
   8 C5       -0.3141   -11.7868    -4.5400  C.ar    1  <O>11       0.1340
   9 O3       -0.7484   -13.0635    -4.3187  O.3     1  <O>11      -0.4235
  10 C6       -0.6789   -13.7821    -5.4902  C.ar    1  <O>11       0.3239
  11 N2       -1.3919   -13.3634    -6.5611  N.ar    1  <O>11      -0.2030
  12 C7       -1.3074   -14.0825    -7.6954  C.ar    1  <O>11       0.0350
  13 C8       -0.5413   -15.2126    -7.8214  C.ar    1  <O>11      -0.0173
  14 C9        0.1511   -15.5740    -6.6944  C.ar    1  <O>11       0.0778
  15 C10       0.9765   -16.7363    -6.7208  C.ar    1  <O>11       0.0006
  16 C11       2.3537   -16.6337    -6.4656  C.ar    1  <O>11      -0.0526
  17 C12       3.1659   -17.7728    -6.5029  C.ar    1  <O>11      -0.0611
  18 C13       2.6108   -19.0228    -6.7933  C.ar    1  <O>11      -0.0617
  19 C14       1.2384   -19.1250    -7.0427  C.ar    1  <O>11      -0.0611
  20 C15       0.4198   -17.9951    -7.0022  C.ar    1  <O>11      -0.0526
  21 N3        0.0996   -14.8879    -5.5363  N.ar    1  <O>11      -0.1946
  22 C16       1.0360   -11.4710    -4.3802  C.ar    1  <O>11       0.0108
  23 H1        4.5620   -10.9684    -4.1569  H       1  <O>11       0.3292
  24 H2        0.8781    -8.2100    -5.1662  H       1  <O>11       0.0640
  25 H3       -1.4715    -8.7755    -5.4430  H       1  <O>11       0.0619
  26 H4       -2.2330   -11.0499    -5.0421  H       1  <O>11       0.0654
  27 H5       -1.8488   -13.7662    -8.5151  H       1  <O>11       0.0832
  28 H6       -0.4894   -15.7515    -8.7000  H       1  <O>11       0.0654
  29 H7        2.7688   -15.7139    -6.2495  H       1  <O>11       0.0624
  30 H8        4.1774   -17.6900    -6.3155  H       1  <O>11       0.0618
  31 H9        3.2090   -19.8633    -6.8233  H       1  <O>11       0.0618
  32 H10       0.8264   -20.0460    -7.2592  H       1  <O>11       0.0618
  33 H11      -0.5931   -18.0843    -7.1787  H       1  <O>11       0.0624
  34 H12       1.7121   -12.1985    -4.0995  H       1  <O>11       0.0677
@<TRIPOS>BOND
     1     1     2    2
     2     2     3    1
     3     2     4    1
     4     4     5   ar
     5     5     6   ar
     6     6     7   ar
     7     7     8   ar
     8     8     9    1
     9     9    10    1
    10    10    11   ar
    11    11    12   ar
    12    12    13   ar
    13    13    14   ar
    14    14    15    1
    15    15    16   ar
    16    16    17   ar
    17    17    18   ar
    18    18    19   ar
    19    19    20   ar
    20    15    20   ar
    21    14    21   ar
    22    10    21   ar
    23     8    22   ar
    24     4    22   ar
    25     3    23    1
    26     5    24    1
    27     6    25    1
    28     7    26    1
    29    12    27    1
    30    13    28    1
    31    16    29    1
    32    17    30    1
    33    18    31    1
    34    19    32    1
    35    20    33    1
    36    22    34    1
@<TRIPOS>MOLECULE
mol50_1_6
 34 36 0 0 0
SMALL
USER_CHARGES
****
VDW energy = 5.58
@<TRIPOS>ATOM
   1 O1        3.3127    -9.0776    -5.5893  O.2     1  <O>11      -0.1300
   2 N1        2.8495    -9.8143    -4.4295  N.4     1  <O>11       0.0061
   3 O2        3.6348   -11.0240    -4.2799  O.2     1  <O>11      -0.3961
   4 C1        1.4620   -10.1610    -4.6040  C.ar    1  <O>11       0.1251
   5 C2        0.5542    -9.1748    -4.9956  C.ar    1  <O>11      -0.0314
   6 C3       -0.7971    -9.5018    -5.1554  C.ar    1  <O>11      -0.0561
   7 C4       -1.2363   -10.8085    -4.9266  C.ar    1  <O>11      -0.0191
   8 C5       -0.3141   -11.7868    -4.5400  C.ar    1  <O>11       0.1340
   9 O3       -0.7484   -13.0635    -4.3187  O.3     1  <O>11      -0.4235
  10 C6       -0.6789   -13.7821    -5.4902  C.ar    1  <O>11       0.3239
  11 N2        0.4583   -14.4544    -5.7821  N.ar    1  <O>11      -0.2030
  12 C7        0.5019   -15.1501    -6.9332  C.ar    1  <O>11       0.0350
  13 C8       -0.5403   -15.2118    -7.8219  C.ar    1  <O>11      -0.0173
  14 C9       -1.6573   -14.5049    -7.4575  C.ar    1  <O>11       0.0778
  15 C10      -2.7967   -14.5030    -8.3145  C.ar    1  <O>11       0.0006
  16 C11      -4.0314   -14.9883    -7.8536  C.ar    1  <O>11      -0.0526
  17 C12      -5.1471   -14.9972    -8.6985  C.ar    1  <O>11      -0.0611
  18 C13      -5.0405   -14.5208   -10.0087  C.ar    1  <O>11      -0.0617
  19 C14      -3.8118   -14.0333   -10.4656  C.ar    1  <O>11      -0.0611
  20 C15      -2.6952   -14.0155    -9.6282  C.ar    1  <O>11      -0.0526
  21 N3       -1.7500   -13.7939    -6.3171  N.ar    1  <O>11      -0.1946
  22 C16       1.0360   -11.4710    -4.3802  C.ar    1  <O>11       0.0108
  23 H1        4.5620   -10.9684    -4.1569  H       1  <O>11       0.3292
  24 H2        0.8781    -8.2100    -5.1662  H       1  <O>11       0.0640
  25 H3       -1.4715    -8.7755    -5.4430  H       1  <O>11       0.0619
  26 H4       -2.2330   -11.0499    -5.0421  H       1  <O>11       0.0654
  27 H5        1.3670   -15.6653    -7.1594  H       1  <O>11       0.0832
  28 H6       -0.4880   -15.7505    -8.7005  H       1  <O>11       0.0654
  29 H7       -4.1164   -15.3401    -6.8871  H       1  <O>11       0.0624
  30 H8       -6.0510   -15.3563    -8.3535  H       1  <O>11       0.0618
  31 H9       -5.8618   -14.5288   -10.6336  H       1  <O>11       0.0618
  32 H10      -3.7298   -13.6828   -11.4328  H       1  <O>11       0.0618
  33 H11      -1.7961   -13.6446    -9.9735  H       1  <O>11       0.0624
  34 H12       1.7121   -12.1985    -4.0995  H       1  <O>11       0.0677
@<TRIPOS>BOND
     1     1     2    2
     2     2     3    1
     3     2     4    1
     4     4     5   ar
     5     5     6   ar
     6     6     7   ar
     7     7     8   ar
     8     8     9    1
     9     9    10    1
    10    10    11   ar
    11    11    12   ar
    12    12    13   ar
    13    13    14   ar
    14    14    15    1
    15    15    16   ar
    16    16    17   ar
    17    17    18   ar
    18    18    19   ar
    19    19    20   ar
    20    15    20   ar
    21    14    21   ar
    22    10    21   ar
    23     8    22   ar
    24     4    22   ar
    25     3    23    1
    26     5    24    1
    27     6    25    1
    28     7    26    1
    29    12    27    1
    30    13    28    1
    31    16    29    1
    32    17    30    1
    33    18    31    1
    34    19    32    1
    35    20    33    1
    36    22    34    1
@<TRIPOS>MOLECULE
mol50_1_7
 34 36 0 0 0
SMALL
USER_CHARGES
****
VDW energy = 5.86
@<TRIPOS>ATOM
   1 O1        3.3127    -9.0776    -5.5893  O.2     1  <O>11      -0.1300
   2 N1        2.8495    -9.8143    -4.4295  N.4     1  <O>11       0.0061
   3 O2        3.6348   -11.0240    -4.2799  O.2     1  <O>11      -0.3961
   4 C1        1.4620   -10.1610    -4.6040  C.ar    1  <O>11       0.1251
   5 C2        0.5542    -9.1748    -4.9956  C.ar    1  <O>11      -0.0314
   6 C3       -0.7971    -9.5018    -5.1554  C.ar    1  <O>11      -0.0561
   7 C4       -1.2363   -10.8085    -4.9266  C.ar    1  <O>11      -0.0191
   8 C5       -0.3141   -11.7868    -4.5400  C.ar    1  <O>11       0.1340
   9 O3       -0.7484   -13.0635    -4.3187  O.3     1  <O>11      -0.4235
  10 C6       -1.1100   -13.2036    -2.9984  C.ar    1  <O>11       0.3239
  11 N2       -2.0944   -12.4206    -2.5001  N.ar    1  <O>11      -0.2030
  12 C7       -2.4304   -12.5764    -1.2063  C.ar    1  <O>11       0.0350
  13 C8       -1.8292   -13.4819    -0.3706  C.ar    1  <O>11      -0.0173
  14 C9       -0.8412   -14.2380    -0.9471  C.ar    1  <O>11       0.0778
  15 C10      -0.1522   -15.2084    -0.1619  C.ar    1  <O>11       0.0006
  16 C11      -0.1830   -16.5649    -0.5241  C.ar    1  <O>11      -0.0526
  17 C12       0.4837   -17.5190     0.2530  C.ar    1  <O>11      -0.0611
  18 C13       1.1873   -17.1275     1.3961  C.ar    1  <O>11      -0.0617
  19 C14       1.2215   -15.7758     1.7536  C.ar    1  <O>11      -0.0611
  20 C15       0.5641   -14.8166     0.9814  C.ar    1  <O>11      -0.0526
  21 N3       -0.4689   -14.1197    -2.2363  N.ar    1  <O>11      -0.1946
  22 C16       1.0360   -11.4710    -4.3802  C.ar    1  <O>11       0.0108
  23 H1        4.5620   -10.9684    -4.1569  H       1  <O>11       0.3292
  24 H2        0.8781    -8.2100    -5.1662  H       1  <O>11       0.0640
  25 H3       -1.4715    -8.7755    -5.4430  H       1  <O>11       0.0619
  26 H4       -2.2330   -11.0499    -5.0421  H       1  <O>11       0.0654
  27 H5       -3.1815   -11.9820    -0.8223  H       1  <O>11       0.0832
  28 H6       -2.1003   -13.5867     0.6196  H       1  <O>11       0.0654
  29 H7       -0.6997   -16.8596    -1.3674  H       1  <O>11       0.0624
  30 H8        0.4559   -18.5143    -0.0184  H       1  <O>11       0.0618
  31 H9        1.6775   -17.8303     1.9713  H       1  <O>11       0.0618
  32 H10       1.7385   -15.4843     2.5978  H       1  <O>11       0.0618
  33 H11       0.6043   -13.8210     1.2499  H       1  <O>11       0.0624
  34 H12       1.7121   -12.1985    -4.0995  H       1  <O>11       0.0677
@<TRIPOS>BOND
     1     1     2    2
     2     2     3    1
     3     2     4    1
     4     4     5   ar
     5     5     6   ar
     6     6     7   ar
     7     7     8   ar
     8     8     9    1
     9     9    10    1
    10    10    11   ar
    11    11    12   ar
    12    12    13   ar
    13    13    14   ar
    14    14    15    1
    15    15    16   ar
    16    16    17   ar
    17    17    18   ar
    18    18    19   ar
    19    19    20   ar
    20    15    20   ar
    21    14    21   ar
    22    10    21   ar
    23     8    22   ar
    24     4    22   ar
    25     3    23    1
    26     5    24    1
    27     6    25    1
    28     7    26    1
    29    12    27    1
    30    13    28    1
    31    16    29    1
    32    17    30    1
    33    18    31    1
    34    19    32    1
    35    20    33    1
    36    22    34    1
@<TRIPOS>MOLECULE
mol50_1_8
 34 36 0 0 0
SMALL
USER_CHARGES
****
VDW energy = 5.96
@<TRIPOS>ATOM
   1 O1        3.3127    -9.0776    -5.5893  O.2     1  <O>11      -0.1300
   2 N1        2.8495    -9.8143    -4.4295  N.4     1  <O>11       0.0061
   3 O2        3.6348   -11.0240    -4.2799  O.2     1  <O>11      -0.3961
   4 C1        1.4620   -10.1610    -4.6040  C.ar    1  <O>11       0.1251
   5 C2        0.5542    -9.1748    -4.9956  C.ar    1  <O>11      -0.0314
   6 C3       -0.7971    -9.5018    -5.1554  C.ar    1  <O>11      -0.0561
   7 C4       -1.2363   -10.8085    -4.9266  C.ar    1  <O>11      -0.0191
   8 C5       -0.3141   -11.7868    -4.5400  C.ar    1  <O>11       0.1340
   9 O3       -0.7484   -13.0635    -4.3187  O.3     1  <O>11      -0.4235
  10 C6       -1.1100   -13.2036    -2.9984  C.ar    1  <O>11       0.3239
  11 N2       -0.1785   -13.5997    -2.1005  N.ar    1  <O>11      -0.2030
  12 C7       -0.5562   -13.7292    -0.8154  C.ar    1  <O>11       0.0350
  13 C8       -1.8296   -13.4831    -0.3708  C.ar    1  <O>11      -0.0173
  14 C9       -2.7166   -13.0868    -1.3385  C.ar    1  <O>11       0.0778
  15 C10      -4.0678   -12.8076    -0.9795  C.ar    1  <O>11       0.0006
  16 C11      -4.6117   -11.5321    -1.2029  C.ar    1  <O>11      -0.0526
  17 C12      -5.9346   -11.2547    -0.8399  C.ar    1  <O>11      -0.0611
  18 C13      -6.7255   -12.2471    -0.2530  C.ar    1  <O>11      -0.0617
  19 C14      -6.1847   -13.5185    -0.0351  C.ar    1  <O>11      -0.0611
  20 C15      -4.8681   -13.8057    -0.3990  C.ar    1  <O>11      -0.0526
  21 N3       -2.3875   -12.9426    -2.6368  N.ar    1  <O>11      -0.1946
  22 C16       1.0360   -11.4710    -4.3802  C.ar    1  <O>11       0.0108
  23 H1        4.5620   -10.9684    -4.1569  H       1  <O>11       0.3292
  24 H2        0.8781    -8.2100    -5.1662  H       1  <O>11       0.0640
  25 H3       -1.4715    -8.7755    -5.4430  H       1  <O>11       0.0619
  26 H4       -2.2330   -11.0499    -5.0421  H       1  <O>11       0.0654
  27 H5        0.1513   -14.0301    -0.1269  H       1  <O>11       0.0832
  28 H6       -2.1007   -13.5884     0.6193  H       1  <O>11       0.0654
  29 H7       -4.0331   -10.7960    -1.6368  H       1  <O>11       0.0624
  30 H8       -6.3274   -10.3149    -1.0059  H       1  <O>11       0.0618
  31 H9       -7.7004   -12.0432     0.0172  H       1  <O>11       0.0618
  32 H10      -6.7656   -14.2523     0.3996  H       1  <O>11       0.0618
  33 H11      -4.4830   -14.7503    -0.2419  H       1  <O>11       0.0624
  34 H12       1.7121   -12.1985    -4.0995  H       1  <O>11       0.0677
@<TRIPOS>BOND
     1     1     2    2
     2     2     3    1
     3     2     4    1
     4     4     5   ar
     5     5     6   ar
     6     6     7   ar
     7     7     8   ar
     8     8     9    1
     9     9    10    1
    10    10    11   ar
    11    11    12   ar
    12    12    13   ar
    13    13    14   ar
    14    14    15    1
    15    15    16   ar
    16    16    17   ar
    17    17    18   ar
    18    18    19   ar
    19    19    20   ar
    20    15    20   ar
    21    14    21   ar
    22    10    21   ar
    23     8    22   ar
    24     4    22   ar
    25     3    23    1
    26     5    24    1
    27     6    25    1
    28     7    26    1
    29    12    27    1
    30    13    28    1
    31    16    29    1
    32    17    30    1
    33    18    31    1
    34    19    32    1
    35    20    33    1
    36    22    34    1
@<TRIPOS>MOLECULE
mol50_1_9
 34 36 0 0 0
SMALL
USER_CHARGES
****
VDW energy = 6.27
@<TRIPOS>ATOM
   1 O1        3.3127    -9.0776    -5.5893  O.2     1  <O>11      -0.1300
   2 N1        2.8495    -9.8143    -4.4295  N.4     1  <O>11       0.0061
   3 O2        3.6348   -11.0240    -4.2799  O.2     1  <O>11      -0.3961
   4 C1        1.4620   -10.1610    -4.6040  C.ar    1  <O>11       0.1251
   5 C2        0.5542    -9.1748    -4.9956  C.ar    1  <O>11      -0.0314
   6 C3       -0.7971    -9.5018    -5.1554  C.ar    1  <O>11      -0.0561
   7 C4       -1.2363   -10.8085    -4.9266  C.ar    1  <O>11      -0.0191
   8 C5       -0.3141   -11.7868    -4.5400  C.ar    1  <O>11       0.1340
   9 O3       -0.7484   -13.0635    -4.3187  O.3     1  <O>11      -0.4235
  10 C6       -0.6789   -13.7821    -5.4902  C.ar    1  <O>11       0.3239
  11 N2        0.5204   -13.9336    -6.0979  N.ar    1  <O>11      -0.2030
  12 C7        0.5628   -14.6407    -7.2421  C.ar    1  <O>11       0.0350
  13 C8       -0.5407   -15.2117    -7.8219  C.ar    1  <O>11      -0.0173
  14 C9       -1.7187   -15.0143    -7.1486  C.ar    1  <O>11       0.0778
  15 C10      -2.9255   -15.5663    -7.6699  C.ar    1  <O>11       0.0006
  16 C11      -3.6692   -16.4864    -6.9131  C.ar    1  <O>11      -0.0526
  17 C12      -4.8477   -17.0370    -7.4295  C.ar    1  <O>11      -0.0611
  18 C13      -5.2944   -16.6731    -8.7035  C.ar    1  <O>11      -0.0617
  19 C14      -4.5558   -15.7532    -9.4547  C.ar    1  <O>11      -0.0611
  20 C15      -3.3822   -15.1948    -8.9455  C.ar    1  <O>11      -0.0526
  21 N3       -1.8129   -14.3150    -6.0011  N.ar    1  <O>11      -0.1946
  22 C16       1.0360   -11.4710    -4.3802  C.ar    1  <O>11       0.0108
  23 H1        4.5620   -10.9684    -4.1569  H       1  <O>11       0.3292
  24 H2        0.8781    -8.2100    -5.1662  H       1  <O>11       0.0640
  25 H3       -1.4715    -8.7755    -5.4430  H       1  <O>11       0.0619
  26 H4       -2.2330   -11.0499    -5.0421  H       1  <O>11       0.0654
  27 H5        1.4757   -14.7597    -7.7085  H       1  <O>11       0.0832
  28 H6       -0.4884   -15.7504    -8.7006  H       1  <O>11       0.0654
  29 H7       -3.3450   -16.7578    -5.9717  H       1  <O>11       0.0624
  30 H8       -5.3886   -17.7135    -6.8683  H       1  <O>11       0.0618
  31 H9       -6.1621   -17.0800    -9.0864  H       1  <O>11       0.0618
  32 H10      -4.8822   -15.4843   -10.3960  H       1  <O>11       0.0618
  33 H11      -2.8507   -14.5098    -9.5053  H       1  <O>11       0.0624
  34 H12       1.7121   -12.1985    -4.0995  H       1  <O>11       0.0677
@<TRIPOS>BOND
     1     1     2    2
     2     2     3    1
     3     2     4    1
     4     4     5   ar
     5     5     6   ar
     6     6     7   ar
     7     7     8   ar
     8     8     9    1
     9     9    10    1
    10    10    11   ar
    11    11    12   ar
    12    12    13   ar
    13    13    14   ar
    14    14    15    1
    15    15    16   ar
    16    16    17   ar
    17    17    18   ar
    18    18    19   ar
    19    19    20   ar
    20    15    20   ar
    21    14    21   ar
    22    10    21   ar
    23     8    22   ar
    24     4    22   ar
    25     3    23    1
    26     5    24    1
    27     6    25    1
    28     7    26    1
    29    12    27    1
    30    13    28    1
    31    16    29    1
    32    17    30    1
    33    18    31    1
    34    19    32    1
    35    20    33    1
    36    22    34    1
@<TRIPOS>MOLECULE
mol50_1_10
 34 36 0 0 0
SMALL
USER_CHARGES
****
VDW energy = 7.50
@<TRIPOS>ATOM
   1 O1        3.3127    -9.0776    -5.5893  O.2     1  <O>11      -0.1300
   2 N1        2.8495    -9.8143    -4.4295  N.4     1  <O>11       0.0061
   3 O2        3.6348   -11.0240    -4.2799  O.2     1  <O>11      -0.3961
   4 C1        1.4620   -10.1610    -4.6040  C.ar    1  <O>11       0.1251
   5 C2        0.5542    -9.1748    -4.9956  C.ar    1  <O>11      -0.0314
   6 C3       -0.7971    -9.5018    -5.1554  C.ar    1  <O>11      -0.0561
   7 C4       -1.2363   -10.8085    -4.9266  C.ar    1  <O>11      -0.0191
   8 C5       -0.3141   -11.7868    -4.5400  C.ar    1  <O>11       0.1340
   9 O3       -0.7484   -13.0635    -4.3187  O.3     1  <O>11      -0.4235
  10 C6       -1.3132   -13.5628    -5.4699  C.ar    1  <O>11       0.3239
  11 N2       -2.0230   -14.7130    -5.4081  N.ar    1  <O>11      -0.2030
  12 C7       -2.5659   -15.1811    -6.5470  C.ar    1  <O>11       0.0350
  13 C8       -2.4367   -14.5570    -7.7610  C.ar    1  <O>11      -0.0173
  14 C9       -1.7035   -13.3984    -7.7438  C.ar    1  <O>11       0.0778
  15 C10      -1.5086   -12.6737    -8.9560  C.ar    1  <O>11       0.0006
  16 C11      -2.4198   -11.6764    -9.3402  C.ar    1  <O>11      -0.0526
  17 C12      -2.2348   -10.9730   -10.5358  C.ar    1  <O>11      -0.0611
  18 C13      -1.1391   -11.2574   -11.3565  C.ar    1  <O>11      -0.0617
  19 C14      -0.2295   -12.2474   -10.9711  C.ar    1  <O>11      -0.0611
  20 C15      -0.4030   -12.9502    -9.7776  C.ar    1  <O>11      -0.0526
  21 N3       -1.1406   -12.8895    -6.6308  N.ar    1  <O>11      -0.1946
  22 C16       1.0360   -11.4710    -4.3802  C.ar    1  <O>11       0.0108
  23 H1        4.5620   -10.9684    -4.1569  H       1  <O>11       0.3292
  24 H2        0.8781    -8.2100    -5.1662  H       1  <O>11       0.0640
  25 H3       -1.4715    -8.7755    -5.4430  H       1  <O>11       0.0619
  26 H4       -2.2330   -11.0499    -5.0421  H       1  <O>11       0.0654
  27 H5       -3.1091   -16.0575    -6.5044  H       1  <O>11       0.0832
  28 H6       -2.8601   -14.9318    -8.6243  H       1  <O>11       0.0654
  29 H7       -3.2297   -11.4613    -8.7379  H       1  <O>11       0.0624
  30 H8       -2.9090   -10.2422   -10.8125  H       1  <O>11       0.0618
  31 H9       -1.0027   -10.7410   -12.2396  H       1  <O>11       0.0618
  32 H10       0.5791   -12.4607   -11.5758  H       1  <O>11       0.0618
  33 H11       0.2800   -13.6720    -9.4990  H       1  <O>11       0.0624
  34 H12       1.7121   -12.1985    -4.0995  H       1  <O>11       0.0677
@<TRIPOS>BOND
     1     1     2    2
     2     2     3    1
     3     2     4    1
     4     4     5   ar
     5     5     6   ar
     6     6     7   ar
     7     7     8   ar
     8     8     9    1
     9     9    10    1
    10    10    11   ar
    11    11    12   ar
    12    12    13   ar
    13    13    14   ar
    14    14    15    1
    15    15    16   ar
    16    16    17   ar
    17    17    18   ar
    18    18    19   ar
    19    19    20   ar
    20    15    20   ar
    21    14    21   ar
    22    10    21   ar
    23     8    22   ar
    24     4    22   ar
    25     3    23    1
    26     5    24    1
    27     6    25    1
    28     7    26    1
    29    12    27    1
    30    13    28    1
    31    16    29    1
    32    17    30    1
    33    18    31    1
    34    19    32    1
    35    20    33    1
    36    22    34    1
@<TRIPOS>MOLECULE
mol50_1_11
 34 36 0 0 0
SMALL
USER_CHARGES
****
VDW energy = 8.50
@<TRIPOS>ATOM
   1 O1        3.3127    -9.0776    -5.5893  O.2     1  <O>11      -0.1300
   2 N1        2.8495    -9.8143    -4.4295  N.4     1  <O>11       0.0061
   3 O2        3.6348   -11.0240    -4.2799  O.2     1  <O>11      -0.3961
   4 C1        1.4620   -10.1610    -4.6040  C.ar    1  <O>11       0.1251
   5 C2        0.5542    -9.1748    -4.9956  C.ar    1  <O>11      -0.0314
   6 C3       -0.7971    -9.5018    -5.1554  C.ar    1  <O>11      -0.0561
   7 C4       -1.2363   -10.8085    -4.9266  C.ar    1  <O>11      -0.0191
   8 C5       -0.3141   -11.7868    -4.5400  C.ar    1  <O>11       0.1340
   9 O3       -0.7484   -13.0635    -4.3187  O.3     1  <O>11      -0.4235
  10 C6       -1.6865   -13.0618    -3.3119  C.ar    1  <O>11       0.3239
  11 N2       -2.9923   -12.9078    -3.6309  N.ar    1  <O>11      -0.2030
  12 C7       -3.8908   -12.9099    -2.6290  C.ar    1  <O>11       0.0350
  13 C8       -3.5535   -13.0578    -1.3083  C.ar    1  <O>11      -0.0173
  14 C9       -2.2125   -13.2080    -1.0643  C.ar    1  <O>11       0.0778
  15 C10      -1.7574   -13.3674     0.2774  C.ar    1  <O>11       0.0006
  16 C11      -1.0579   -14.5250     0.6560  C.ar    1  <O>11      -0.0526
  17 C12      -0.6211   -14.6867     1.9757  C.ar    1  <O>11      -0.0611
  18 C13      -0.8771   -13.6949     2.9275  C.ar    1  <O>11      -0.0617
  19 C14      -1.5696   -12.5403     2.5487  C.ar    1  <O>11      -0.0611
  20 C15      -2.0041   -12.3680     1.2335  C.ar    1  <O>11      -0.0526
  21 N3       -1.2751   -13.2127    -2.0317  N.ar    1  <O>11      -0.1946
  22 C16       1.0360   -11.4710    -4.3802  C.ar    1  <O>11       0.0108
  23 H1        4.5620   -10.9684    -4.1569  H       1  <O>11       0.3292
  24 H2        0.8781    -8.2100    -5.1662  H       1  <O>11       0.0640
  25 H3       -1.4715    -8.7755    -5.4430  H       1  <O>11       0.0619
  26 H4       -2.2330   -11.0499    -5.0421  H       1  <O>11       0.0654
  27 H5       -4.8880   -12.7937    -2.8678  H       1  <O>11       0.0832
  28 H6       -4.2571   -13.0564    -0.5534  H       1  <O>11       0.0654
  29 H7       -0.8650   -15.2598    -0.0425  H       1  <O>11       0.0624
  30 H8       -0.1087   -15.5404     2.2472  H       1  <O>11       0.0618
  31 H9       -0.5575   -13.8139     3.9015  H       1  <O>11       0.0618
  32 H10      -1.7615   -11.8075     3.2496  H       1  <O>11       0.0618
  33 H11      -2.5059   -11.5075     0.9636  H       1  <O>11       0.0624
  34 H12       1.7121   -12.1985    -4.0995  H       1  <O>11       0.0677
@<TRIPOS>BOND
     1     1     2    2
     2     2     3    1
     3     2     4    1
     4     4     5   ar
     5     5     6   ar
     6     6     7   ar
     7     7     8   ar
     8     8     9    1
     9     9    10    1
    10    10    11   ar
    11    11    12   ar
    12    12    13   ar
    13    13    14   ar
    14    14    15    1
    15    15    16   ar
    16    16    17   ar
    17    17    18   ar
    18    18    19   ar
    19    19    20   ar
    20    15    20   ar
    21    14    21   ar
    22    10    21   ar
    23     8    22   ar
    24     4    22   ar
    25     3    23    1
    26     5    24    1
    27     6    25    1
    28     7    26    1
    29    12    27    1
    30    13    28    1
    31    16    29    1
    32    17    30    1
    33    18    31    1
    34    19    32    1
    35    20    33    1
    36    22    34    1
@<TRIPOS>MOLECULE
mol50_1_12
 34 36 0 0 0
SMALL
USER_CHARGES
****
VDW energy = 8.88
@<TRIPOS>ATOM
   1 O1        3.3127    -9.0776    -5.5893  O.2     1  <O>11      -0.1300
   2 N1        2.8495    -9.8143    -4.4295  N.4     1  <O>11       0.0061
   3 O2        3.6348   -11.0240    -4.2799  O.2     1  <O>11      -0.3961
   4 C1        1.4620   -10.1610    -4.6040  C.ar    1  <O>11       0.1251
   5 C2        0.5542    -9.1748    -4.9956  C.ar    1  <O>11      -0.0314
   6 C3       -0.7971    -9.5018    -5.1554  C.ar    1  <O>11      -0.0561
   7 C4       -1.2363   -10.8085    -4.9266  C.ar    1  <O>11      -0.0191
   8 C5       -0.3141   -11.7868    -4.5400  C.ar    1  <O>11       0.1340
   9 O3       -0.7484   -13.0635    -4.3187  O.3     1  <O>11      -0.4235
  10 C6       -1.3132   -13.5628    -5.4699  C.ar    1  <O>11       0.3239
  11 N2       -2.0230   -14.7130    -5.4081  N.ar    1  <O>11      -0.2030
  12 C7       -2.5659   -15.1811    -6.5470  C.ar    1  <O>11       0.0350
  13 C8       -2.4367   -14.5570    -7.7610  C.ar    1  <O>11      -0.0173
  14 C9       -1.7035   -13.3984    -7.7438  C.ar    1  <O>11       0.0778
  15 C10      -1.5086   -12.6737    -8.9560  C.ar    1  <O>11       0.0006
  16 C11      -1.9584   -11.3481    -9.0697  C.ar    1  <O>11      -0.0526
  17 C12      -1.7773   -10.6405   -10.2635  C.ar    1  <O>11      -0.0611
  18 C13      -1.1451   -11.2487   -11.3523  C.ar    1  <O>11      -0.0617
  19 C14      -0.6932   -12.5672   -11.2368  C.ar    1  <O>11      -0.0611
  20 C15      -0.8645   -13.2787   -10.0482  C.ar    1  <O>11      -0.0526
  21 N3       -1.1406   -12.8895    -6.6308  N.ar    1  <O>11      -0.1946
  22 C16       1.0360   -11.4710    -4.3802  C.ar    1  <O>11       0.0108
  23 H1        4.5620   -10.9684    -4.1569  H       1  <O>11       0.3292
  24 H2        0.8781    -8.2100    -5.1662  H       1  <O>11       0.0640
  25 H3       -1.4715    -8.7755    -5.4430  H       1  <O>11       0.0619
  26 H4       -2.2330   -11.0499    -5.0421  H       1  <O>11       0.0654
  27 H5       -3.1091   -16.0575    -6.5044  H       1  <O>11       0.0832
  28 H6       -2.8601   -14.9318    -8.6243  H       1  <O>11       0.0654
  29 H7       -2.4247   -10.8937    -8.2690  H       1  <O>11       0.0624
  30 H8       -2.1114    -9.6671   -10.3404  H       1  <O>11       0.0618
  31 H9       -1.0129   -10.7288   -12.2339  H       1  <O>11       0.0618
  32 H10      -0.2279   -13.0192   -12.0394  H       1  <O>11       0.0618
  33 H11      -0.5184   -14.2480    -9.9717  H       1  <O>11       0.0624
  34 H12       1.7121   -12.1985    -4.0995  H       1  <O>11       0.0677
@<TRIPOS>BOND
     1     1     2    2
     2     2     3    1
     3     2     4    1
     4     4     5   ar
     5     5     6   ar
     6     6     7   ar
     7     7     8   ar
     8     8     9    1
     9     9    10    1
    10    10    11   ar
    11    11    12   ar
    12    12    13   ar
    13    13    14   ar
    14    14    15    1
    15    15    16   ar
    16    16    17   ar
    17    17    18   ar
    18    18    19   ar
    19    19    20   ar
    20    15    20   ar
    21    14    21   ar
    22    10    21   ar
    23     8    22   ar
    24     4    22   ar
    25     3    23    1
    26     5    24    1
    27     6    25    1
    28     7    26    1
    29    12    27    1
    30    13    28    1
    31    16    29    1
    32    17    30    1
    33    18    31    1
    34    19    32    1
    35    20    33    1
    36    22    34    1
@<TRIPOS>MOLECULE
mol50_1_13
 34 36 0 0 0
SMALL
USER_CHARGES
****
VDW energy = 9.00
@<TRIPOS>ATOM
   1 O1        3.3127    -9.0776    -5.5893  O.2     1  <O>11      -0.1300
   2 N1        2.8495    -9.8143    -4.4295  N.4     1  <O>11       0.0061
   3 O2        3.6348   -11.0240    -4.2799  O.2     1  <O>11      -0.3961
   4 C1        1.4620   -10.1610    -4.6040  C.ar    1  <O>11       0.1251
   5 C2        0.5542    -9.1748    -4.9956  C.ar    1  <O>11      -0.0314
   6 C3       -0.7971    -9.5018    -5.1554  C.ar    1  <O>11      -0.0561
   7 C4       -1.2363   -10.8085    -4.9266  C.ar    1  <O>11      -0.0191
   8 C5       -0.3141   -11.7868    -4.5400  C.ar    1  <O>11       0.1340
   9 O3       -0.7484   -13.0635    -4.3187  O.3     1  <O>11      -0.4235
  10 C6        0.1591   -13.7265    -3.5246  C.ar    1  <O>11       0.3239
  11 N2        0.4289   -13.2426    -2.2903  N.ar    1  <O>11      -0.2030
  12 C7        1.3195   -13.9086    -1.5325  C.ar    1  <O>11       0.0350
  13 C8        1.9655   -15.0455    -1.9445  C.ar    1  <O>11      -0.0173
  14 C9        1.6408   -15.4738    -3.2059  C.ar    1  <O>11       0.0778
  15 C10       2.2593   -16.6470    -3.7293  C.ar    1  <O>11       0.0006
  16 C11       1.6712   -17.9069    -3.5313  C.ar    1  <O>11      -0.0526
  17 C12       2.2842   -19.0598    -4.0350  C.ar    1  <O>11      -0.0611
  18 C13       3.4872   -18.9649    -4.7413  C.ar    1  <O>11      -0.0617
  19 C14       4.0699   -17.7094    -4.9421  C.ar    1  <O>11      -0.0611
  20 C15       3.4627   -16.5537    -4.4481  C.ar    1  <O>11      -0.0526
  21 N3        0.7565   -14.8426    -4.0024  N.ar    1  <O>11      -0.1946
  22 C16       1.0360   -11.4710    -4.3802  C.ar    1  <O>11       0.0108
  23 H1        4.5620   -10.9684    -4.1569  H       1  <O>11       0.3292
  24 H2        0.8781    -8.2100    -5.1662  H       1  <O>11       0.0640
  25 H3       -1.4715    -8.7755    -5.4430  H       1  <O>11       0.0619
  26 H4       -2.2330   -11.0499    -5.0421  H       1  <O>11       0.0654
  27 H5        1.5275   -13.5436    -0.5899  H       1  <O>11       0.0832
  28 H6        2.6462   -15.5425    -1.3489  H       1  <O>11       0.0654
  29 H7        0.7827   -17.9829    -3.0118  H       1  <O>11       0.0624
  30 H8        1.8471   -19.9825    -3.8848  H       1  <O>11       0.0618
  31 H9        3.9415   -19.8145    -5.1113  H       1  <O>11       0.0618
  32 H10       4.9587   -17.6367    -5.4614  H       1  <O>11       0.0618
  33 H11       3.8972   -15.6318    -4.6107  H       1  <O>11       0.0624
  34 H12       1.7121   -12.1985    -4.0995  H       1  <O>11       0.0677
@<TRIPOS>BOND
     1     1     2    2
     2     2     3    1
     3     2     4    1
     4     4     5   ar
     5     5     6   ar
     6     6     7   ar
     7     7     8   ar
     8     8     9    1
     9     9    10    1
    10    10    11   ar
    11    11    12   ar
    12    12    13   ar
    13    13    14   ar
    14    14    15    1
    15    15    16   ar
    16    16    17   ar
    17    17    18   ar
    18    18    19   ar
    19    19    20   ar
    20    15    20   ar
    21    14    21   ar
    22    10    21   ar
    23     8    22   ar
    24     4    22   ar
    25     3    23    1
    26     5    24    1
    27     6    25    1
    28     7    26    1
    29    12    27    1
    30    13    28    1
    31    16    29    1
    32    17    30    1
    33    18    31    1
    34    19    32    1
    35    20    33    1
    36    22    34    1
@<TRIPOS>MOLECULE
mol50_1_14
 34 36 0 0 0
SMALL
USER_CHARGES
****
VDW energy = 10.54
@<TRIPOS>ATOM
   1 O1        3.3127    -9.0776    -5.5893  O.2     1  <O>11      -0.1300
   2 N1        2.8495    -9.8143    -4.4295  N.4     1  <O>11       0.0061
   3 O2        3.6348   -11.0240    -4.2799  O.2     1  <O>11      -0.3961
   4 C1        1.4620   -10.1610    -4.6040  C.ar    1  <O>11       0.1251
   5 C2        0.5542    -9.1748    -4.9956  C.ar    1  <O>11      -0.0314
   6 C3       -0.7971    -9.5018    -5.1554  C.ar    1  <O>11      -0.0561
   7 C4       -1.2363   -10.8085    -4.9266  C.ar    1  <O>11      -0.0191
   8 C5       -0.3141   -11.7868    -4.5400  C.ar    1  <O>11       0.1340
   9 O3       -0.7484   -13.0635    -4.3187  O.3     1  <O>11      -0.4235
  10 C6        0.1591   -13.7265    -3.5246  C.ar    1  <O>11       0.3239
  11 N2        0.4289   -13.2426    -2.2903  N.ar    1  <O>11      -0.2030
  12 C7        1.3195   -13.9086    -1.5325  C.ar    1  <O>11       0.0350
  13 C8        1.9655   -15.0455    -1.9445  C.ar    1  <O>11      -0.0173
  14 C9        1.6408   -15.4738    -3.2059  C.ar    1  <O>11       0.0778
  15 C10       2.2593   -16.6470    -3.7293  C.ar    1  <O>11       0.0006
  16 C11       3.0298   -16.5794    -4.9016  C.ar    1  <O>11      -0.0526
  17 C12       3.6274   -17.7331    -5.4217  C.ar    1  <O>11      -0.0611
  18 C13       3.4627   -18.9623    -4.7760  C.ar    1  <O>11      -0.0617
  19 C14       2.6991   -19.0280    -3.6060  C.ar    1  <O>11      -0.0611
  20 C15       2.1040   -17.8815    -3.0771  C.ar    1  <O>11      -0.0526
  21 N3        0.7565   -14.8426    -4.0024  N.ar    1  <O>11      -0.1946
  22 C16       1.0360   -11.4710    -4.3802  C.ar    1  <O>11       0.0108
  23 H1        4.5620   -10.9684    -4.1569  H       1  <O>11       0.3292
  24 H2        0.8781    -8.2100    -5.1662  H       1  <O>11       0.0640
  25 H3       -1.4715    -8.7755    -5.4430  H       1  <O>11       0.0619
  26 H4       -2.2330   -11.0499    -5.0421  H       1  <O>11       0.0654
  27 H5        1.5275   -13.5436    -0.5899  H       1  <O>11       0.0832
  28 H6        2.6462   -15.5425    -1.3489  H       1  <O>11       0.0654
  29 H7        3.1559   -15.6747    -5.3817  H       1  <O>11       0.0624
  30 H8        4.1913   -17.6764    -6.2841  H       1  <O>11       0.0618
  31 H9        3.9010   -19.8143    -5.1597  H       1  <O>11       0.0618
  32 H10       2.5743   -19.9343    -3.1285  H       1  <O>11       0.0618
  33 H11       1.5506   -17.9407    -2.2080  H       1  <O>11       0.0624
  34 H12       1.7121   -12.1985    -4.0995  H       1  <O>11       0.0677
@<TRIPOS>BOND
     1     1     2    2
     2     2     3    1
     3     2     4    1
     4     4     5   ar
     5     5     6   ar
     6     6     7   ar
     7     7     8   ar
     8     8     9    1
     9     9    10    1
    10    10    11   ar
    11    11    12   ar
    12    12    13   ar
    13    13    14   ar
    14    14    15    1
    15    15    16   ar
    16    16    17   ar
    17    17    18   ar
    18    18    19   ar
    19    19    20   ar
    20    15    20   ar
    21    14    21   ar
    22    10    21   ar
    23     8    22   ar
    24     4    22   ar
    25     3    23    1
    26     5    24    1
    27     6    25    1
    28     7    26    1
    29    12    27    1
    30    13    28    1
    31    16    29    1
    32    17    30    1
    33    18    31    1
    34    19    32    1
    35    20    33    1
    36    22    34    1
@<TRIPOS>MOLECULE
mol50_1_15
 34 36 0 0 0
SMALL
USER_CHARGES
****
VDW energy = 10.62
@<TRIPOS>ATOM
   1 O1        3.3127    -9.0776    -5.5893  O.2     1  <O>11      -0.1300
   2 N1        2.8495    -9.8143    -4.4295  N.4     1  <O>11       0.0061
   3 O2        3.6348   -11.0240    -4.2799  O.2     1  <O>11      -0.3961
   4 C1        1.4620   -10.1610    -4.6040  C.ar    1  <O>11       0.1251
   5 C2        0.5542    -9.1748    -4.9956  C.ar    1  <O>11      -0.0314
   6 C3       -0.7971    -9.5018    -5.1554  C.ar    1  <O>11      -0.0561
   7 C4       -1.2363   -10.8085    -4.9266  C.ar    1  <O>11      -0.0191
   8 C5       -0.3141   -11.7868    -4.5400  C.ar    1  <O>11       0.1340
   9 O3       -0.7484   -13.0635    -4.3187  O.3     1  <O>11      -0.4235
  10 C6        0.1591   -13.7265    -3.5246  C.ar    1  <O>11       0.3239
  11 N2        0.4289   -13.2426    -2.2903  N.ar    1  <O>11      -0.2030
  12 C7        1.3195   -13.9086    -1.5325  C.ar    1  <O>11       0.0350
  13 C8        1.9655   -15.0455    -1.9445  C.ar    1  <O>11      -0.0173
  14 C9        1.6408   -15.4738    -3.2059  C.ar    1  <O>11       0.0778
  15 C10       2.2593   -16.6470    -3.7293  C.ar    1  <O>11       0.0006
  16 C11       1.4785   -17.7513    -4.1079  C.ar    1  <O>11      -0.0526
  17 C12       2.0864   -18.9072    -4.6108  C.ar    1  <O>11      -0.0611
  18 C13       3.4770   -18.9702    -4.7415  C.ar    1  <O>11      -0.0617
  19 C14       4.2537   -17.8683    -4.3687  C.ar    1  <O>11      -0.0611
  20 C15       3.6555   -16.7093    -3.8713  C.ar    1  <O>11      -0.0526
  21 N3        0.7565   -14.8426    -4.0024  N.ar    1  <O>11      -0.1946
  22 C16       1.0360   -11.4710    -4.3802  C.ar    1  <O>11       0.0108
  23 H1        4.5620   -10.9684    -4.1569  H       1  <O>11       0.3292
  24 H2        0.8781    -8.2100    -5.1662  H       1  <O>11       0.0640
  25 H3       -1.4715    -8.7755    -5.4430  H       1  <O>11       0.0619
  26 H4       -2.2330   -11.0499    -5.0421  H       1  <O>11       0.0654
  27 H5        1.5275   -13.5436    -0.5899  H       1  <O>11       0.0832
  28 H6        2.6462   -15.5425    -1.3489  H       1  <O>11       0.0654
  29 H7        0.4515   -17.7101    -4.0148  H       1  <O>11       0.0624
  30 H8        1.5066   -19.7154    -4.8860  H       1  <O>11       0.0618
  31 H9        3.9268   -19.8228    -5.1101  H       1  <O>11       0.0618
  32 H10       5.2804   -17.9128    -4.4623  H       1  <O>11       0.0618
  33 H11       4.2383   -15.8992    -3.6083  H       1  <O>11       0.0624
  34 H12       1.7121   -12.1985    -4.0995  H       1  <O>11       0.0677
@<TRIPOS>BOND
     1     1     2    2
     2     2     3    1
     3     2     4    1
     4     4     5   ar
     5     5     6   ar
     6     6     7   ar
     7     7     8   ar
     8     8     9    1
     9     9    10    1
    10    10    11   ar
    11    11    12   ar
    12    12    13   ar
    13    13    14   ar
    14    14    15    1
    15    15    16   ar
    16    16    17   ar
    17    17    18   ar
    18    18    19   ar
    19    19    20   ar
    20    15    20   ar
    21    14    21   ar
    22    10    21   ar
    23     8    22   ar
    24     4    22   ar
    25     3    23    1
    26     5    24    1
    27     6    25    1
    28     7    26    1
    29    12    27    1
    30    13    28    1
    31    16    29    1
    32    17    30    1
    33    18    31    1
    34    19    32    1
    35    20    33    1
    36    22    34    1
@<TRIPOS>MOLECULE
mol50_1_16
 34 36 0 0 0
SMALL
USER_CHARGES
****
VDW energy = 11.29
@<TRIPOS>ATOM
   1 O1        3.3127    -9.0776    -5.5893  O.2     1  <O>11      -0.1300
   2 N1        2.8495    -9.8143    -4.4295  N.4     1  <O>11       0.0061
   3 O2        3.6348   -11.0240    -4.2799  O.2     1  <O>11      -0.3961
   4 C1        1.4620   -10.1610    -4.6040  C.ar    1  <O>11       0.1251
   5 C2        0.5542    -9.1748    -4.9956  C.ar    1  <O>11      -0.0314
   6 C3       -0.7971    -9.5018    -5.1554  C.ar    1  <O>11      -0.0561
   7 C4       -1.2363   -10.8085    -4.9266  C.ar    1  <O>11      -0.0191
   8 C5       -0.3141   -11.7868    -4.5400  C.ar    1  <O>11       0.1340
   9 O3       -0.7484   -13.0635    -4.3187  O.3     1  <O>11      -0.4235
  10 C6        0.1591   -13.7265    -3.5246  C.ar    1  <O>11       0.3239
  11 N2        1.1709   -14.4071    -4.1107  N.ar    1  <O>11      -0.2030
  12 C7        2.0457   -15.0471    -3.3131  C.ar    1  <O>11       0.0350
  13 C8        1.9647   -15.0466    -1.9444  C.ar    1  <O>11      -0.0173
  14 C9        0.9131   -14.3364    -1.4248  C.ar    1  <O>11       0.0778
  15 C10       0.7388   -14.2748    -0.0110  C.ar    1  <O>11       0.0006
  16 C11      -0.0384   -15.2398     0.6502  C.ar    1  <O>11      -0.0526
  17 C12      -0.2190   -15.1728     2.0364  C.ar    1  <O>11      -0.0611
  18 C13       0.3752   -14.1442     2.7738  C.ar    1  <O>11      -0.0617
  19 C14       1.1529   -13.1862     2.1154  C.ar    1  <O>11      -0.0611
  20 C15       1.3430   -13.2484     0.7339  C.ar    1  <O>11      -0.0526
  21 N3        0.0118   -13.6796    -2.1803  N.ar    1  <O>11      -0.1946
  22 C16       1.0360   -11.4710    -4.3802  C.ar    1  <O>11       0.0108
  23 H1        4.5620   -10.9684    -4.1569  H       1  <O>11       0.3292
  24 H2        0.8781    -8.2100    -5.1662  H       1  <O>11       0.0640
  25 H3       -1.4715    -8.7755    -5.4430  H       1  <O>11       0.0619
  26 H4       -2.2330   -11.0499    -5.0421  H       1  <O>11       0.0654
  27 H5        2.8197   -15.5667    -3.7558  H       1  <O>11       0.0832
  28 H6        2.6452   -15.5440    -1.3490  H       1  <O>11       0.0654
  29 H7       -0.4785   -16.0020     0.1112  H       1  <O>11       0.0624
  30 H8       -0.7924   -15.8846     2.5156  H       1  <O>11       0.0618
  31 H9        0.2410   -14.0923     3.7958  H       1  <O>11       0.0618
  32 H10       1.5911   -12.4249     2.6569  H       1  <O>11       0.0618
  33 H11       1.9268   -12.5412     0.2603  H       1  <O>11       0.0624
  34 H12       1.7121   -12.1985    -4.0995  H       1  <O>11       0.0677
@<TRIPOS>BOND
     1     1     2    2
     2     2     3    1
     3     2     4    1
     4     4     5   ar
     5     5     6   ar
     6     6     7   ar
     7     7     8   ar
     8     8     9    1
     9     9    10    1
    10    10    11   ar
    11    11    12   ar
    12    12    13   ar
    13    13    14   ar
    14    14    15    1
    15    15    16   ar
    16    16    17   ar
    17    17    18   ar
    18    18    19   ar
    19    19    20   ar
    20    15    20   ar
    21    14    21   ar
    22    10    21   ar
    23     8    22   ar
    24     4    22   ar
    25     3    23    1
    26     5    24    1
    27     6    25    1
    28     7    26    1
    29    12    27    1
    30    13    28    1
    31    16    29    1
    32    17    30    1
    33    18    31    1
    34    19    32    1
    35    20    33    1
    36    22    34    1
@<TRIPOS>MOLECULE
mol50_1_17
 34 36 0 0 0
SMALL
USER_CHARGES
****
VDW energy = 11.48
@<TRIPOS>ATOM
   1 O1        3.3127    -9.0776    -5.5893  O.2     1  <O>11      -0.1300
   2 N1        2.8495    -9.8143    -4.4295  N.4     1  <O>11       0.0061
   3 O2        3.6348   -11.0240    -4.2799  O.2     1  <O>11      -0.3961
   4 C1        1.4620   -10.1610    -4.6040  C.ar    1  <O>11       0.1251
   5 C2        0.5542    -9.1748    -4.9956  C.ar    1  <O>11      -0.0314
   6 C3       -0.7971    -9.5018    -5.1554  C.ar    1  <O>11      -0.0561
   7 C4       -1.2363   -10.8085    -4.9266  C.ar    1  <O>11      -0.0191
   8 C5       -0.3141   -11.7868    -4.5400  C.ar    1  <O>11       0.1340
   9 O3       -0.7484   -13.0635    -4.3187  O.3     1  <O>11      -0.4235
  10 C6        0.1591   -13.7265    -3.5246  C.ar    1  <O>11       0.3239
  11 N2        0.0138   -13.6790    -2.1803  N.ar    1  <O>11      -0.2030
  12 C7        0.9136   -14.3355    -1.4251  C.ar    1  <O>11       0.0350
  13 C8        1.9654   -15.0454    -1.9442  C.ar    1  <O>11      -0.0173
  14 C9        2.0466   -15.0465    -3.3130  C.ar    1  <O>11       0.0778
  15 C10       3.1061   -15.7549    -3.9521  C.ar    1  <O>11       0.0006
  16 C11       2.8220   -16.7987    -4.8478  C.ar    1  <O>11      -0.0526
  17 C12       3.8621   -17.5016    -5.4664  C.ar    1  <O>11      -0.0611
  18 C13       5.1931   -17.1681    -5.1979  C.ar    1  <O>11      -0.0617
  19 C14       5.4753   -16.1254    -4.3095  C.ar    1  <O>11      -0.0611
  20 C15       4.4443   -15.4152    -3.6922  C.ar    1  <O>11      -0.0526
  21 N3        1.1716   -14.4055    -4.1118  N.ar    1  <O>11      -0.1946
  22 C16       1.0360   -11.4710    -4.3802  C.ar    1  <O>11       0.0108
  23 H1        4.5620   -10.9684    -4.1569  H       1  <O>11       0.3292
  24 H2        0.8781    -8.2100    -5.1662  H       1  <O>11       0.0640
  25 H3       -1.4715    -8.7755    -5.4430  H       1  <O>11       0.0619
  26 H4       -2.2330   -11.0499    -5.0421  H       1  <O>11       0.0654
  27 H5        0.8060   -14.3028    -0.3992  H       1  <O>11       0.0832
  28 H6        2.6460   -15.5424    -1.3486  H       1  <O>11       0.0654
  29 H7        1.8414   -17.0485    -5.0508  H       1  <O>11       0.0624
  30 H8        3.6460   -18.2683    -6.1226  H       1  <O>11       0.0618
  31 H9        5.9611   -17.6871    -5.6517  H       1  <O>11       0.0618
  32 H10       6.4568   -15.8784    -4.1080  H       1  <O>11       0.0618
  33 H11       4.6647   -14.6416    -3.0457  H       1  <O>11       0.0624
  34 H12       1.7121   -12.1985    -4.0995  H       1  <O>11       0.0677
@<TRIPOS>BOND
     1     1     2    2
     2     2     3    1
     3     2     4    1
     4     4     5   ar
     5     5     6   ar
     6     6     7   ar
     7     7     8   ar
     8     8     9    1
     9     9    10    1
    10    10    11   ar
    11    11    12   ar
    12    12    13   ar
    13    13    14   ar
    14    14    15    1
    15    15    16   ar
    16    16    17   ar
    17    17    18   ar
    18    18    19   ar
    19    19    20   ar
    20    15    20   ar
    21    14    21   ar
    22    10    21   ar
    23     8    22   ar
    24     4    22   ar
    25     3    23    1
    26     5    24    1
    27     6    25    1
    28     7    26    1
    29    12    27    1
    30    13    28    1
    31    16    29    1
    32    17    30    1
    33    18    31    1
    34    19    32    1
    35    20    33    1
    36    22    34    1
@<TRIPOS>MOLECULE
mol50_1_18
 34 36 0 0 0
SMALL
USER_CHARGES
****
VDW energy = 11.71
@<TRIPOS>ATOM
   1 O1        3.3127    -9.0776    -5.5893  O.2     1  <O>11      -0.1300
   2 N1        2.8495    -9.8143    -4.4295  N.4     1  <O>11       0.0061
   3 O2        3.6348   -11.0240    -4.2799  O.2     1  <O>11      -0.3961
   4 C1        1.4620   -10.1610    -4.6040  C.ar    1  <O>11       0.1251
   5 C2        0.5542    -9.1748    -4.9956  C.ar    1  <O>11      -0.0314
   6 C3       -0.7971    -9.5018    -5.1554  C.ar    1  <O>11      -0.0561
   7 C4       -1.2363   -10.8085    -4.9266  C.ar    1  <O>11      -0.0191
   8 C5       -0.3141   -11.7868    -4.5400  C.ar    1  <O>11       0.1340
   9 O3       -0.7484   -13.0635    -4.3187  O.3     1  <O>11      -0.4235
  10 C6        0.1591   -13.7265    -3.5246  C.ar    1  <O>11       0.3239
  11 N2        0.0138   -13.6790    -2.1803  N.ar    1  <O>11      -0.2030
  12 C7        0.9136   -14.3355    -1.4251  C.ar    1  <O>11       0.0350
  13 C8        1.9654   -15.0454    -1.9442  C.ar    1  <O>11      -0.0173
  14 C9        2.0466   -15.0465    -3.3130  C.ar    1  <O>11       0.0778
  15 C10       3.1061   -15.7549    -3.9521  C.ar    1  <O>11       0.0006
  16 C11       4.0185   -15.0746    -4.7750  C.ar    1  <O>11      -0.0526
  17 C12       5.0517   -15.7717    -5.4116  C.ar    1  <O>11      -0.0611
  18 C13       5.1838   -17.1519    -5.2313  C.ar    1  <O>11      -0.0617
  19 C14       4.2776   -17.8280    -4.4079  C.ar    1  <O>11      -0.0611
  20 C15       3.2475   -17.1399    -3.7646  C.ar    1  <O>11      -0.0526
  21 N3        1.1716   -14.4055    -4.1118  N.ar    1  <O>11      -0.1946
  22 C16       1.0360   -11.4710    -4.3802  C.ar    1  <O>11       0.0108
  23 H1        4.5620   -10.9684    -4.1569  H       1  <O>11       0.3292
  24 H2        0.8781    -8.2100    -5.1662  H       1  <O>11       0.0640
  25 H3       -1.4715    -8.7755    -5.4430  H       1  <O>11       0.0619
  26 H4       -2.2330   -11.0499    -5.0421  H       1  <O>11       0.0654
  27 H5        0.8060   -14.3028    -0.3992  H       1  <O>11       0.0832
  28 H6        2.6460   -15.5424    -1.3486  H       1  <O>11       0.0654
  29 H7        3.9267   -14.0557    -4.9109  H       1  <O>11       0.0624
  30 H8        5.7179   -15.2656    -6.0158  H       1  <O>11       0.0618
  31 H9        5.9438   -17.6676    -5.7019  H       1  <O>11       0.0618
  32 H10       4.3716   -18.8470    -4.2746  H       1  <O>11       0.0618
  33 H11       2.5905   -17.6481    -3.1520  H       1  <O>11       0.0624
  34 H12       1.7121   -12.1985    -4.0995  H       1  <O>11       0.0677
@<TRIPOS>BOND
     1     1     2    2
     2     2     3    1
     3     2     4    1
     4     4     5   ar
     5     5     6   ar
     6     6     7   ar
     7     7     8   ar
     8     8     9    1
     9     9    10    1
    10    10    11   ar
    11    11    12   ar
    12    12    13   ar
    13    13    14   ar
    14    14    15    1
    15    15    16   ar
    16    16    17   ar
    17    17    18   ar
    18    18    19   ar
    19    19    20   ar
    20    15    20   ar
    21    14    21   ar
    22    10    21   ar
    23     8    22   ar
    24     4    22   ar
    25     3    23    1
    26     5    24    1
    27     6    25    1
    28     7    26    1
    29    12    27    1
    30    13    28    1
    31    16    29    1
    32    17    30    1
    33    18    31    1
    34    19    32    1
    35    20    33    1
    36    22    34    1
@<TRIPOS>MOLECULE
mol50_1_19
 34 36 0 0 0
SMALL
USER_CHARGES
****
VDW energy = 12.88
@<TRIPOS>ATOM
   1 O1        3.3127    -9.0776    -5.5893  O.2     1  <O>11      -0.1300
   2 N1        2.8495    -9.8143    -4.4295  N.4     1  <O>11       0.0061
   3 O2        3.6348   -11.0240    -4.2799  O.2     1  <O>11      -0.3961
   4 C1        1.4620   -10.1610    -4.6040  C.ar    1  <O>11       0.1251
   5 C2        0.7715   -10.7699    -3.5541  C.ar    1  <O>11      -0.0314
   6 C3       -0.5731   -11.1203    -3.7207  C.ar    1  <O>11      -0.0561
   7 C4       -1.2228   -10.8606    -4.9303  C.ar    1  <O>11      -0.0191
   8 C5       -0.5193   -10.2452    -5.9712  C.ar    1  <O>11       0.1340
   9 O3       -1.1595    -9.9923    -7.1517  O.3     1  <O>11      -0.4235
  10 C6       -1.7350    -8.7432    -7.1040  C.ar    1  <O>11       0.3239
  11 N2       -1.0179    -7.6731    -7.5177  N.ar    1  <O>11      -0.2030
  12 C7       -1.6025    -6.4623    -7.4618  C.ar    1  <O>11       0.0350
  13 C8       -2.8801    -6.2573    -7.0085  C.ar    1  <O>11      -0.0173
  14 C9       -3.5426    -7.3885    -6.6064  C.ar    1  <O>11       0.0778
  15 C10      -4.8773    -7.2828    -6.1164  C.ar    1  <O>11       0.0006
  16 C11      -5.5103    -6.0310    -6.0477  C.ar    1  <O>11      -0.0526
  17 C12      -6.8163    -5.9257    -5.5560  C.ar    1  <O>11      -0.0611
  18 C13      -7.5016    -7.0678    -5.1307  C.ar    1  <O>11      -0.0617
  19 C14      -6.8724    -8.3148    -5.2037  C.ar    1  <O>11      -0.0611
  20 C15      -5.5720    -8.4300    -5.6980  C.ar    1  <O>11      -0.0526
  21 N3       -3.0014    -8.6216    -6.6430  N.ar    1  <O>11      -0.1946
  22 C16       0.8212    -9.8900    -5.8138  C.ar    1  <O>11       0.0108
  23 H1        4.5620   -10.9684    -4.1569  H       1  <O>11       0.3292
  24 H2        1.2502   -10.9605    -2.6599  H       1  <O>11       0.0640
  25 H3       -1.0865   -11.5719    -2.9477  H       1  <O>11       0.0619
  26 H4       -2.2137   -11.1207    -5.0548  H       1  <O>11       0.0654
  27 H5       -1.0595    -5.6433    -7.7773  H       1  <O>11       0.0832
  28 H6       -3.3115    -5.3205    -6.9726  H       1  <O>11       0.0654
  29 H7       -5.0098    -5.1847    -6.3613  H       1  <O>11       0.0624
  30 H8       -7.2749    -5.0025    -5.5072  H       1  <O>11       0.0618
  31 H9       -8.4639    -6.9913    -4.7657  H       1  <O>11       0.0618
  32 H10      -7.3751    -9.1592    -4.8887  H       1  <O>11       0.0618
  33 H11      -5.1215    -9.3567    -5.7559  H       1  <O>11       0.0624
  34 H12       1.3332    -9.4317    -6.5839  H       1  <O>11       0.0677
@<TRIPOS>BOND
     1     1     2    2
     2     2     3    1
     3     2     4    1
     4     4     5   ar
     5     5     6   ar
     6     6     7   ar
     7     7     8   ar
     8     8     9    1
     9     9    10    1
    10    10    11   ar
    11    11    12   ar
    12    12    13   ar
    13    13    14   ar
    14    14    15    1
    15    15    16   ar
    16    16    17   ar
    17    17    18   ar
    18    18    19   ar
    19    19    20   ar
    20    15    20   ar
    21    14    21   ar
    22    10    21   ar
    23     8    22   ar
    24     4    22   ar
    25     3    23    1
    26     5    24    1
    27     6    25    1
    28     7    26    1
    29    12    27    1
    30    13    28    1
    31    16    29    1
    32    17    30    1
    33    18    31    1
    34    19    32    1
    35    20    33    1
    36    22    34    1
@<TRIPOS>MOLECULE
mol50_1_20
 34 36 0 0 0
SMALL
USER_CHARGES
****
VDW energy = 15.08
@<TRIPOS>ATOM
   1 O1        3.3127    -9.0776    -5.5893  O.2     1  <O>11      -0.1300
   2 N1        2.8495    -9.8143    -4.4295  N.4     1  <O>11       0.0061
   3 O2        3.6348   -11.0240    -4.2799  O.2     1  <O>11      -0.3961
   4 C1        1.4620   -10.1610    -4.6040  C.ar    1  <O>11       0.1251
   5 C2        0.5542    -9.1748    -4.9956  C.ar    1  <O>11      -0.0314
   6 C3       -0.7971    -9.5018    -5.1554  C.ar    1  <O>11      -0.0561
   7 C4       -1.2363   -10.8085    -4.9266  C.ar    1  <O>11      -0.0191
   8 C5       -0.3141   -11.7868    -4.5400  C.ar    1  <O>11       0.1340
   9 O3       -0.7484   -13.0635    -4.3187  O.3     1  <O>11      -0.4235
  10 C6       -1.1100   -13.2036    -2.9984  C.ar    1  <O>11       0.3239
  11 N2       -1.3364   -14.4438    -2.5072  N.ar    1  <O>11      -0.2030
  12 C7       -1.6884   -14.5551    -1.2131  C.ar    1  <O>11       0.0350
  13 C8       -1.8302   -13.4825    -0.3709  C.ar    1  <O>11      -0.0173
  14 C9       -1.5849   -12.2597    -0.9408  C.ar    1  <O>11       0.0778
  15 C10      -1.7067   -11.0800    -0.1495  C.ar    1  <O>11       0.0006
  16 C11      -2.0728   -11.1685     1.2035  C.ar    1  <O>11      -0.0526
  17 C12      -2.2036   -10.0098     1.9774  C.ar    1  <O>11      -0.0611
  18 C13      -1.9687    -8.7543     1.4085  C.ar    1  <O>11      -0.0617
  19 C14      -1.5996    -8.6671     0.0623  C.ar    1  <O>11      -0.0611
  20 C15      -1.4614    -9.8179    -0.7156  C.ar    1  <O>11      -0.0526
  21 N3       -1.2301   -12.0962    -2.2300  N.ar    1  <O>11      -0.1946
  22 C16       1.0360   -11.4710    -4.3802  C.ar    1  <O>11       0.0108
  23 H1        4.5620   -10.9684    -4.1569  H       1  <O>11       0.3292
  24 H2        0.8781    -8.2100    -5.1662  H       1  <O>11       0.0640
  25 H3       -1.4715    -8.7755    -5.4430  H       1  <O>11       0.0619
  26 H4       -2.2330   -11.0499    -5.0421  H       1  <O>11       0.0654
  27 H5       -1.8611   -15.4992    -0.8340  H       1  <O>11       0.0832
  28 H6       -2.1016   -13.5877     0.6191  H       1  <O>11       0.0654
  29 H7       -2.2462   -12.0926     1.6291  H       1  <O>11       0.0624
  30 H8       -2.4741   -10.0822     2.9707  H       1  <O>11       0.0618
  31 H9       -2.0670    -7.8988     1.9774  H       1  <O>11       0.0618
  32 H10      -1.4275    -7.7417    -0.3606  H       1  <O>11       0.0618
  33 H11      -1.1793    -9.7416    -1.7054  H       1  <O>11       0.0624
  34 H12       1.7121   -12.1985    -4.0995  H       1  <O>11       0.0677
@<TRIPOS>BOND
     1     1     2    2
     2     2     3    1
     3     2     4    1
     4     4     5   ar
     5     5     6   ar
     6     6     7   ar
     7     7     8   ar
     8     8     9    1
     9     9    10    1
    10    10    11   ar
    11    11    12   ar
    12    12    13   ar
    13    13    14   ar
    14    14    15    1
    15    15    16   ar
    16    16    17   ar
    17    17    18   ar
    18    18    19   ar
    19    19    20   ar
    20    15    20   ar
    21    14    21   ar
    22    10    21   ar
    23     8    22   ar
    24     4    22   ar
    25     3    23    1
    26     5    24    1
    27     6    25    1
    28     7    26    1
    29    12    27    1
    30    13    28    1
    31    16    29    1
    32    17    30    1
    33    18    31    1
    34    19    32    1
    35    20    33    1
    36    22    34    1
@<TRIPOS>MOLECULE
mol50_1_21
 34 36 0 0 0
SMALL
USER_CHARGES
****
VDW energy = 16.13
@<TRIPOS>ATOM
   1 O1        3.3127    -9.0776    -5.5893  O.2     1  <O>11      -0.1300
   2 N1        2.8495    -9.8143    -4.4295  N.4     1  <O>11       0.0061
   3 O2        3.6348   -11.0240    -4.2799  O.2     1  <O>11      -0.3961
   4 C1        1.4620   -10.1610    -4.6040  C.ar    1  <O>11       0.1251
   5 C2        0.5542    -9.1748    -4.9956  C.ar    1  <O>11      -0.0314
   6 C3       -0.7971    -9.5018    -5.1554  C.ar    1  <O>11      -0.0561
   7 C4       -1.2363   -10.8085    -4.9266  C.ar    1  <O>11      -0.0191
   8 C5       -0.3141   -11.7868    -4.5400  C.ar    1  <O>11       0.1340
   9 O3       -0.7484   -13.0635    -4.3187  O.3     1  <O>11      -0.4235
  10 C6       -0.6789   -13.7821    -5.4902  C.ar    1  <O>11       0.3239
  11 N2       -1.3919   -13.3634    -6.5611  N.ar    1  <O>11      -0.2030
  12 C7       -1.3074   -14.0825    -7.6954  C.ar    1  <O>11       0.0350
  13 C8       -0.5413   -15.2126    -7.8214  C.ar    1  <O>11      -0.0173
  14 C9        0.1511   -15.5740    -6.6944  C.ar    1  <O>11       0.0778
  15 C10       0.9765   -16.7363    -6.7208  C.ar    1  <O>11       0.0006
  16 C11       1.0808   -17.5052    -7.8914  C.ar    1  <O>11      -0.0526
  17 C12       1.8819   -18.6526    -7.9141  C.ar    1  <O>11      -0.0611
  18 C13       2.5862   -19.0408    -6.7703  C.ar    1  <O>11      -0.0617
  19 C14       2.4856   -18.2720    -5.6063  C.ar    1  <O>11      -0.0611
  20 C15       1.6933   -17.1231    -5.5763  C.ar    1  <O>11      -0.0526
  21 N3        0.0996   -14.8879    -5.5363  N.ar    1  <O>11      -0.1946
  22 C16       1.0360   -11.4710    -4.3802  C.ar    1  <O>11       0.0108
  23 H1        4.5620   -10.9684    -4.1569  H       1  <O>11       0.3292
  24 H2        0.8781    -8.2100    -5.1662  H       1  <O>11       0.0640
  25 H3       -1.4715    -8.7755    -5.4430  H       1  <O>11       0.0619
  26 H4       -2.2330   -11.0499    -5.0421  H       1  <O>11       0.0654
  27 H5       -1.8488   -13.7662    -8.5151  H       1  <O>11       0.0832
  28 H6       -0.4894   -15.7515    -8.7000  H       1  <O>11       0.0654
  29 H7        0.5642   -17.2228    -8.7391  H       1  <O>11       0.0624
  30 H8        1.9530   -19.2135    -8.7774  H       1  <O>11       0.0618
  31 H9        3.1755   -19.8879    -6.7849  H       1  <O>11       0.0618
  32 H10       3.0028   -18.5573    -4.7601  H       1  <O>11       0.0618
  33 H11       1.6343   -16.5586    -4.7144  H       1  <O>11       0.0624
  34 H12       1.7121   -12.1985    -4.0995  H       1  <O>11       0.0677
@<TRIPOS>BOND
     1     1     2    2
     2     2     3    1
     3     2     4    1
     4     4     5   ar
     5     5     6   ar
     6     6     7   ar
     7     7     8   ar
     8     8     9    1
     9     9    10    1
    10    10    11   ar
    11    11    12   ar
    12    12    13   ar
    13    13    14   ar
    14    14    15    1
    15    15    16   ar
    16    16    17   ar
    17    17    18   ar
    18    18    19   ar
    19    19    20   ar
    20    15    20   ar
    21    14    21   ar
    22    10    21   ar
    23     8    22   ar
    24     4    22   ar
    25     3    23    1
    26     5    24    1
    27     6    25    1
    28     7    26    1
    29    12    27    1
    30    13    28    1
    31    16    29    1
    32    17    30    1
    33    18    31    1
    34    19    32    1
    35    20    33    1
    36    22    34    1
@<TRIPOS>MOLECULE
mol50_1_22
 34 36 0 0 0
SMALL
USER_CHARGES
****
VDW energy = 16.65
@<TRIPOS>ATOM
   1 O1        3.3127    -9.0776    -5.5893  O.2     1  <O>11      -0.1300
   2 N1        2.8495    -9.8143    -4.4295  N.4     1  <O>11       0.0061
   3 O2        3.6348   -11.0240    -4.2799  O.2     1  <O>11      -0.3961
   4 C1        1.4620   -10.1610    -4.6040  C.ar    1  <O>11       0.1251
   5 C2        0.5542    -9.1748    -4.9956  C.ar    1  <O>11      -0.0314
   6 C3       -0.7971    -9.5018    -5.1554  C.ar    1  <O>11      -0.0561
   7 C4       -1.2363   -10.8085    -4.9266  C.ar    1  <O>11      -0.0191
   8 C5       -0.3141   -11.7868    -4.5400  C.ar    1  <O>11       0.1340
   9 O3       -0.7484   -13.0635    -4.3187  O.3     1  <O>11      -0.4235
  10 C6       -0.6789   -13.7821    -5.4902  C.ar    1  <O>11       0.3239
  11 N2       -1.7498   -13.7960    -6.3169  N.ar    1  <O>11      -0.2030
  12 C7       -1.6576   -14.5056    -7.4567  C.ar    1  <O>11       0.0350
  13 C8       -0.5410   -15.2128    -7.8213  C.ar    1  <O>11      -0.0173
  14 C9        0.5017   -15.1512    -6.9330  C.ar    1  <O>11       0.0778
  15 C10       1.7089   -15.8540    -7.2186  C.ar    1  <O>11       0.0006
  16 C11       1.8309   -16.6020    -8.4010  C.ar    1  <O>11      -0.0526
  17 C12       3.0116   -17.3013    -8.6760  C.ar    1  <O>11      -0.0611
  18 C13       4.0800   -17.2587    -7.7750  C.ar    1  <O>11      -0.0617
  19 C14       3.9595   -16.5098    -6.5999  C.ar    1  <O>11      -0.0611
  20 C15       2.7877   -15.8048    -6.3201  C.ar    1  <O>11      -0.0526
  21 N3        0.4584   -14.4555    -5.7803  N.ar    1  <O>11      -0.1946
  22 C16       1.0360   -11.4710    -4.3802  C.ar    1  <O>11       0.0108
  23 H1        4.5620   -10.9684    -4.1569  H       1  <O>11       0.3292
  24 H2        0.8781    -8.2100    -5.1662  H       1  <O>11       0.0640
  25 H3       -1.4715    -8.7755    -5.4430  H       1  <O>11       0.0619
  26 H4       -2.2330   -11.0499    -5.0421  H       1  <O>11       0.0654
  27 H5       -2.4717   -14.5181    -8.0908  H       1  <O>11       0.0832
  28 H6       -0.4891   -15.7518    -8.6998  H       1  <O>11       0.0654
  29 H7        1.0461   -16.6362    -9.0703  H       1  <O>11       0.0624
  30 H8        3.0940   -17.8499    -9.5462  H       1  <O>11       0.0618
  31 H9        4.9504   -17.7757    -7.9754  H       1  <O>11       0.0618
  32 H10       4.7457   -16.4782    -5.9322  H       1  <O>11       0.0618
  33 H11       2.7140   -15.2480    -5.4543  H       1  <O>11       0.0624
  34 H12       1.7121   -12.1985    -4.0995  H       1  <O>11       0.0677
@<TRIPOS>BOND
     1     1     2    2
     2     2     3    1
     3     2     4    1
     4     4     5   ar
     5     5     6   ar
     6     6     7   ar
     7     7     8   ar
     8     8     9    1
     9     9    10    1
    10    10    11   ar
    11    11    12   ar
    12    12    13   ar
    13    13    14   ar
    14    14    15    1
    15    15    16   ar
    16    16    17   ar
    17    17    18   ar
    18    18    19   ar
    19    19    20   ar
    20    15    20   ar
    21    14    21   ar
    22    10    21   ar
    23     8    22   ar
    24     4    22   ar
    25     3    23    1
    26     5    24    1
    27     6    25    1
    28     7    26    1
    29    12    27    1
    30    13    28    1
    31    16    29    1
    32    17    30    1
    33    18    31    1
    34    19    32    1
    35    20    33    1
    36    22    34    1
@<TRIPOS>MOLECULE
mol50_1_23
 34 36 0 0 0
SMALL
USER_CHARGES
****
VDW energy = 17.24
@<TRIPOS>ATOM
   1 O1        3.3127    -9.0776    -5.5893  O.2     1  <O>11      -0.1300
   2 N1        2.8495    -9.8143    -4.4295  N.4     1  <O>11       0.0061
   3 O2        3.6348   -11.0240    -4.2799  O.2     1  <O>11      -0.3961
   4 C1        1.4620   -10.1610    -4.6040  C.ar    1  <O>11       0.1251
   5 C2        0.5542    -9.1748    -4.9956  C.ar    1  <O>11      -0.0314
   6 C3       -0.7971    -9.5018    -5.1554  C.ar    1  <O>11      -0.0561
   7 C4       -1.2363   -10.8085    -4.9266  C.ar    1  <O>11      -0.0191
   8 C5       -0.3141   -11.7868    -4.5400  C.ar    1  <O>11       0.1340
   9 O3       -0.7484   -13.0635    -4.3187  O.3     1  <O>11      -0.4235
  10 C6       -1.1100   -13.2036    -2.9984  C.ar    1  <O>11       0.3239
  11 N2       -0.1821   -12.9908    -2.0369  N.ar    1  <O>11      -0.2030
  12 C7       -0.5599   -13.1336    -0.7532  C.ar    1  <O>11       0.0350
  13 C8       -1.8293   -13.4831    -0.3707  C.ar    1  <O>11      -0.0173
  14 C9       -2.7124   -13.6824    -1.4006  C.ar    1  <O>11       0.0778
  15 C10      -4.0585   -14.0509    -1.1088  C.ar    1  <O>11       0.0006
  16 C11      -4.4778   -14.2081     0.2223  C.ar    1  <O>11      -0.0526
  17 C12      -5.7961   -14.5810     0.5084  C.ar    1  <O>11      -0.0611
  18 C13      -6.7064   -14.7983    -0.5304  C.ar    1  <O>11      -0.0617
  19 C14      -6.2894   -14.6370    -1.8556  C.ar    1  <O>11      -0.0611
  20 C15      -4.9781   -14.2599    -2.1501  C.ar    1  <O>11      -0.0526
  21 N3       -2.3831   -13.5519    -2.7002  N.ar    1  <O>11      -0.1946
  22 C16       1.0360   -11.4710    -4.3802  C.ar    1  <O>11       0.0108
  23 H1        4.5620   -10.9684    -4.1569  H       1  <O>11       0.3292
  24 H2        0.8781    -8.2100    -5.1662  H       1  <O>11       0.0640
  25 H3       -1.4715    -8.7755    -5.4430  H       1  <O>11       0.0619
  26 H4       -2.2330   -11.0499    -5.0421  H       1  <O>11       0.0654
  27 H5        0.1443   -12.9712    -0.0165  H       1  <O>11       0.0832
  28 H6       -2.1002   -13.5883     0.6194  H       1  <O>11       0.0654
  29 H7       -3.8107   -14.0478     0.9932  H       1  <O>11       0.0624
  30 H8       -6.0971   -14.6958     1.4888  H       1  <O>11       0.0618
  31 H9       -7.6782   -15.0755    -0.3209  H       1  <O>11       0.0618
  32 H10      -6.9586   -14.7986    -2.6243  H       1  <O>11       0.0618
  33 H11      -4.6844   -14.1348    -3.1315  H       1  <O>11       0.0624
  34 H12       1.7121   -12.1985    -4.0995  H       1  <O>11       0.0677
@<TRIPOS>BOND
     1     1     2    2
     2     2     3    1
     3     2     4    1
     4     4     5   ar
     5     5     6   ar
     6     6     7   ar
     7     7     8   ar
     8     8     9    1
     9     9    10    1
    10    10    11   ar
    11    11    12   ar
    12    12    13   ar
    13    13    14   ar
    14    14    15    1
    15    15    16   ar
    16    16    17   ar
    17    17    18   ar
    18    18    19   ar
    19    19    20   ar
    20    15    20   ar
    21    14    21   ar
    22    10    21   ar
    23     8    22   ar
    24     4    22   ar
    25     3    23    1
    26     5    24    1
    27     6    25    1
    28     7    26    1
    29    12    27    1
    30    13    28    1
    31    16    29    1
    32    17    30    1
    33    18    31    1
    34    19    32    1
    35    20    33    1
    36    22    34    1
@<TRIPOS>MOLECULE
mol50_1_24
 34 36 0 0 0
SMALL
USER_CHARGES
****
VDW energy = 17.47
@<TRIPOS>ATOM
   1 O1        3.3127    -9.0776    -5.5893  O.2     1  <O>11      -0.1300
   2 N1        2.8495    -9.8143    -4.4295  N.4     1  <O>11       0.0061
   3 O2        3.6348   -11.0240    -4.2799  O.2     1  <O>11      -0.3961
   4 C1        1.4620   -10.1610    -4.6040  C.ar    1  <O>11       0.1251
   5 C2        0.5542    -9.1748    -4.9956  C.ar    1  <O>11      -0.0314
   6 C3       -0.7971    -9.5018    -5.1554  C.ar    1  <O>11      -0.0561
   7 C4       -1.2363   -10.8085    -4.9266  C.ar    1  <O>11      -0.0191
   8 C5       -0.3141   -11.7868    -4.5400  C.ar    1  <O>11       0.1340
   9 O3       -0.7484   -13.0635    -4.3187  O.3     1  <O>11      -0.4235
  10 C6       -0.6789   -13.7821    -5.4902  C.ar    1  <O>11       0.3239
  11 N2        0.5204   -13.9336    -6.0979  N.ar    1  <O>11      -0.2030
  12 C7        0.5628   -14.6407    -7.2421  C.ar    1  <O>11       0.0350
  13 C8       -0.5407   -15.2117    -7.8219  C.ar    1  <O>11      -0.0173
  14 C9       -1.7187   -15.0143    -7.1486  C.ar    1  <O>11       0.0778
  15 C10      -2.9255   -15.5663    -7.6699  C.ar    1  <O>11       0.0006
  16 C11      -2.9087   -16.3082    -8.8623  C.ar    1  <O>11      -0.0526
  17 C12      -4.0950   -16.8402    -9.3802  C.ar    1  <O>11      -0.0611
  18 C13      -5.3066   -16.6380    -8.7123  C.ar    1  <O>11      -0.0617
  19 C14      -5.3220   -15.9031    -7.5225  C.ar    1  <O>11      -0.0611
  20 C15      -4.1428   -15.3734    -6.9957  C.ar    1  <O>11      -0.0526
  21 N3       -1.8129   -14.3150    -6.0011  N.ar    1  <O>11      -0.1946
  22 C16       1.0360   -11.4710    -4.3802  C.ar    1  <O>11       0.0108
  23 H1        4.5620   -10.9684    -4.1569  H       1  <O>11       0.3292
  24 H2        0.8781    -8.2100    -5.1662  H       1  <O>11       0.0640
  25 H3       -1.4715    -8.7755    -5.4430  H       1  <O>11       0.0619
  26 H4       -2.2330   -11.0499    -5.0421  H       1  <O>11       0.0654
  27 H5        1.4757   -14.7597    -7.7085  H       1  <O>11       0.0832
  28 H6       -0.4884   -15.7504    -8.7006  H       1  <O>11       0.0654
  29 H7       -2.0172   -16.4617    -9.3590  H       1  <O>11       0.0624
  30 H8       -4.0754   -17.3834   -10.2575  H       1  <O>11       0.0618
  31 H9       -6.1825   -17.0279    -9.0943  H       1  <O>11       0.0618
  32 H10      -6.2151   -15.7507    -7.0284  H       1  <O>11       0.0618
  33 H11      -4.1652   -14.8409    -6.1120  H       1  <O>11       0.0624
  34 H12       1.7121   -12.1985    -4.0995  H       1  <O>11       0.0677
@<TRIPOS>BOND
     1     1     2    2
     2     2     3    1
     3     2     4    1
     4     4     5   ar
     5     5     6   ar
     6     6     7   ar
     7     7     8   ar
     8     8     9    1
     9     9    10    1
    10    10    11   ar
    11    11    12   ar
    12    12    13   ar
    13    13    14   ar
    14    14    15    1
    15    15    16   ar
    16    16    17   ar
    17    17    18   ar
    18    18    19   ar
    19    19    20   ar
    20    15    20   ar
    21    14    21   ar
    22    10    21   ar
    23     8    22   ar
    24     4    22   ar
    25     3    23    1
    26     5    24    1
    27     6    25    1
    28     7    26    1
    29    12    27    1
    30    13    28    1
    31    16    29    1
    32    17    30    1
    33    18    31    1
    34    19    32    1
    35    20    33    1
    36    22    34    1
@<TRIPOS>MOLECULE
mol50_1_25
 34 36 0 0 0
SMALL
USER_CHARGES
****
VDW energy = 20.62
@<TRIPOS>ATOM
   1 O1        3.3127    -9.0776    -5.5893  O.2     1  <O>11      -0.1300
   2 N1        2.8495    -9.8143    -4.4295  N.4     1  <O>11       0.0061
   3 O2        3.6348   -11.0240    -4.2799  O.2     1  <O>11      -0.3961
   4 C1        1.4620   -10.1610    -4.6040  C.ar    1  <O>11       0.1251
   5 C2        0.7715   -10.7699    -3.5541  C.ar    1  <O>11      -0.0314
   6 C3       -0.5731   -11.1203    -3.7207  C.ar    1  <O>11      -0.0561
   7 C4       -1.2228   -10.8606    -4.9303  C.ar    1  <O>11      -0.0191
   8 C5       -0.5193   -10.2452    -5.9712  C.ar    1  <O>11       0.1340
   9 O3       -1.1595    -9.9923    -7.1517  O.3     1  <O>11      -0.4235
  10 C6       -0.2301    -9.8385    -8.1548  C.ar    1  <O>11       0.3239
  11 N2        0.1655   -10.9258    -8.8563  N.ar    1  <O>11      -0.2030
  12 C7        1.0750   -10.7500    -9.8324  C.ar    1  <O>11       0.0350
  13 C8        1.6200    -9.5328   -10.1507  C.ar    1  <O>11      -0.0173
  14 C9        1.1708    -8.4797    -9.3962  C.ar    1  <O>11       0.0778
  15 C10       1.6774    -7.1708    -9.6470  C.ar    1  <O>11       0.0006
  16 C11       2.6273    -6.9602   -10.6597  C.ar    1  <O>11      -0.0526
  17 C12       3.1332    -5.6773   -10.8983  C.ar    1  <O>11      -0.0611
  18 C13       2.6945    -4.5946   -10.1300  C.ar    1  <O>11      -0.0617
  19 C14       1.7450    -4.8041    -9.1247  C.ar    1  <O>11      -0.0611
  20 C15       1.2309    -6.0793    -8.8835  C.ar    1  <O>11      -0.0526
  21 N3        0.2625    -8.6042    -8.4092  N.ar    1  <O>11      -0.1946
  22 C16       0.8212    -9.8900    -5.8138  C.ar    1  <O>11       0.0108
  23 H1        4.5620   -10.9684    -4.1569  H       1  <O>11       0.3292
  24 H2        1.2502   -10.9605    -2.6599  H       1  <O>11       0.0640
  25 H3       -1.0865   -11.5719    -2.9477  H       1  <O>11       0.0619
  26 H4       -2.2137   -11.1207    -5.0548  H       1  <O>11       0.0654
  27 H5        1.3788   -11.5764   -10.3707  H       1  <O>11       0.0832
  28 H6        2.3172    -9.4178   -10.9028  H       1  <O>11       0.0654
  29 H7        2.9539    -7.7554   -11.2308  H       1  <O>11       0.0624
  30 H8        3.8319    -5.5300   -11.6434  H       1  <O>11       0.0618
  31 H9        3.0684    -3.6484   -10.3034  H       1  <O>11       0.0618
  32 H10       1.4209    -4.0071    -8.5549  H       1  <O>11       0.0618
  33 H11       0.5236    -6.2200    -8.1452  H       1  <O>11       0.0624
  34 H12       1.3332    -9.4317    -6.5839  H       1  <O>11       0.0677
@<TRIPOS>BOND
     1     1     2    2
     2     2     3    1
     3     2     4    1
     4     4     5   ar
     5     5     6   ar
     6     6     7   ar
     7     7     8   ar
     8     8     9    1
     9     9    10    1
    10    10    11   ar
    11    11    12   ar
    12    12    13   ar
    13    13    14   ar
    14    14    15    1
    15    15    16   ar
    16    16    17   ar
    17    17    18   ar
    18    18    19   ar
    19    19    20   ar
    20    15    20   ar
    21    14    21   ar
    22    10    21   ar
    23     8    22   ar
    24     4    22   ar
    25     3    23    1
    26     5    24    1
    27     6    25    1
    28     7    26    1
    29    12    27    1
    30    13    28    1
    31    16    29    1
    32    17    30    1
    33    18    31    1
    34    19    32    1
    35    20    33    1
    36    22    34    1
@<TRIPOS>MOLECULE
mol50_1_26
 34 36 0 0 0
SMALL
USER_CHARGES
****
VDW energy = 21.61
@<TRIPOS>ATOM
   1 O1        3.3127    -9.0776    -5.5893  O.2     1  <O>11      -0.1300
   2 N1        2.8495    -9.8143    -4.4295  N.4     1  <O>11       0.0061
   3 O2        3.6348   -11.0240    -4.2799  O.2     1  <O>11      -0.3961
   4 C1        1.4620   -10.1610    -4.6040  C.ar    1  <O>11       0.1251
   5 C2        0.5542    -9.1748    -4.9956  C.ar    1  <O>11      -0.0314
   6 C3       -0.7971    -9.5018    -5.1554  C.ar    1  <O>11      -0.0561
   7 C4       -1.2363   -10.8085    -4.9266  C.ar    1  <O>11      -0.0191
   8 C5       -0.3141   -11.7868    -4.5400  C.ar    1  <O>11       0.1340
   9 O3       -0.7484   -13.0635    -4.3187  O.3     1  <O>11      -0.4235
  10 C6        0.1591   -13.7265    -3.5246  C.ar    1  <O>11       0.3239
  11 N2        0.4289   -13.2426    -2.2903  N.ar    1  <O>11      -0.2030
  12 C7        1.3195   -13.9086    -1.5325  C.ar    1  <O>11       0.0350
  13 C8        1.9655   -15.0455    -1.9445  C.ar    1  <O>11      -0.0173
  14 C9        1.6408   -15.4738    -3.2059  C.ar    1  <O>11       0.0778
  15 C10       2.2593   -16.6470    -3.7293  C.ar    1  <O>11       0.0006
  16 C11       3.1922   -17.3603    -2.9590  C.ar    1  <O>11      -0.0526
  17 C12       3.8079   -18.5054    -3.4770  C.ar    1  <O>11      -0.0611
  18 C13       3.4969   -18.9487    -4.7660  C.ar    1  <O>11      -0.0617
  19 C14       2.5643   -18.2406    -5.5308  C.ar    1  <O>11      -0.0611
  20 C15       1.9412   -17.1006    -5.0202  C.ar    1  <O>11      -0.0526
  21 N3        0.7565   -14.8426    -4.0024  N.ar    1  <O>11      -0.1946
  22 C16       1.0360   -11.4710    -4.3802  C.ar    1  <O>11       0.0108
  23 H1        4.5620   -10.9684    -4.1569  H       1  <O>11       0.3292
  24 H2        0.8781    -8.2100    -5.1662  H       1  <O>11       0.0640
  25 H3       -1.4715    -8.7755    -5.4430  H       1  <O>11       0.0619
  26 H4       -2.2330   -11.0499    -5.0421  H       1  <O>11       0.0654
  27 H5        1.5275   -13.5436    -0.5899  H       1  <O>11       0.0832
  28 H6        2.6462   -15.5425    -1.3489  H       1  <O>11       0.0654
  29 H7        3.4248   -17.0385    -2.0064  H       1  <O>11       0.0624
  30 H8        4.4934   -19.0240    -2.9059  H       1  <O>11       0.0618
  31 H9        3.9519   -19.7917    -5.1501  H       1  <O>11       0.0618
  32 H10       2.3343   -18.5644    -6.4832  H       1  <O>11       0.0618
  33 H11       1.2476   -16.5917    -5.5904  H       1  <O>11       0.0624
  34 H12       1.7121   -12.1985    -4.0995  H       1  <O>11       0.0677
@<TRIPOS>BOND
     1     1     2    2
     2     2     3    1
     3     2     4    1
     4     4     5   ar
     5     5     6   ar
     6     6     7   ar
     7     7     8   ar
     8     8     9    1
     9     9    10    1
    10    10    11   ar
    11    11    12   ar
    12    12    13   ar
    13    13    14   ar
    14    14    15    1
    15    15    16   ar
    16    16    17   ar
    17    17    18   ar
    18    18    19   ar
    19    19    20   ar
    20    15    20   ar
    21    14    21   ar
    22    10    21   ar
    23     8    22   ar
    24     4    22   ar
    25     3    23    1
    26     5    24    1
    27     6    25    1
    28     7    26    1
    29    12    27    1
    30    13    28    1
    31    16    29    1
    32    17    30    1
    33    18    31    1
    34    19    32    1
    35    20    33    1
    36    22    34    1
@<TRIPOS>MOLECULE
mol50_1_27
 34 36 0 0 0
SMALL
USER_CHARGES
****
VDW energy = 22.29
@<TRIPOS>ATOM
   1 O1        3.3127    -9.0776    -5.5893  O.2     1  <O>11      -0.1300
   2 N1        2.8495    -9.8143    -4.4295  N.4     1  <O>11       0.0061
   3 O2        3.6348   -11.0240    -4.2799  O.2     1  <O>11      -0.3961
   4 C1        1.4620   -10.1610    -4.6040  C.ar    1  <O>11       0.1251
   5 C2        0.5542    -9.1748    -4.9956  C.ar    1  <O>11      -0.0314
   6 C3       -0.7971    -9.5018    -5.1554  C.ar    1  <O>11      -0.0561
   7 C4       -1.2363   -10.8085    -4.9266  C.ar    1  <O>11      -0.0191
   8 C5       -0.3141   -11.7868    -4.5400  C.ar    1  <O>11       0.1340
   9 O3       -0.7484   -13.0635    -4.3187  O.3     1  <O>11      -0.4235
  10 C6        0.1591   -13.7265    -3.5246  C.ar    1  <O>11       0.3239
  11 N2        0.0138   -13.6790    -2.1803  N.ar    1  <O>11      -0.2030
  12 C7        0.9136   -14.3355    -1.4251  C.ar    1  <O>11       0.0350
  13 C8        1.9654   -15.0454    -1.9442  C.ar    1  <O>11      -0.0173
  14 C9        2.0466   -15.0465    -3.3130  C.ar    1  <O>11       0.0778
  15 C10       3.1061   -15.7549    -3.9521  C.ar    1  <O>11       0.0006
  16 C11       4.0583   -16.4480    -3.1870  C.ar    1  <O>11      -0.0526
  17 C12       5.1049   -17.1338    -3.8139  C.ar    1  <O>11      -0.0611
  18 C13       5.2090   -17.1349    -5.2082  C.ar    1  <O>11      -0.0617
  19 C14       4.2578   -16.4484    -5.9697  C.ar    1  <O>11      -0.0611
  20 C15       3.2074   -15.7663    -5.3533  C.ar    1  <O>11      -0.0526
  21 N3        1.1716   -14.4055    -4.1118  N.ar    1  <O>11      -0.1946
  22 C16       1.0360   -11.4710    -4.3802  C.ar    1  <O>11       0.0108
  23 H1        4.5620   -10.9684    -4.1569  H       1  <O>11       0.3292
  24 H2        0.8781    -8.2100    -5.1662  H       1  <O>11       0.0640
  25 H3       -1.4715    -8.7755    -5.4430  H       1  <O>11       0.0619
  26 H4       -2.2330   -11.0499    -5.0421  H       1  <O>11       0.0654
  27 H5        0.8060   -14.3028    -0.3992  H       1  <O>11       0.0832
  28 H6        2.6460   -15.5424    -1.3486  H       1  <O>11       0.0654
  29 H7        3.9858   -16.4517    -2.1576  H       1  <O>11       0.0624
  30 H8        5.8017   -17.6401    -3.2454  H       1  <O>11       0.0618
  31 H9        5.9816   -17.6384    -5.6717  H       1  <O>11       0.0618
  32 H10       4.3333   -16.4460    -6.9989  H       1  <O>11       0.0618
  33 H11       2.5062   -15.2712    -5.9261  H       1  <O>11       0.0624
  34 H12       1.7121   -12.1985    -4.0995  H       1  <O>11       0.0677
@<TRIPOS>BOND
     1     1     2    2
     2     2     3    1
     3     2     4    1
     4     4     5   ar
     5     5     6   ar
     6     6     7   ar
     7     7     8   ar
     8     8     9    1
     9     9    10    1
    10    10    11   ar
    11    11    12   ar
    12    12    13   ar
    13    13    14   ar
    14    14    15    1
    15    15    16   ar
    16    16    17   ar
    17    17    18   ar
    18    18    19   ar
    19    19    20   ar
    20    15    20   ar
    21    14    21   ar
    22    10    21   ar
    23     8    22   ar
    24     4    22   ar
    25     3    23    1
    26     5    24    1
    27     6    25    1
    28     7    26    1
    29    12    27    1
    30    13    28    1
    31    16    29    1
    32    17    30    1
    33    18    31    1
    34    19    32    1
    35    20    33    1
    36    22    34    1
@<TRIPOS>MOLECULE
mol50_1_28
 34 36 0 0 0
SMALL
USER_CHARGES
****
VDW energy = 22.81
@<TRIPOS>ATOM
   1 O1        3.3127    -9.0776    -5.5893  O.2     1  <O>11      -0.1300
   2 N1        2.8495    -9.8143    -4.4295  N.4     1  <O>11       0.0061
   3 O2        3.6348   -11.0240    -4.2799  O.2     1  <O>11      -0.3961
   4 C1        1.4620   -10.1610    -4.6040  C.ar    1  <O>11       0.1251
   5 C2        0.7715   -10.7699    -3.5541  C.ar    1  <O>11      -0.0314
   6 C3       -0.5731   -11.1203    -3.7207  C.ar    1  <O>11      -0.0561
   7 C4       -1.2228   -10.8606    -4.9303  C.ar    1  <O>11      -0.0191
   8 C5       -0.5193   -10.2452    -5.9712  C.ar    1  <O>11       0.1340
   9 O3       -1.1595    -9.9923    -7.1517  O.3     1  <O>11      -0.4235
  10 C6       -2.2307    -9.1589    -6.9243  C.ar    1  <O>11       0.3239
  11 N2       -3.2131    -9.5652    -6.0873  N.ar    1  <O>11      -0.2030
  12 C7       -4.2500    -8.7326    -5.8807  C.ar    1  <O>11       0.0350
  13 C8       -4.3629    -7.5008    -6.4721  C.ar    1  <O>11      -0.0173
  14 C9       -3.3298    -7.1600    -7.3068  C.ar    1  <O>11       0.0778
  15 C10      -3.3527    -5.8995    -7.9726  C.ar    1  <O>11       0.0006
  16 C11      -4.4240    -5.0129    -7.7755  C.ar    1  <O>11      -0.0526
  17 C12      -4.4522    -3.7805    -8.4380  C.ar    1  <O>11      -0.0611
  18 C13      -3.4118    -3.4220    -9.3006  C.ar    1  <O>11      -0.0617
  19 C14      -2.3429    -4.3033    -9.4928  C.ar    1  <O>11      -0.0611
  20 C15      -2.3037    -5.5322    -8.8320  C.ar    1  <O>11      -0.0526
  21 N3       -2.2710    -7.9577    -7.5460  N.ar    1  <O>11      -0.1946
  22 C16       0.8212    -9.8900    -5.8138  C.ar    1  <O>11       0.0108
  23 H1        4.5620   -10.9684    -4.1569  H       1  <O>11       0.3292
  24 H2        1.2502   -10.9605    -2.6599  H       1  <O>11       0.0640
  25 H3       -1.0865   -11.5719    -2.9477  H       1  <O>11       0.0619
  26 H4       -2.2137   -11.1207    -5.0548  H       1  <O>11       0.0654
  27 H5       -5.0011    -9.0379    -5.2422  H       1  <O>11       0.0832
  28 H6       -5.1664    -6.8761    -6.3016  H       1  <O>11       0.0654
  29 H7       -5.1941    -5.2716    -7.1391  H       1  <O>11       0.0624
  30 H8       -5.2431    -3.1344    -8.2894  H       1  <O>11       0.0618
  31 H9       -3.4325    -2.5144    -9.7915  H       1  <O>11       0.0618
  32 H10      -1.5747    -4.0421   -10.1304  H       1  <O>11       0.0618
  33 H11      -1.5052    -6.1703    -8.9745  H       1  <O>11       0.0624
  34 H12       1.3332    -9.4317    -6.5839  H       1  <O>11       0.0677
@<TRIPOS>BOND
     1     1     2    2
     2     2     3    1
     3     2     4    1
     4     4     5   ar
     5     5     6   ar
     6     6     7   ar
     7     7     8   ar
     8     8     9    1
     9     9    10    1
    10    10    11   ar
    11    11    12   ar
    12    12    13   ar
    13    13    14   ar
    14    14    15    1
    15    15    16   ar
    16    16    17   ar
    17    17    18   ar
    18    18    19   ar
    19    19    20   ar
    20    15    20   ar
    21    14    21   ar
    22    10    21   ar
    23     8    22   ar
    24     4    22   ar
    25     3    23    1
    26     5    24    1
    27     6    25    1
    28     7    26    1
    29    12    27    1
    30    13    28    1
    31    16    29    1
    32    17    30    1
    33    18    31    1
    34    19    32    1
    35    20    33    1
    36    22    34    1
@<TRIPOS>MOLECULE
mol50_1_29
 34 36 0 0 0
SMALL
USER_CHARGES
****
VDW energy = 24.13
@<TRIPOS>ATOM
   1 O1        3.3127    -9.0776    -5.5893  O.2     1  <O>11      -0.1300
   2 N1        2.8495    -9.8143    -4.4295  N.4     1  <O>11       0.0061
   3 O2        3.6348   -11.0240    -4.2799  O.2     1  <O>11      -0.3961
   4 C1        1.4620   -10.1610    -4.6040  C.ar    1  <O>11       0.1251
   5 C2        0.5542    -9.1748    -4.9956  C.ar    1  <O>11      -0.0314
   6 C3       -0.7971    -9.5018    -5.1554  C.ar    1  <O>11      -0.0561
   7 C4       -1.2363   -10.8085    -4.9266  C.ar    1  <O>11      -0.0191
   8 C5       -0.3141   -11.7868    -4.5400  C.ar    1  <O>11       0.1340
   9 O3       -0.7484   -13.0635    -4.3187  O.3     1  <O>11      -0.4235
  10 C6        0.1591   -13.7265    -3.5246  C.ar    1  <O>11       0.3239
  11 N2        1.1709   -14.4071    -4.1107  N.ar    1  <O>11      -0.2030
  12 C7        2.0457   -15.0471    -3.3131  C.ar    1  <O>11       0.0350
  13 C8        1.9647   -15.0466    -1.9444  C.ar    1  <O>11      -0.0173
  14 C9        0.9131   -14.3364    -1.4248  C.ar    1  <O>11       0.0778
  15 C10       0.7388   -14.2748    -0.0110  C.ar    1  <O>11       0.0006
  16 C11       1.6367   -14.9352     0.8435  C.ar    1  <O>11      -0.0526
  17 C12       1.4590   -14.8844     2.2307  C.ar    1  <O>11      -0.0611
  18 C13       0.3859   -14.1733     2.7764  C.ar    1  <O>11      -0.0617
  19 C14      -0.5052   -13.5120     1.9251  C.ar    1  <O>11      -0.0611
  20 C15      -0.3326   -13.5527     0.5406  C.ar    1  <O>11      -0.0526
  21 N3        0.0118   -13.6796    -2.1803  N.ar    1  <O>11      -0.1946
  22 C16       1.0360   -11.4710    -4.3802  C.ar    1  <O>11       0.0108
  23 H1        4.5620   -10.9684    -4.1569  H       1  <O>11       0.3292
  24 H2        0.8781    -8.2100    -5.1662  H       1  <O>11       0.0640
  25 H3       -1.4715    -8.7755    -5.4430  H       1  <O>11       0.0619
  26 H4       -2.2330   -11.0499    -5.0421  H       1  <O>11       0.0654
  27 H5        2.8197   -15.5667    -3.7558  H       1  <O>11       0.0832
  28 H6        2.6452   -15.5440    -1.3490  H       1  <O>11       0.0654
  29 H7        2.4313   -15.4606     0.4464  H       1  <O>11       0.0624
  30 H8        2.1220   -15.3730     2.8527  H       1  <O>11       0.0618
  31 H9        0.2524   -14.1368     3.7991  H       1  <O>11       0.0618
  32 H10      -1.2992   -12.9880     2.3251  H       1  <O>11       0.0618
  33 H11      -0.9912   -13.0529    -0.0772  H       1  <O>11       0.0624
  34 H12       1.7121   -12.1985    -4.0995  H       1  <O>11       0.0677
@<TRIPOS>BOND
     1     1     2    2
     2     2     3    1
     3     2     4    1
     4     4     5   ar
     5     5     6   ar
     6     6     7   ar
     7     7     8   ar
     8     8     9    1
     9     9    10    1
    10    10    11   ar
    11    11    12   ar
    12    12    13   ar
    13    13    14   ar
    14    14    15    1
    15    15    16   ar
    16    16    17   ar
    17    17    18   ar
    18    18    19   ar
    19    19    20   ar
    20    15    20   ar
    21    14    21   ar
    22    10    21   ar
    23     8    22   ar
    24     4    22   ar
    25     3    23    1
    26     5    24    1
    27     6    25    1
    28     7    26    1
    29    12    27    1
    30    13    28    1
    31    16    29    1
    32    17    30    1
    33    18    31    1
    34    19    32    1
    35    20    33    1
    36    22    34    1
@<TRIPOS>MOLECULE
mol50_1_30
 34 36 0 0 0
SMALL
USER_CHARGES
****
VDW energy = 25.97
@<TRIPOS>ATOM
   1 O1        3.3127    -9.0776    -5.5893  O.2     1  <O>11      -0.1300
   2 N1        2.8495    -9.8143    -4.4295  N.4     1  <O>11       0.0061
   3 O2        3.6348   -11.0240    -4.2799  O.2     1  <O>11      -0.3961
   4 C1        1.4620   -10.1610    -4.6040  C.ar    1  <O>11       0.1251
   5 C2        0.5542    -9.1748    -4.9956  C.ar    1  <O>11      -0.0314
   6 C3       -0.7971    -9.5018    -5.1554  C.ar    1  <O>11      -0.0561
   7 C4       -1.2363   -10.8085    -4.9266  C.ar    1  <O>11      -0.0191
   8 C5       -0.3141   -11.7868    -4.5400  C.ar    1  <O>11       0.1340
   9 O3       -0.7484   -13.0635    -4.3187  O.3     1  <O>11      -0.4235
  10 C6       -1.3132   -13.5628    -5.4699  C.ar    1  <O>11       0.3239
  11 N2       -2.3826   -12.9300    -6.0051  N.ar    1  <O>11      -0.2030
  12 C7       -2.9171   -13.4372    -7.1312  C.ar    1  <O>11       0.0350
  13 C8       -2.4377   -14.5569    -7.7606  C.ar    1  <O>11      -0.0173
  14 C9       -1.3537   -15.1426    -7.1588  C.ar    1  <O>11       0.0778
  15 C10      -0.7803   -16.3143    -7.7342  C.ar    1  <O>11       0.0006
  16 C11      -1.3201   -16.8648    -8.9081  C.ar    1  <O>11      -0.0526
  17 C12      -0.7644   -18.0215    -9.4666  C.ar    1  <O>11      -0.0611
  18 C13       0.3346   -18.6371    -8.8597  C.ar    1  <O>11      -0.0617
  19 C14       0.8746   -18.0858    -7.6933  C.ar    1  <O>11      -0.0611
  20 C15       0.3303   -16.9292    -7.1324  C.ar    1  <O>11      -0.0526
  21 N3       -0.7832   -14.6736    -6.0323  N.ar    1  <O>11      -0.1946
  22 C16       1.0360   -11.4710    -4.3802  C.ar    1  <O>11       0.0108
  23 H1        4.5620   -10.9684    -4.1569  H       1  <O>11       0.3292
  24 H2        0.8781    -8.2100    -5.1662  H       1  <O>11       0.0640
  25 H3       -1.4715    -8.7755    -5.4430  H       1  <O>11       0.0619
  26 H4       -2.2330   -11.0499    -5.0421  H       1  <O>11       0.0654
  27 H5       -3.7324   -12.9571    -7.5434  H       1  <O>11       0.0832
  28 H6       -2.8615   -14.9314    -8.6238  H       1  <O>11       0.0654
  29 H7       -2.1304   -16.4140    -9.3612  H       1  <O>11       0.0624
  30 H8       -1.1668   -18.4212   -10.3288  H       1  <O>11       0.0618
  31 H9        0.7440   -19.4914    -9.2692  H       1  <O>11       0.0618
  32 H10       1.6845   -18.5391    -7.2423  H       1  <O>11       0.0618
  33 H11       0.7432   -16.5263    -6.2767  H       1  <O>11       0.0624
  34 H12       1.7121   -12.1985    -4.0995  H       1  <O>11       0.0677
@<TRIPOS>BOND
     1     1     2    2
     2     2     3    1
     3     2     4    1
     4     4     5   ar
     5     5     6   ar
     6     6     7   ar
     7     7     8   ar
     8     8     9    1
     9     9    10    1
    10    10    11   ar
    11    11    12   ar
    12    12    13   ar
    13    13    14   ar
    14    14    15    1
    15    15    16   ar
    16    16    17   ar
    17    17    18   ar
    18    18    19   ar
    19    19    20   ar
    20    15    20   ar
    21    14    21   ar
    22    10    21   ar
    23     8    22   ar
    24     4    22   ar
    25     3    23    1
    26     5    24    1
    27     6    25    1
    28     7    26    1
    29    12    27    1
    30    13    28    1
    31    16    29    1
    32    17    30    1
    33    18    31    1
    34    19    32    1
    35    20    33    1
    36    22    34    1
