@<TRIPOS>MOLECULE
mol65_1_1
 38 40 0 0 0
SMALL
USER_CHARGES
****
VDW energy = 121.07
@<TRIPOS>ATOM
   1 O1       -6.3195     0.0314    -4.3629  O.2     1  <O>11      -0.2917
   2 C1       -6.0269     1.2087    -4.2154  C.2     1  <O>11       0.1676
   3 C2       -5.4450     1.6770    -2.9240  C.3     1  <O>11       0.0362
   4 C3       -6.0969     0.9682    -1.8048  C.ar    1  <O>11      -0.0322
   5 C4       -5.4191    -0.0889    -1.1915  C.ar    1  <O>11      -0.0576
   6 C5       -6.0062    -0.7515    -0.1181  C.ar    1  <O>11      -0.0609
   7 C6       -7.2793    -0.3749     0.3219  C.ar    1  <O>11      -0.0540
   8 C7       -7.9782     0.6738    -0.2988  C.ar    1  <O>11      -0.0176
   9 C8       -9.2590     1.0589     0.1278  C.ar    1  <O>11      -0.0540
  10 C9       -9.9344     2.1072    -0.4986  C.ar    1  <O>11      -0.0612
  11 C10      -9.3370     2.7868    -1.5572  C.ar    1  <O>11      -0.0612
  12 C11      -8.0635     2.4164    -1.9922  C.ar    1  <O>11      -0.0538
  13 C12      -7.3748     1.3597    -1.3752  C.ar    1  <O>11      -0.0143
  14 C13      -6.2460     2.1550    -5.3010  C.ar    1  <O>11       0.0236
  15 C14      -5.1602     2.8363    -5.8778  C.ar    1  <O>11      -0.0059
  16 C15      -5.3740     3.7542    -6.9119  C.ar    1  <O>11       0.1612
  17 O2       -4.3681     4.3801    -7.4322  O.3     1  <O>11      -0.5032
  18 C16      -6.6671     3.9960    -7.3839  C.ar    1  <O>11       0.1889
  19 O3       -6.8705     4.8438    -8.3400  O.3     1  <O>11      -0.5018
  20 C17      -7.7465     3.3115    -6.8133  C.ar    1  <O>11       0.1671
  21 N1       -9.0789     3.5654    -7.3020  N.4     1  <O>11       0.0097
  22 O4       -9.2391     2.9534    -8.6065  O.2     1  <O>11      -0.1299
  23 O5       -9.2877     4.9957    -7.4104  O.2     1  <O>11      -0.3960
  24 C18      -7.5441     2.3942    -5.7823  C.ar    1  <O>11      -0.0173
  25 H1       -4.3749     1.4684    -2.9110  H       1  <O>11       0.0394
  26 H2       -5.6085     2.7496    -2.8187  H       1  <O>11       0.0394
  27 H3       -4.6824     4.9749    -8.1313  H       1  <O>11       0.2923
  28 H4       -7.8193     4.8864    -8.5388  H       1  <O>11       0.2924
  29 H5       -4.4886    -0.3765    -1.5328  H       1  <O>11       0.0621
  30 H6       -5.5031    -1.5197     0.3528  H       1  <O>11       0.0618
  31 H7       -7.7117    -0.8749     1.1143  H       1  <O>11       0.0624
  32 H8       -9.7061     0.5611     0.9135  H       1  <O>11       0.0624
  33 H9      -10.8767     2.3788    -0.1773  H       1  <O>11       0.0618
  34 H10      -9.8352     3.5633    -2.0196  H       1  <O>11       0.0618
  35 H11      -7.6236     2.9245    -2.7754  H       1  <O>11       0.0624
  36 H12      -4.2022     2.6588    -5.5374  H       1  <O>11       0.0662
  37 H13      -9.2187     5.5383    -6.6495  H       1  <O>11       0.3292
  38 H14      -8.3472     1.8915    -5.3732  H       1  <O>11       0.0648
@<TRIPOS>BOND
     1     1     2    2
     2     2     3    1
     3     3     4    1
     4     4     5   ar
     5     5     6   ar
     6     6     7   ar
     7     7     8   ar
     8     8     9   ar
     9     9    10   ar
    10    10    11   ar
    11    11    12   ar
    12    12    13   ar
    13     4    13   ar
    14     8    13   ar
    15     2    14    1
    16    14    15   ar
    17    15    16   ar
    18    16    17    1
    19    16    18   ar
    20    18    19    1
    21    18    20   ar
    22    20    21    1
    23    21    22    2
    24    21    23    1
    25    20    24   ar
    26    14    24   ar
    27     3    25    1
    28     3    26    1
    29    17    27    1
    30    19    28    1
    31     5    29    1
    32     6    30    1
    33     7    31    1
    34     9    32    1
    35    10    33    1
    36    11    34    1
    37    12    35    1
    38    15    36    1
    39    23    37    1
    40    24    38    1
@<TRIPOS>MOLECULE
mol65_1_2
 38 40 0 0 0
SMALL
USER_CHARGES
****
VDW energy = 123.03
@<TRIPOS>ATOM
   1 O1       -6.3195     0.0314    -4.3629  O.2     1  <O>11      -0.2917
   2 C1       -6.0269     1.2087    -4.2154  C.2     1  <O>11       0.1676
   3 C2       -5.4450     1.6770    -2.9240  C.3     1  <O>11       0.0362
   4 C3       -6.0969     0.9682    -1.8048  C.ar    1  <O>11      -0.0322
   5 C4       -7.2429     1.5258    -1.2313  C.ar    1  <O>11      -0.0576
   6 C5       -7.8863     0.8589    -0.1933  C.ar    1  <O>11      -0.0609
   7 C6       -7.3682    -0.3482     0.2871  C.ar    1  <O>11      -0.0540
   8 C7       -6.2063    -0.9088    -0.2689  C.ar    1  <O>11      -0.0176
   9 C8       -5.6712    -2.1163     0.2068  C.ar    1  <O>11      -0.0540
  10 C9       -4.5190    -2.6596    -0.3630  C.ar    1  <O>11      -0.0612
  11 C10      -3.8885    -2.0050    -1.4182  C.ar    1  <O>11      -0.0612
  12 C11      -4.4090    -0.8042    -1.9031  C.ar    1  <O>11      -0.0538
  13 C12      -5.5642    -0.2428    -1.3354  C.ar    1  <O>11      -0.0143
  14 C13      -6.2460     2.1550    -5.3010  C.ar    1  <O>11       0.0236
  15 C14      -5.1658     2.8683    -5.8487  C.ar    1  <O>11      -0.0059
  16 C15      -5.3800     3.7861    -6.8829  C.ar    1  <O>11       0.1612
  17 O2       -4.3794     4.4416    -7.3763  O.3     1  <O>11      -0.5032
  18 C16      -6.6678     3.9960    -7.3838  C.ar    1  <O>11       0.1889
  19 O3       -6.8716     4.8435    -8.3401  O.3     1  <O>11      -0.5018
  20 C17      -7.7414     3.2796    -6.8421  C.ar    1  <O>11       0.1671
  21 N1       -9.0684     3.5006    -7.3605  N.4     1  <O>11       0.0097
  22 O4       -9.1817     2.8920    -8.6716  O.2     1  <O>11      -0.1299
  23 O5       -9.3129     4.9255    -7.4665  O.2     1  <O>11      -0.3960
  24 C18      -7.5385     2.3622    -5.8113  C.ar    1  <O>11      -0.0173
  25 H1       -4.3749     1.4684    -2.9110  H       1  <O>11       0.0394
  26 H2       -5.6085     2.7496    -2.8187  H       1  <O>11       0.0394
  27 H3       -4.6932     5.0318    -8.0795  H       1  <O>11       0.2923
  28 H4       -7.8163     4.8619    -8.5608  H       1  <O>11       0.2924
  29 H5       -7.6098     2.4268    -1.5756  H       1  <O>11       0.0621
  30 H6       -8.7445     1.2543     0.2215  H       1  <O>11       0.0618
  31 H7       -7.8466    -0.8342     1.0616  H       1  <O>11       0.0624
  32 H8       -6.1351    -2.6077     0.9867  H       1  <O>11       0.0624
  33 H9       -4.1340    -3.5466    -0.0024  H       1  <O>11       0.0618
  34 H10      -3.0375    -2.4073    -1.8412  H       1  <O>11       0.0618
  35 H11      -3.9400    -0.3239    -2.6869  H       1  <O>11       0.0624
  36 H12      -4.2115     2.7146    -5.4869  H       1  <O>11       0.0662
  37 H13      -9.2762     5.4653    -6.7014  H       1  <O>11       0.3292
  38 H14      -8.3372     1.8359    -5.4237  H       1  <O>11       0.0648
@<TRIPOS>BOND
     1     1     2    2
     2     2     3    1
     3     3     4    1
     4     4     5   ar
     5     5     6   ar
     6     6     7   ar
     7     7     8   ar
     8     8     9   ar
     9     9    10   ar
    10    10    11   ar
    11    11    12   ar
    12    12    13   ar
    13     4    13   ar
    14     8    13   ar
    15     2    14    1
    16    14    15   ar
    17    15    16   ar
    18    16    17    1
    19    16    18   ar
    20    18    19    1
    21    18    20   ar
    22    20    21    1
    23    21    22    2
    24    21    23    1
    25    20    24   ar
    26    14    24   ar
    27     3    25    1
    28     3    26    1
    29    17    27    1
    30    19    28    1
    31     5    29    1
    32     6    30    1
    33     7    31    1
    34     9    32    1
    35    10    33    1
    36    11    34    1
    37    12    35    1
    38    15    36    1
    39    23    37    1
    40    24    38    1
@<TRIPOS>MOLECULE
mol65_1_3
 38 40 0 0 0
SMALL
USER_CHARGES
****
VDW energy = 123.44
@<TRIPOS>ATOM
   1 O1       -6.3195     0.0314    -4.3629  O.2     1  <O>11      -0.2917
   2 C1       -6.0269     1.2087    -4.2154  C.2     1  <O>11       0.1676
   3 C2       -5.4450     1.6770    -2.9240  C.3     1  <O>11       0.0362
   4 C3       -6.0969     0.9682    -1.8048  C.ar    1  <O>11      -0.0322
   5 C4       -7.2429     1.5258    -1.2313  C.ar    1  <O>11      -0.0576
   6 C5       -7.8863     0.8589    -0.1933  C.ar    1  <O>11      -0.0609
   7 C6       -7.3682    -0.3482     0.2871  C.ar    1  <O>11      -0.0540
   8 C7       -6.2063    -0.9088    -0.2689  C.ar    1  <O>11      -0.0176
   9 C8       -5.6712    -2.1163     0.2068  C.ar    1  <O>11      -0.0540
  10 C9       -4.5190    -2.6596    -0.3630  C.ar    1  <O>11      -0.0612
  11 C10      -3.8885    -2.0050    -1.4182  C.ar    1  <O>11      -0.0612
  12 C11      -4.4090    -0.8042    -1.9031  C.ar    1  <O>11      -0.0538
  13 C12      -5.5642    -0.2428    -1.3354  C.ar    1  <O>11      -0.0143
  14 C13      -6.2460     2.1550    -5.3010  C.ar    1  <O>11       0.0236
  15 C14      -5.2369     2.3908    -6.2507  C.ar    1  <O>11      -0.0059
  16 C15      -5.4445     3.3094    -7.2854  C.ar    1  <O>11       0.1612
  17 O2       -4.5070     3.5231    -8.1512  O.3     1  <O>11      -0.5032
  18 C16      -6.6584     3.9945    -7.3869  C.ar    1  <O>11       0.1889
  19 O3       -6.8558     4.8452    -8.3418  O.3     1  <O>11      -0.5018
  20 C17      -7.6650     3.7534    -6.4445  C.ar    1  <O>11       0.1671
  21 N1       -8.9149     4.4637    -6.5520  N.4     1  <O>11       0.0097
  22 O4       -9.6777     3.9324    -7.6646  O.2     1  <O>11      -0.1299
  23 O5       -8.6511     5.8715    -6.7754  O.2     1  <O>11      -0.3960
  24 C18      -7.4682     2.8394    -5.4095  C.ar    1  <O>11      -0.0173
  25 H1       -4.3749     1.4684    -2.9110  H       1  <O>11       0.0394
  26 H2       -5.6085     2.7496    -2.8187  H       1  <O>11       0.0394
  27 H3       -4.8064     4.1814    -8.7980  H       1  <O>11       0.2923
  28 H4       -7.7452     5.2243    -8.2593  H       1  <O>11       0.2924
  29 H5       -7.6098     2.4268    -1.5756  H       1  <O>11       0.0621
  30 H6       -8.7445     1.2543     0.2215  H       1  <O>11       0.0618
  31 H7       -7.8466    -0.8342     1.0616  H       1  <O>11       0.0624
  32 H8       -6.1351    -2.6077     0.9867  H       1  <O>11       0.0624
  33 H9       -4.1340    -3.5466    -0.0024  H       1  <O>11       0.0618
  34 H10      -3.0375    -2.4073    -1.8412  H       1  <O>11       0.0618
  35 H11      -3.9400    -0.3239    -2.6869  H       1  <O>11       0.0624
  36 H12      -4.3399     1.8846    -6.1845  H       1  <O>11       0.0662
  37 H13      -8.1652     6.3633    -6.1429  H       1  <O>11       0.3292
  38 H14      -8.2197     2.6660    -4.7239  H       1  <O>11       0.0648
@<TRIPOS>BOND
     1     1     2    2
     2     2     3    1
     3     3     4    1
     4     4     5   ar
     5     5     6   ar
     6     6     7   ar
     7     7     8   ar
     8     8     9   ar
     9     9    10   ar
    10    10    11   ar
    11    11    12   ar
    12    12    13   ar
    13     4    13   ar
    14     8    13   ar
    15     2    14    1
    16    14    15   ar
    17    15    16   ar
    18    16    17    1
    19    16    18   ar
    20    18    19    1
    21    18    20   ar
    22    20    21    1
    23    21    22    2
    24    21    23    1
    25    20    24   ar
    26    14    24   ar
    27     3    25    1
    28     3    26    1
    29    17    27    1
    30    19    28    1
    31     5    29    1
    32     6    30    1
    33     7    31    1
    34     9    32    1
    35    10    33    1
    36    11    34    1
    37    12    35    1
    38    15    36    1
    39    23    37    1
    40    24    38    1
@<TRIPOS>MOLECULE
mol65_1_4
 38 40 0 0 0
SMALL
USER_CHARGES
****
VDW energy = 124.14
@<TRIPOS>ATOM
   1 O1       -6.3195     0.0314    -4.3629  O.2     1  <O>11      -0.2917
   2 C1       -6.0269     1.2087    -4.2154  C.2     1  <O>11       0.1676
   3 C2       -5.4450     1.6770    -2.9240  C.3     1  <O>11       0.0362
   4 C3       -4.3805     2.6641    -3.1932  C.ar    1  <O>11      -0.0322
   5 C4       -4.6631     4.0221    -3.0230  C.ar    1  <O>11      -0.0576
   6 C5       -3.6648     4.9653    -3.2462  C.ar    1  <O>11      -0.0609
   7 C6       -2.3960     4.5519    -3.6651  C.ar    1  <O>11      -0.0540
   8 C7       -2.1057     3.1910    -3.8578  C.ar    1  <O>11      -0.0176
   9 C8       -0.8388     2.7617    -4.2838  C.ar    1  <O>11      -0.0540
  10 C9       -0.5689     1.4044    -4.4639  C.ar    1  <O>11      -0.0612
  11 C10      -1.5604     0.4582    -4.2169  C.ar    1  <O>11      -0.0612
  12 C11      -2.8246     0.8693    -3.7918  C.ar    1  <O>11      -0.0538
  13 C12      -3.1122     2.2320    -3.6122  C.ar    1  <O>11      -0.0143
  14 C13      -6.2460     2.1550    -5.3010  C.ar    1  <O>11       0.0236
  15 C14      -7.4684     2.8405    -5.4082  C.ar    1  <O>11      -0.0059
  16 C15      -7.6817     3.7396    -6.4589  C.ar    1  <O>11       0.1612
  17 O2       -8.8126     4.3614    -6.5515  O.3     1  <O>11      -0.5032
  18 C16      -6.6793     3.9682    -7.4056  C.ar    1  <O>11       0.1889
  19 O3       -6.8711     4.7987    -8.3792  O.3     1  <O>11      -0.5018
  20 C17      -5.4599     3.2901    -7.2934  C.ar    1  <O>11       0.1671
  21 N1       -4.4295     3.5276    -8.2733  N.4     1  <O>11       0.0097
  22 O4       -3.8468     4.8368    -8.0531  O.2     1  <O>11      -0.1299
  23 O5       -5.0065     3.4728    -9.6019  O.2     1  <O>11      -0.3960
  24 C18      -5.2372     2.3921    -6.2496  C.ar    1  <O>11      -0.0173
  25 H1       -6.2258     2.1413    -2.3210  H       1  <O>11       0.0394
  26 H2       -5.0247     0.8279    -2.3849  H       1  <O>11       0.0394
  27 H3       -8.8004     4.9435    -7.3276  H       1  <O>11       0.2923
  28 H4       -6.0776     4.8335    -8.9365  H       1  <O>11       0.2924
  29 H5       -5.6066     4.3236    -2.7334  H       1  <O>11       0.0621
  30 H6       -3.8602     5.9684    -3.1028  H       1  <O>11       0.0618
  31 H7       -1.6622     5.2572    -3.8353  H       1  <O>11       0.0624
  32 H8       -0.0989     3.4576    -4.4659  H       1  <O>11       0.0624
  33 H9        0.3657     1.1018    -4.7801  H       1  <O>11       0.0618
  34 H10      -1.3607    -0.5457    -4.3481  H       1  <O>11       0.0618
  35 H11      -3.5556     0.1645    -3.6076  H       1  <O>11       0.0624
  36 H12      -8.2111     2.6801    -4.7097  H       1  <O>11       0.0662
  37 H13      -5.4247     2.6887    -9.8991  H       1  <O>11       0.3292
  38 H14      -4.3320     1.9022    -6.1743  H       1  <O>11       0.0648
@<TRIPOS>BOND
     1     1     2    2
     2     2     3    1
     3     3     4    1
     4     4     5   ar
     5     5     6   ar
     6     6     7   ar
     7     7     8   ar
     8     8     9   ar
     9     9    10   ar
    10    10    11   ar
    11    11    12   ar
    12    12    13   ar
    13     4    13   ar
    14     8    13   ar
    15     2    14    1
    16    14    15   ar
    17    15    16   ar
    18    16    17    1
    19    16    18   ar
    20    18    19    1
    21    18    20   ar
    22    20    21    1
    23    21    22    2
    24    21    23    1
    25    20    24   ar
    26    14    24   ar
    27     3    25    1
    28     3    26    1
    29    17    27    1
    30    19    28    1
    31     5    29    1
    32     6    30    1
    33     7    31    1
    34     9    32    1
    35    10    33    1
    36    11    34    1
    37    12    35    1
    38    15    36    1
    39    23    37    1
    40    24    38    1
@<TRIPOS>MOLECULE
mol65_1_5
 38 40 0 0 0
SMALL
USER_CHARGES
****
VDW energy = 125.01
@<TRIPOS>ATOM
   1 O1       -6.3195     0.0314    -4.3629  O.2     1  <O>11      -0.2917
   2 C1       -6.0269     1.2087    -4.2154  C.2     1  <O>11       0.1676
   3 C2       -5.4450     1.6770    -2.9240  C.3     1  <O>11       0.0362
   4 C3       -6.0969     0.9682    -1.8048  C.ar    1  <O>11      -0.0322
   5 C4       -7.2429     1.5258    -1.2313  C.ar    1  <O>11      -0.0576
   6 C5       -7.8863     0.8589    -0.1933  C.ar    1  <O>11      -0.0609
   7 C6       -7.3682    -0.3482     0.2871  C.ar    1  <O>11      -0.0540
   8 C7       -6.2063    -0.9088    -0.2689  C.ar    1  <O>11      -0.0176
   9 C8       -5.6712    -2.1163     0.2068  C.ar    1  <O>11      -0.0540
  10 C9       -4.5190    -2.6596    -0.3630  C.ar    1  <O>11      -0.0612
  11 C10      -3.8885    -2.0050    -1.4182  C.ar    1  <O>11      -0.0612
  12 C11      -4.4090    -0.8042    -1.9031  C.ar    1  <O>11      -0.0538
  13 C12      -5.5642    -0.2428    -1.3354  C.ar    1  <O>11      -0.0143
  14 C13      -6.2460     2.1550    -5.3010  C.ar    1  <O>11       0.0236
  15 C14      -7.4684     2.8405    -5.4082  C.ar    1  <O>11      -0.0059
  16 C15      -7.6817     3.7396    -6.4589  C.ar    1  <O>11       0.1612
  17 O2       -8.8126     4.3614    -6.5515  O.3     1  <O>11      -0.5032
  18 C16      -6.6793     3.9682    -7.4056  C.ar    1  <O>11       0.1889
  19 O3       -6.8711     4.7987    -8.3792  O.3     1  <O>11      -0.5018
  20 C17      -5.4599     3.2901    -7.2934  C.ar    1  <O>11       0.1671
  21 N1       -4.4295     3.5276    -8.2733  N.4     1  <O>11       0.0097
  22 O4       -3.8468     4.8368    -8.0531  O.2     1  <O>11      -0.1299
  23 O5       -5.0065     3.4728    -9.6019  O.2     1  <O>11      -0.3960
  24 C18      -5.2372     2.3921    -6.2496  C.ar    1  <O>11      -0.0173
  25 H1       -4.3749     1.4684    -2.9110  H       1  <O>11       0.0394
  26 H2       -5.6085     2.7496    -2.8187  H       1  <O>11       0.0394
  27 H3       -8.8004     4.9435    -7.3276  H       1  <O>11       0.2923
  28 H4       -6.0776     4.8335    -8.9365  H       1  <O>11       0.2924
  29 H5       -7.6098     2.4268    -1.5756  H       1  <O>11       0.0621
  30 H6       -8.7445     1.2543     0.2215  H       1  <O>11       0.0618
  31 H7       -7.8466    -0.8342     1.0616  H       1  <O>11       0.0624
  32 H8       -6.1351    -2.6077     0.9867  H       1  <O>11       0.0624
  33 H9       -4.1340    -3.5466    -0.0024  H       1  <O>11       0.0618
  34 H10      -3.0375    -2.4073    -1.8412  H       1  <O>11       0.0618
  35 H11      -3.9400    -0.3239    -2.6869  H       1  <O>11       0.0624
  36 H12      -8.2111     2.6801    -4.7097  H       1  <O>11       0.0662
  37 H13      -5.4247     2.6887    -9.8991  H       1  <O>11       0.3292
  38 H14      -4.3320     1.9022    -6.1743  H       1  <O>11       0.0648
@<TRIPOS>BOND
     1     1     2    2
     2     2     3    1
     3     3     4    1
     4     4     5   ar
     5     5     6   ar
     6     6     7   ar
     7     7     8   ar
     8     8     9   ar
     9     9    10   ar
    10    10    11   ar
    11    11    12   ar
    12    12    13   ar
    13     4    13   ar
    14     8    13   ar
    15     2    14    1
    16    14    15   ar
    17    15    16   ar
    18    16    17    1
    19    16    18   ar
    20    18    19    1
    21    18    20   ar
    22    20    21    1
    23    21    22    2
    24    21    23    1
    25    20    24   ar
    26    14    24   ar
    27     3    25    1
    28     3    26    1
    29    17    27    1
    30    19    28    1
    31     5    29    1
    32     6    30    1
    33     7    31    1
    34     9    32    1
    35    10    33    1
    36    11    34    1
    37    12    35    1
    38    15    36    1
    39    23    37    1
    40    24    38    1
@<TRIPOS>MOLECULE
mol65_1_6
 38 40 0 0 0
SMALL
USER_CHARGES
****
VDW energy = 125.34
@<TRIPOS>ATOM
   1 O1       -6.3195     0.0314    -4.3629  O.2     1  <O>11      -0.2917
   2 C1       -6.0269     1.2087    -4.2154  C.2     1  <O>11       0.1676
   3 C2       -5.4450     1.6770    -2.9240  C.3     1  <O>11       0.0362
   4 C3       -6.0155     2.9936    -2.5760  C.ar    1  <O>11      -0.0322
   5 C4       -5.1534     4.0843    -2.4336  C.ar    1  <O>11      -0.0576
   6 C5       -5.6754     5.3384    -2.1322  C.ar    1  <O>11      -0.0609
   7 C6       -7.0529     5.4941    -1.9466  C.ar    1  <O>11      -0.0540
   8 C7       -7.9272     4.4013    -2.0686  C.ar    1  <O>11      -0.0176
   9 C8       -9.3112     4.5412    -1.8791  C.ar    1  <O>11      -0.0540
  10 C9      -10.1636     3.4440    -2.0104  C.ar    1  <O>11      -0.0612
  11 C10      -9.6444     2.1936    -2.3363  C.ar    1  <O>11      -0.0612
  12 C11      -8.2707     2.0388    -2.5289  C.ar    1  <O>11      -0.0538
  13 C12      -7.4005     3.1326    -2.3941  C.ar    1  <O>11      -0.0143
  14 C13      -6.2460     2.1550    -5.3010  C.ar    1  <O>11       0.0236
  15 C14      -5.1658     2.8683    -5.8487  C.ar    1  <O>11      -0.0059
  16 C15      -5.3800     3.7861    -6.8829  C.ar    1  <O>11       0.1612
  17 O2       -4.3794     4.4416    -7.3763  O.3     1  <O>11      -0.5032
  18 C16      -6.6678     3.9960    -7.3838  C.ar    1  <O>11       0.1889
  19 O3       -6.8716     4.8435    -8.3401  O.3     1  <O>11      -0.5018
  20 C17      -7.7414     3.2796    -6.8421  C.ar    1  <O>11       0.1671
  21 N1       -9.0684     3.5006    -7.3605  N.4     1  <O>11       0.0097
  22 O4       -9.1817     2.8920    -8.6716  O.2     1  <O>11      -0.1299
  23 O5       -9.3129     4.9255    -7.4665  O.2     1  <O>11      -0.3960
  24 C18      -7.5385     2.3622    -5.8113  C.ar    1  <O>11      -0.0173
  25 H1       -5.6820     0.9599    -2.1376  H       1  <O>11       0.0394
  26 H2       -4.3630     1.7650    -3.0229  H       1  <O>11       0.0394
  27 H3       -4.6932     5.0318    -8.0795  H       1  <O>11       0.2923
  28 H4       -7.8163     4.8619    -8.5608  H       1  <O>11       0.2924
  29 H5       -4.1357     3.9604    -2.5514  H       1  <O>11       0.0621
  30 H6       -5.0471     6.1524    -2.0456  H       1  <O>11       0.0618
  31 H7       -7.4326     6.4257    -1.7166  H       1  <O>11       0.0624
  32 H8       -9.7026     5.4656    -1.6402  H       1  <O>11       0.0624
  33 H9      -11.1789     3.5594    -1.8659  H       1  <O>11       0.0618
  34 H10     -10.2746     1.3824    -2.4354  H       1  <O>11       0.0618
  35 H11      -7.8907     1.1108    -2.7727  H       1  <O>11       0.0624
  36 H12      -4.2115     2.7146    -5.4869  H       1  <O>11       0.0662
  37 H13      -9.2762     5.4653    -6.7014  H       1  <O>11       0.3292
  38 H14      -8.3372     1.8359    -5.4237  H       1  <O>11       0.0648
@<TRIPOS>BOND
     1     1     2    2
     2     2     3    1
     3     3     4    1
     4     4     5   ar
     5     5     6   ar
     6     6     7   ar
     7     7     8   ar
     8     8     9   ar
     9     9    10   ar
    10    10    11   ar
    11    11    12   ar
    12    12    13   ar
    13     4    13   ar
    14     8    13   ar
    15     2    14    1
    16    14    15   ar
    17    15    16   ar
    18    16    17    1
    19    16    18   ar
    20    18    19    1
    21    18    20   ar
    22    20    21    1
    23    21    22    2
    24    21    23    1
    25    20    24   ar
    26    14    24   ar
    27     3    25    1
    28     3    26    1
    29    17    27    1
    30    19    28    1
    31     5    29    1
    32     6    30    1
    33     7    31    1
    34     9    32    1
    35    10    33    1
    36    11    34    1
    37    12    35    1
    38    15    36    1
    39    23    37    1
    40    24    38    1
@<TRIPOS>MOLECULE
mol65_1_7
 38 40 0 0 0
SMALL
USER_CHARGES
****
VDW energy = 125.78
@<TRIPOS>ATOM
   1 O1       -6.3195     0.0314    -4.3629  O.2     1  <O>11      -0.2917
   2 C1       -6.0269     1.2087    -4.2154  C.2     1  <O>11       0.1676
   3 C2       -5.4450     1.6770    -2.9240  C.3     1  <O>11       0.0362
   4 C3       -6.0969     0.9682    -1.8048  C.ar    1  <O>11      -0.0322
   5 C4       -5.4191    -0.0889    -1.1915  C.ar    1  <O>11      -0.0576
   6 C5       -6.0062    -0.7515    -0.1181  C.ar    1  <O>11      -0.0609
   7 C6       -7.2793    -0.3749     0.3219  C.ar    1  <O>11      -0.0540
   8 C7       -7.9782     0.6738    -0.2988  C.ar    1  <O>11      -0.0176
   9 C8       -9.2590     1.0589     0.1278  C.ar    1  <O>11      -0.0540
  10 C9       -9.9344     2.1072    -0.4986  C.ar    1  <O>11      -0.0612
  11 C10      -9.3370     2.7868    -1.5572  C.ar    1  <O>11      -0.0612
  12 C11      -8.0635     2.4164    -1.9922  C.ar    1  <O>11      -0.0538
  13 C12      -7.3748     1.3597    -1.3752  C.ar    1  <O>11      -0.0143
  14 C13      -6.2460     2.1550    -5.3010  C.ar    1  <O>11       0.0236
  15 C14      -7.4684     2.8405    -5.4082  C.ar    1  <O>11      -0.0059
  16 C15      -7.6817     3.7396    -6.4589  C.ar    1  <O>11       0.1612
  17 O2       -8.8126     4.3614    -6.5515  O.3     1  <O>11      -0.5032
  18 C16      -6.6793     3.9682    -7.4056  C.ar    1  <O>11       0.1889
  19 O3       -6.8711     4.7987    -8.3792  O.3     1  <O>11      -0.5018
  20 C17      -5.4599     3.2901    -7.2934  C.ar    1  <O>11       0.1671
  21 N1       -4.4295     3.5276    -8.2733  N.4     1  <O>11       0.0097
  22 O4       -3.8468     4.8368    -8.0531  O.2     1  <O>11      -0.1299
  23 O5       -5.0065     3.4728    -9.6019  O.2     1  <O>11      -0.3960
  24 C18      -5.2372     2.3921    -6.2496  C.ar    1  <O>11      -0.0173
  25 H1       -4.3749     1.4684    -2.9110  H       1  <O>11       0.0394
  26 H2       -5.6085     2.7496    -2.8187  H       1  <O>11       0.0394
  27 H3       -8.8004     4.9435    -7.3276  H       1  <O>11       0.2923
  28 H4       -6.0776     4.8335    -8.9365  H       1  <O>11       0.2924
  29 H5       -4.4886    -0.3765    -1.5328  H       1  <O>11       0.0621
  30 H6       -5.5031    -1.5197     0.3528  H       1  <O>11       0.0618
  31 H7       -7.7117    -0.8749     1.1143  H       1  <O>11       0.0624
  32 H8       -9.7061     0.5611     0.9135  H       1  <O>11       0.0624
  33 H9      -10.8767     2.3788    -0.1773  H       1  <O>11       0.0618
  34 H10      -9.8352     3.5633    -2.0196  H       1  <O>11       0.0618
  35 H11      -7.6236     2.9245    -2.7754  H       1  <O>11       0.0624
  36 H12      -8.2111     2.6801    -4.7097  H       1  <O>11       0.0662
  37 H13      -5.4247     2.6887    -9.8991  H       1  <O>11       0.3292
  38 H14      -4.3320     1.9022    -6.1743  H       1  <O>11       0.0648
@<TRIPOS>BOND
     1     1     2    2
     2     2     3    1
     3     3     4    1
     4     4     5   ar
     5     5     6   ar
     6     6     7   ar
     7     7     8   ar
     8     8     9   ar
     9     9    10   ar
    10    10    11   ar
    11    11    12   ar
    12    12    13   ar
    13     4    13   ar
    14     8    13   ar
    15     2    14    1
    16    14    15   ar
    17    15    16   ar
    18    16    17    1
    19    16    18   ar
    20    18    19    1
    21    18    20   ar
    22    20    21    1
    23    21    22    2
    24    21    23    1
    25    20    24   ar
    26    14    24   ar
    27     3    25    1
    28     3    26    1
    29    17    27    1
    30    19    28    1
    31     5    29    1
    32     6    30    1
    33     7    31    1
    34     9    32    1
    35    10    33    1
    36    11    34    1
    37    12    35    1
    38    15    36    1
    39    23    37    1
    40    24    38    1
@<TRIPOS>MOLECULE
mol65_1_8
 38 40 0 0 0
SMALL
USER_CHARGES
****
VDW energy = 134.69
@<TRIPOS>ATOM
   1 O1       -6.3195     0.0314    -4.3629  O.2     1  <O>11      -0.2917
   2 C1       -6.0269     1.2087    -4.2154  C.2     1  <O>11       0.1676
   3 C2       -5.4450     1.6770    -2.9240  C.3     1  <O>11       0.0362
   4 C3       -6.0969     0.9682    -1.8048  C.ar    1  <O>11      -0.0322
   5 C4       -5.4191    -0.0889    -1.1915  C.ar    1  <O>11      -0.0576
   6 C5       -6.0062    -0.7515    -0.1181  C.ar    1  <O>11      -0.0609
   7 C6       -7.2793    -0.3749     0.3219  C.ar    1  <O>11      -0.0540
   8 C7       -7.9782     0.6738    -0.2988  C.ar    1  <O>11      -0.0176
   9 C8       -9.2590     1.0589     0.1278  C.ar    1  <O>11      -0.0540
  10 C9       -9.9344     2.1072    -0.4986  C.ar    1  <O>11      -0.0612
  11 C10      -9.3370     2.7868    -1.5572  C.ar    1  <O>11      -0.0612
  12 C11      -8.0635     2.4164    -1.9922  C.ar    1  <O>11      -0.0538
  13 C12      -7.3748     1.3597    -1.3752  C.ar    1  <O>11      -0.0143
  14 C13      -6.2460     2.1550    -5.3010  C.ar    1  <O>11       0.0236
  15 C14      -6.7939     1.7208    -6.5204  C.ar    1  <O>11      -0.0059
  16 C15      -6.9919     2.6288    -7.5664  C.ar    1  <O>11       0.1612
  17 O2       -7.4918     2.2176    -8.6868  O.3     1  <O>11      -0.5032
  18 C16      -6.6530     3.9750    -7.4050  C.ar    1  <O>11       0.1889
  19 O3       -6.8340     4.8190    -8.3690  O.3     1  <O>11      -0.5018
  20 C17      -6.1141     4.4072    -6.1876  C.ar    1  <O>11       0.1671
  21 N1       -5.7643     5.7965    -6.0261  N.4     1  <O>11       0.0097
  22 O4       -6.9730     6.5865    -5.8969  O.2     1  <O>11      -0.1299
  23 O5       -5.0169     6.2428    -7.1853  O.2     1  <O>11      -0.3960
  24 C18      -5.9131     3.5102    -5.1386  C.ar    1  <O>11      -0.0173
  25 H1       -4.3749     1.4684    -2.9110  H       1  <O>11       0.0394
  26 H2       -5.6085     2.7496    -2.8187  H       1  <O>11       0.0394
  27 H3       -7.5650     2.9636    -9.3027  H       1  <O>11       0.2923
  28 H4       -6.5458     5.7012    -8.0857  H       1  <O>11       0.2924
  29 H5       -4.4886    -0.3765    -1.5328  H       1  <O>11       0.0621
  30 H6       -5.5031    -1.5197     0.3528  H       1  <O>11       0.0618
  31 H7       -7.7117    -0.8749     1.1143  H       1  <O>11       0.0624
  32 H8       -9.7061     0.5611     0.9135  H       1  <O>11       0.0624
  33 H9      -10.8767     2.3788    -0.1773  H       1  <O>11       0.0618
  34 H10      -9.8352     3.5633    -2.0196  H       1  <O>11       0.0618
  35 H11      -7.6236     2.9245    -2.7754  H       1  <O>11       0.0624
  36 H12      -7.0509     0.7290    -6.6447  H       1  <O>11       0.0662
  37 H13      -4.2057     5.8296    -7.4073  H       1  <O>11       0.3292
  38 H14      -5.5202     3.8418    -4.2438  H       1  <O>11       0.0648
@<TRIPOS>BOND
     1     1     2    2
     2     2     3    1
     3     3     4    1
     4     4     5   ar
     5     5     6   ar
     6     6     7   ar
     7     7     8   ar
     8     8     9   ar
     9     9    10   ar
    10    10    11   ar
    11    11    12   ar
    12    12    13   ar
    13     4    13   ar
    14     8    13   ar
    15     2    14    1
    16    14    15   ar
    17    15    16   ar
    18    16    17    1
    19    16    18   ar
    20    18    19    1
    21    18    20   ar
    22    20    21    1
    23    21    22    2
    24    21    23    1
    25    20    24   ar
    26    14    24   ar
    27     3    25    1
    28     3    26    1
    29    17    27    1
    30    19    28    1
    31     5    29    1
    32     6    30    1
    33     7    31    1
    34     9    32    1
    35    10    33    1
    36    11    34    1
    37    12    35    1
    38    15    36    1
    39    23    37    1
    40    24    38    1
@<TRIPOS>MOLECULE
mol65_1_9
 38 40 0 0 0
SMALL
USER_CHARGES
****
VDW energy = 135.81
@<TRIPOS>ATOM
   1 O1       -6.3195     0.0314    -4.3629  O.2     1  <O>11      -0.2917
   2 C1       -6.0269     1.2087    -4.2154  C.2     1  <O>11       0.1676
   3 C2       -5.4450     1.6770    -2.9240  C.3     1  <O>11       0.0362
   4 C3       -6.0155     2.9936    -2.5760  C.ar    1  <O>11      -0.0322
   5 C4       -5.1534     4.0843    -2.4336  C.ar    1  <O>11      -0.0576
   6 C5       -5.6754     5.3384    -2.1322  C.ar    1  <O>11      -0.0609
   7 C6       -7.0529     5.4941    -1.9466  C.ar    1  <O>11      -0.0540
   8 C7       -7.9272     4.4013    -2.0686  C.ar    1  <O>11      -0.0176
   9 C8       -9.3112     4.5412    -1.8791  C.ar    1  <O>11      -0.0540
  10 C9      -10.1636     3.4440    -2.0104  C.ar    1  <O>11      -0.0612
  11 C10      -9.6444     2.1936    -2.3363  C.ar    1  <O>11      -0.0612
  12 C11      -8.2707     2.0388    -2.5289  C.ar    1  <O>11      -0.0538
  13 C12      -7.4005     3.1326    -2.3941  C.ar    1  <O>11      -0.0143
  14 C13      -6.2460     2.1550    -5.3010  C.ar    1  <O>11       0.0236
  15 C14      -7.4684     2.8405    -5.4082  C.ar    1  <O>11      -0.0059
  16 C15      -7.6817     3.7396    -6.4589  C.ar    1  <O>11       0.1612
  17 O2       -8.8126     4.3614    -6.5515  O.3     1  <O>11      -0.5032
  18 C16      -6.6793     3.9682    -7.4056  C.ar    1  <O>11       0.1889
  19 O3       -6.8711     4.7987    -8.3792  O.3     1  <O>11      -0.5018
  20 C17      -5.4599     3.2901    -7.2934  C.ar    1  <O>11       0.1671
  21 N1       -4.4295     3.5276    -8.2733  N.4     1  <O>11       0.0097
  22 O4       -3.8468     4.8368    -8.0531  O.2     1  <O>11      -0.1299
  23 O5       -5.0065     3.4728    -9.6019  O.2     1  <O>11      -0.3960
  24 C18      -5.2372     2.3921    -6.2496  C.ar    1  <O>11      -0.0173
  25 H1       -5.6820     0.9599    -2.1376  H       1  <O>11       0.0394
  26 H2       -4.3630     1.7650    -3.0229  H       1  <O>11       0.0394
  27 H3       -8.8004     4.9435    -7.3276  H       1  <O>11       0.2923
  28 H4       -6.0776     4.8335    -8.9365  H       1  <O>11       0.2924
  29 H5       -4.1357     3.9604    -2.5514  H       1  <O>11       0.0621
  30 H6       -5.0471     6.1524    -2.0456  H       1  <O>11       0.0618
  31 H7       -7.4326     6.4257    -1.7166  H       1  <O>11       0.0624
  32 H8       -9.7026     5.4656    -1.6402  H       1  <O>11       0.0624
  33 H9      -11.1789     3.5594    -1.8659  H       1  <O>11       0.0618
  34 H10     -10.2746     1.3824    -2.4354  H       1  <O>11       0.0618
  35 H11      -7.8907     1.1108    -2.7727  H       1  <O>11       0.0624
  36 H12      -8.2111     2.6801    -4.7097  H       1  <O>11       0.0662
  37 H13      -5.4247     2.6887    -9.8991  H       1  <O>11       0.3292
  38 H14      -4.3320     1.9022    -6.1743  H       1  <O>11       0.0648
@<TRIPOS>BOND
     1     1     2    2
     2     2     3    1
     3     3     4    1
     4     4     5   ar
     5     5     6   ar
     6     6     7   ar
     7     7     8   ar
     8     8     9   ar
     9     9    10   ar
    10    10    11   ar
    11    11    12   ar
    12    12    13   ar
    13     4    13   ar
    14     8    13   ar
    15     2    14    1
    16    14    15   ar
    17    15    16   ar
    18    16    17    1
    19    16    18   ar
    20    18    19    1
    21    18    20   ar
    22    20    21    1
    23    21    22    2
    24    21    23    1
    25    20    24   ar
    26    14    24   ar
    27     3    25    1
    28     3    26    1
    29    17    27    1
    30    19    28    1
    31     5    29    1
    32     6    30    1
    33     7    31    1
    34     9    32    1
    35    10    33    1
    36    11    34    1
    37    12    35    1
    38    15    36    1
    39    23    37    1
    40    24    38    1
@<TRIPOS>MOLECULE
mol65_1_10
 38 40 0 0 0
SMALL
USER_CHARGES
****
VDW energy = 136.44
@<TRIPOS>ATOM
   1 O1       -6.3195     0.0314    -4.3629  O.2     1  <O>11      -0.2917
   2 C1       -6.0269     1.2087    -4.2154  C.2     1  <O>11       0.1676
   3 C2       -5.4450     1.6770    -2.9240  C.3     1  <O>11       0.0362
   4 C3       -6.0969     0.9682    -1.8048  C.ar    1  <O>11      -0.0322
   5 C4       -7.2429     1.5258    -1.2313  C.ar    1  <O>11      -0.0576
   6 C5       -7.8863     0.8589    -0.1933  C.ar    1  <O>11      -0.0609
   7 C6       -7.3682    -0.3482     0.2871  C.ar    1  <O>11      -0.0540
   8 C7       -6.2063    -0.9088    -0.2689  C.ar    1  <O>11      -0.0176
   9 C8       -5.6712    -2.1163     0.2068  C.ar    1  <O>11      -0.0540
  10 C9       -4.5190    -2.6596    -0.3630  C.ar    1  <O>11      -0.0612
  11 C10      -3.8885    -2.0050    -1.4182  C.ar    1  <O>11      -0.0612
  12 C11      -4.4090    -0.8042    -1.9031  C.ar    1  <O>11      -0.0538
  13 C12      -5.5642    -0.2428    -1.3354  C.ar    1  <O>11      -0.0143
  14 C13      -6.2460     2.1550    -5.3010  C.ar    1  <O>11       0.0236
  15 C14      -6.7939     1.7208    -6.5204  C.ar    1  <O>11      -0.0059
  16 C15      -6.9919     2.6288    -7.5664  C.ar    1  <O>11       0.1612
  17 O2       -7.4918     2.2176    -8.6868  O.3     1  <O>11      -0.5032
  18 C16      -6.6530     3.9750    -7.4050  C.ar    1  <O>11       0.1889
  19 O3       -6.8340     4.8190    -8.3690  O.3     1  <O>11      -0.5018
  20 C17      -6.1141     4.4072    -6.1876  C.ar    1  <O>11       0.1671
  21 N1       -5.7643     5.7965    -6.0261  N.4     1  <O>11       0.0097
  22 O4       -6.9730     6.5865    -5.8969  O.2     1  <O>11      -0.1299
  23 O5       -5.0169     6.2428    -7.1853  O.2     1  <O>11      -0.3960
  24 C18      -5.9131     3.5102    -5.1386  C.ar    1  <O>11      -0.0173
  25 H1       -4.3749     1.4684    -2.9110  H       1  <O>11       0.0394
  26 H2       -5.6085     2.7496    -2.8187  H       1  <O>11       0.0394
  27 H3       -7.5650     2.9636    -9.3027  H       1  <O>11       0.2923
  28 H4       -6.5458     5.7012    -8.0857  H       1  <O>11       0.2924
  29 H5       -7.6098     2.4268    -1.5756  H       1  <O>11       0.0621
  30 H6       -8.7445     1.2543     0.2215  H       1  <O>11       0.0618
  31 H7       -7.8466    -0.8342     1.0616  H       1  <O>11       0.0624
  32 H8       -6.1351    -2.6077     0.9867  H       1  <O>11       0.0624
  33 H9       -4.1340    -3.5466    -0.0024  H       1  <O>11       0.0618
  34 H10      -3.0375    -2.4073    -1.8412  H       1  <O>11       0.0618
  35 H11      -3.9400    -0.3239    -2.6869  H       1  <O>11       0.0624
  36 H12      -7.0509     0.7290    -6.6447  H       1  <O>11       0.0662
  37 H13      -4.2057     5.8296    -7.4073  H       1  <O>11       0.3292
  38 H14      -5.5202     3.8418    -4.2438  H       1  <O>11       0.0648
@<TRIPOS>BOND
     1     1     2    2
     2     2     3    1
     3     3     4    1
     4     4     5   ar
     5     5     6   ar
     6     6     7   ar
     7     7     8   ar
     8     8     9   ar
     9     9    10   ar
    10    10    11   ar
    11    11    12   ar
    12    12    13   ar
    13     4    13   ar
    14     8    13   ar
    15     2    14    1
    16    14    15   ar
    17    15    16   ar
    18    16    17    1
    19    16    18   ar
    20    18    19    1
    21    18    20   ar
    22    20    21    1
    23    21    22    2
    24    21    23    1
    25    20    24   ar
    26    14    24   ar
    27     3    25    1
    28     3    26    1
    29    17    27    1
    30    19    28    1
    31     5    29    1
    32     6    30    1
    33     7    31    1
    34     9    32    1
    35    10    33    1
    36    11    34    1
    37    12    35    1
    38    15    36    1
    39    23    37    1
    40    24    38    1
@<TRIPOS>MOLECULE
mol65_1_11
 38 40 0 0 0
SMALL
USER_CHARGES
****
VDW energy = 138.11
@<TRIPOS>ATOM
   1 O1       -6.3195     0.0314    -4.3629  O.2     1  <O>11      -0.2917
   2 C1       -6.0269     1.2087    -4.2154  C.2     1  <O>11       0.1676
   3 C2       -5.4450     1.6770    -2.9240  C.3     1  <O>11       0.0362
   4 C3       -6.0969     0.9682    -1.8048  C.ar    1  <O>11      -0.0322
   5 C4       -7.2429     1.5258    -1.2313  C.ar    1  <O>11      -0.0576
   6 C5       -7.8863     0.8589    -0.1933  C.ar    1  <O>11      -0.0609
   7 C6       -7.3682    -0.3482     0.2871  C.ar    1  <O>11      -0.0540
   8 C7       -6.2063    -0.9088    -0.2689  C.ar    1  <O>11      -0.0176
   9 C8       -5.6712    -2.1163     0.2068  C.ar    1  <O>11      -0.0540
  10 C9       -4.5190    -2.6596    -0.3630  C.ar    1  <O>11      -0.0612
  11 C10      -3.8885    -2.0050    -1.4182  C.ar    1  <O>11      -0.0612
  12 C11      -4.4090    -0.8042    -1.9031  C.ar    1  <O>11      -0.0538
  13 C12      -5.5642    -0.2428    -1.3354  C.ar    1  <O>11      -0.0143
  14 C13      -6.2460     2.1550    -5.3010  C.ar    1  <O>11       0.0236
  15 C14      -7.4684     2.8405    -5.4082  C.ar    1  <O>11      -0.0059
  16 C15      -7.6817     3.7396    -6.4589  C.ar    1  <O>11       0.1612
  17 O2       -8.8126     4.3614    -6.5515  O.3     1  <O>11      -0.5032
  18 C16      -6.6793     3.9682    -7.4056  C.ar    1  <O>11       0.1889
  19 O3       -6.8711     4.7987    -8.3792  O.3     1  <O>11      -0.5018
  20 C17      -5.4599     3.2901    -7.2934  C.ar    1  <O>11       0.1671
  21 N1       -4.4295     3.5276    -8.2733  N.4     1  <O>11       0.0097
  22 O4       -3.6229     2.3324    -8.4247  O.2     1  <O>11      -0.1299
  23 O5       -3.5900     4.6245    -7.8332  O.2     1  <O>11      -0.3960
  24 C18      -5.2372     2.3921    -6.2496  C.ar    1  <O>11      -0.0173
  25 H1       -4.3749     1.4684    -2.9110  H       1  <O>11       0.0394
  26 H2       -5.6085     2.7496    -2.8187  H       1  <O>11       0.0394
  27 H3       -8.8004     4.9435    -7.3276  H       1  <O>11       0.2923
  28 H4       -6.0776     4.8335    -8.9365  H       1  <O>11       0.2924
  29 H5       -7.6098     2.4268    -1.5756  H       1  <O>11       0.0621
  30 H6       -8.7445     1.2543     0.2215  H       1  <O>11       0.0618
  31 H7       -7.8466    -0.8342     1.0616  H       1  <O>11       0.0624
  32 H8       -6.1351    -2.6077     0.9867  H       1  <O>11       0.0624
  33 H9       -4.1340    -3.5466    -0.0024  H       1  <O>11       0.0618
  34 H10      -3.0375    -2.4073    -1.8412  H       1  <O>11       0.0618
  35 H11      -3.9400    -0.3239    -2.6869  H       1  <O>11       0.0624
  36 H12      -8.2111     2.6801    -4.7097  H       1  <O>11       0.0662
  37 H13      -3.9636     5.4715    -7.6882  H       1  <O>11       0.3292
  38 H14      -4.3320     1.9022    -6.1743  H       1  <O>11       0.0648
@<TRIPOS>BOND
     1     1     2    2
     2     2     3    1
     3     3     4    1
     4     4     5   ar
     5     5     6   ar
     6     6     7   ar
     7     7     8   ar
     8     8     9   ar
     9     9    10   ar
    10    10    11   ar
    11    11    12   ar
    12    12    13   ar
    13     4    13   ar
    14     8    13   ar
    15     2    14    1
    16    14    15   ar
    17    15    16   ar
    18    16    17    1
    19    16    18   ar
    20    18    19    1
    21    18    20   ar
    22    20    21    1
    23    21    22    2
    24    21    23    1
    25    20    24   ar
    26    14    24   ar
    27     3    25    1
    28     3    26    1
    29    17    27    1
    30    19    28    1
    31     5    29    1
    32     6    30    1
    33     7    31    1
    34     9    32    1
    35    10    33    1
    36    11    34    1
    37    12    35    1
    38    15    36    1
    39    23    37    1
    40    24    38    1
@<TRIPOS>MOLECULE
mol65_1_12
 38 40 0 0 0
SMALL
USER_CHARGES
****
VDW energy = 138.50
@<TRIPOS>ATOM
   1 O1       -6.3195     0.0314    -4.3629  O.2     1  <O>11      -0.2917
   2 C1       -6.0269     1.2087    -4.2154  C.2     1  <O>11       0.1676
   3 C2       -5.4450     1.6770    -2.9240  C.3     1  <O>11       0.0362
   4 C3       -6.0155     2.9936    -2.5760  C.ar    1  <O>11      -0.0322
   5 C4       -7.0229     3.0564    -1.6094  C.ar    1  <O>11      -0.0576
   6 C5       -7.5540     4.2910    -1.2492  C.ar    1  <O>11      -0.0609
   7 C6       -7.0974     5.4558    -1.8744  C.ar    1  <O>11      -0.0540
   8 C7       -6.0985     5.4032    -2.8608  C.ar    1  <O>11      -0.0176
   9 C8       -5.6346     6.5630    -3.5013  C.ar    1  <O>11      -0.0540
  10 C9       -4.6374     6.4900    -4.4748  C.ar    1  <O>11      -0.0612
  11 C10      -4.0881     5.2572    -4.8182  C.ar    1  <O>11      -0.0612
  12 C11      -4.5380     4.0952    -4.1896  C.ar    1  <O>11      -0.0538
  13 C12      -5.5450     4.1529    -3.2126  C.ar    1  <O>11      -0.0143
  14 C13      -6.2460     2.1550    -5.3010  C.ar    1  <O>11       0.0236
  15 C14      -7.4684     2.8405    -5.4082  C.ar    1  <O>11      -0.0059
  16 C15      -7.6817     3.7396    -6.4589  C.ar    1  <O>11       0.1612
  17 O2       -8.8126     4.3614    -6.5515  O.3     1  <O>11      -0.5032
  18 C16      -6.6793     3.9682    -7.4056  C.ar    1  <O>11       0.1889
  19 O3       -6.8711     4.7987    -8.3792  O.3     1  <O>11      -0.5018
  20 C17      -5.4599     3.2901    -7.2934  C.ar    1  <O>11       0.1671
  21 N1       -4.4295     3.5276    -8.2733  N.4     1  <O>11       0.0097
  22 O4       -3.8468     4.8368    -8.0531  O.2     1  <O>11      -0.1299
  23 O5       -5.0065     3.4728    -9.6019  O.2     1  <O>11      -0.3960
  24 C18      -5.2372     2.3921    -6.2496  C.ar    1  <O>11      -0.0173
  25 H1       -5.6820     0.9599    -2.1376  H       1  <O>11       0.0394
  26 H2       -4.3630     1.7650    -3.0229  H       1  <O>11       0.0394
  27 H3       -8.8004     4.9435    -7.3276  H       1  <O>11       0.2923
  28 H4       -6.0776     4.8335    -8.9365  H       1  <O>11       0.2924
  29 H5       -7.3709     2.1922    -1.1655  H       1  <O>11       0.0621
  30 H6       -8.2838     4.3471    -0.5217  H       1  <O>11       0.0618
  31 H7       -7.5003     6.3674    -1.6072  H       1  <O>11       0.0624
  32 H8       -6.0356     7.4799    -3.2494  H       1  <O>11       0.0624
  33 H9       -4.3069     7.3497    -4.9403  H       1  <O>11       0.0618
  34 H10      -3.3493     5.2029    -5.5367  H       1  <O>11       0.0618
  35 H11      -4.1263     3.1841    -4.4454  H       1  <O>11       0.0624
  36 H12      -8.2111     2.6801    -4.7097  H       1  <O>11       0.0662
  37 H13      -5.4247     2.6887    -9.8991  H       1  <O>11       0.3292
  38 H14      -4.3320     1.9022    -6.1743  H       1  <O>11       0.0648
@<TRIPOS>BOND
     1     1     2    2
     2     2     3    1
     3     3     4    1
     4     4     5   ar
     5     5     6   ar
     6     6     7   ar
     7     7     8   ar
     8     8     9   ar
     9     9    10   ar
    10    10    11   ar
    11    11    12   ar
    12    12    13   ar
    13     4    13   ar
    14     8    13   ar
    15     2    14    1
    16    14    15   ar
    17    15    16   ar
    18    16    17    1
    19    16    18   ar
    20    18    19    1
    21    18    20   ar
    22    20    21    1
    23    21    22    2
    24    21    23    1
    25    20    24   ar
    26    14    24   ar
    27     3    25    1
    28     3    26    1
    29    17    27    1
    30    19    28    1
    31     5    29    1
    32     6    30    1
    33     7    31    1
    34     9    32    1
    35    10    33    1
    36    11    34    1
    37    12    35    1
    38    15    36    1
    39    23    37    1
    40    24    38    1
@<TRIPOS>MOLECULE
mol65_1_13
 38 40 0 0 0
SMALL
USER_CHARGES
****
VDW energy = 139.37
@<TRIPOS>ATOM
   1 O1       -6.3195     0.0314    -4.3629  O.2     1  <O>11      -0.2917
   2 C1       -6.0269     1.2087    -4.2154  C.2     1  <O>11       0.1676
   3 C2       -5.4450     1.6770    -2.9240  C.3     1  <O>11       0.0362
   4 C3       -6.0155     2.9936    -2.5760  C.ar    1  <O>11      -0.0322
   5 C4       -5.3688     4.1477    -3.0265  C.ar    1  <O>11      -0.0576
   6 C5       -5.9063     5.3966    -2.7311  C.ar    1  <O>11      -0.0609
   7 C6       -7.0718     5.4904    -1.9637  C.ar    1  <O>11      -0.0540
   8 C7       -7.7202     4.3380    -1.4894  C.ar    1  <O>11      -0.0176
   9 C8       -8.8872     4.4166    -0.7131  C.ar    1  <O>11      -0.0540
  10 C9       -9.5194     3.2594    -0.2562  C.ar    1  <O>11      -0.0612
  11 C10      -8.9957     2.0084    -0.5724  C.ar    1  <O>11      -0.0612
  12 C11      -7.8367     1.9137    -1.3442  C.ar    1  <O>11      -0.0538
  13 C12      -7.1866     3.0697    -1.8057  C.ar    1  <O>11      -0.0143
  14 C13      -6.2460     2.1550    -5.3010  C.ar    1  <O>11       0.0236
  15 C14      -7.4684     2.8405    -5.4082  C.ar    1  <O>11      -0.0059
  16 C15      -7.6817     3.7396    -6.4589  C.ar    1  <O>11       0.1612
  17 O2       -8.8126     4.3614    -6.5515  O.3     1  <O>11      -0.5032
  18 C16      -6.6793     3.9682    -7.4056  C.ar    1  <O>11       0.1889
  19 O3       -6.8711     4.7987    -8.3792  O.3     1  <O>11      -0.5018
  20 C17      -5.4599     3.2901    -7.2934  C.ar    1  <O>11       0.1671
  21 N1       -4.4295     3.5276    -8.2733  N.4     1  <O>11       0.0097
  22 O4       -3.6229     2.3324    -8.4247  O.2     1  <O>11      -0.1299
  23 O5       -3.5900     4.6245    -7.8332  O.2     1  <O>11      -0.3960
  24 C18      -5.2372     2.3921    -6.2496  C.ar    1  <O>11      -0.0173
  25 H1       -5.6820     0.9599    -2.1376  H       1  <O>11       0.0394
  26 H2       -4.3630     1.7650    -3.0229  H       1  <O>11       0.0394
  27 H3       -8.8004     4.9435    -7.3276  H       1  <O>11       0.2923
  28 H4       -6.0776     4.8335    -8.9365  H       1  <O>11       0.2924
  29 H5       -4.4979     4.0741    -3.5752  H       1  <O>11       0.0621
  30 H6       -5.4455     6.2526    -3.0776  H       1  <O>11       0.0618
  31 H7       -7.4614     6.4201    -1.7426  H       1  <O>11       0.0624
  32 H8       -9.2820     5.3406    -0.4776  H       1  <O>11       0.0624
  33 H9      -10.3753     3.3308     0.3160  H       1  <O>11       0.0618
  34 H10      -9.4639     1.1523    -0.2363  H       1  <O>11       0.0618
  35 H11      -7.4535     0.9845    -1.5782  H       1  <O>11       0.0624
  36 H12      -8.2111     2.6801    -4.7097  H       1  <O>11       0.0662
  37 H13      -3.9636     5.4715    -7.6882  H       1  <O>11       0.3292
  38 H14      -4.3320     1.9022    -6.1743  H       1  <O>11       0.0648
@<TRIPOS>BOND
     1     1     2    2
     2     2     3    1
     3     3     4    1
     4     4     5   ar
     5     5     6   ar
     6     6     7   ar
     7     7     8   ar
     8     8     9   ar
     9     9    10   ar
    10    10    11   ar
    11    11    12   ar
    12    12    13   ar
    13     4    13   ar
    14     8    13   ar
    15     2    14    1
    16    14    15   ar
    17    15    16   ar
    18    16    17    1
    19    16    18   ar
    20    18    19    1
    21    18    20   ar
    22    20    21    1
    23    21    22    2
    24    21    23    1
    25    20    24   ar
    26    14    24   ar
    27     3    25    1
    28     3    26    1
    29    17    27    1
    30    19    28    1
    31     5    29    1
    32     6    30    1
    33     7    31    1
    34     9    32    1
    35    10    33    1
    36    11    34    1
    37    12    35    1
    38    15    36    1
    39    23    37    1
    40    24    38    1
@<TRIPOS>MOLECULE
mol65_1_14
 38 40 0 0 0
SMALL
USER_CHARGES
****
VDW energy = 143.74
@<TRIPOS>ATOM
   1 O1       -6.3195     0.0314    -4.3629  O.2     1  <O>11      -0.2917
   2 C1       -6.0269     1.2087    -4.2154  C.2     1  <O>11       0.1676
   3 C2       -5.4450     1.6770    -2.9240  C.3     1  <O>11       0.0362
   4 C3       -6.0969     0.9682    -1.8048  C.ar    1  <O>11      -0.0322
   5 C4       -5.3100     0.1901    -0.9513  C.ar    1  <O>11      -0.0576
   6 C5       -5.9026    -0.4637     0.1246  C.ar    1  <O>11      -0.0609
   7 C6       -7.2824    -0.3612     0.3288  C.ar    1  <O>11      -0.0540
   8 C7       -8.0864     0.4027    -0.5335  C.ar    1  <O>11      -0.0176
   9 C8       -9.4733     0.5099    -0.3447  C.ar    1  <O>11      -0.0540
  10 C9      -10.2537     1.2786    -1.2094  C.ar    1  <O>11      -0.0612
  11 C10      -9.6576     1.9531    -2.2719  C.ar    1  <O>11      -0.0612
  12 C11      -8.2796     1.8573    -2.4722  C.ar    1  <O>11      -0.0538
  13 C12      -7.4829     1.0827    -1.6136  C.ar    1  <O>11      -0.0143
  14 C13      -6.2460     2.1550    -5.3010  C.ar    1  <O>11       0.0236
  15 C14      -7.4684     2.8405    -5.4082  C.ar    1  <O>11      -0.0059
  16 C15      -7.6817     3.7396    -6.4589  C.ar    1  <O>11       0.1612
  17 O2       -8.8126     4.3614    -6.5515  O.3     1  <O>11      -0.5032
  18 C16      -6.6793     3.9682    -7.4056  C.ar    1  <O>11       0.1889
  19 O3       -6.8711     4.7987    -8.3792  O.3     1  <O>11      -0.5018
  20 C17      -5.4599     3.2901    -7.2934  C.ar    1  <O>11       0.1671
  21 N1       -4.4295     3.5276    -8.2733  N.4     1  <O>11       0.0097
  22 O4       -3.8468     4.8368    -8.0531  O.2     1  <O>11      -0.1299
  23 O5       -5.0065     3.4728    -9.6019  O.2     1  <O>11      -0.3960
  24 C18      -5.2372     2.3921    -6.2496  C.ar    1  <O>11      -0.0173
  25 H1       -4.3749     1.4684    -2.9110  H       1  <O>11       0.0394
  26 H2       -5.6085     2.7496    -2.8187  H       1  <O>11       0.0394
  27 H3       -8.8004     4.9435    -7.3276  H       1  <O>11       0.2923
  28 H4       -6.0776     4.8335    -8.9365  H       1  <O>11       0.2924
  29 H5       -4.2955     0.1010    -1.1179  H       1  <O>11       0.0621
  30 H6       -5.3248    -1.0236     0.7709  H       1  <O>11       0.0618
  31 H7       -7.7164    -0.8541     1.1248  H       1  <O>11       0.0624
  32 H8       -9.9208     0.0148     0.4424  H       1  <O>11       0.0624
  33 H9      -11.2727     1.3471    -1.0614  H       1  <O>11       0.0618
  34 H10     -10.2340     2.5232    -2.9105  H       1  <O>11       0.0618
  35 H11      -7.8418     2.3609    -3.2594  H       1  <O>11       0.0624
  36 H12      -8.2111     2.6801    -4.7097  H       1  <O>11       0.0662
  37 H13      -5.4247     2.6887    -9.8991  H       1  <O>11       0.3292
  38 H14      -4.3320     1.9022    -6.1743  H       1  <O>11       0.0648
@<TRIPOS>BOND
     1     1     2    2
     2     2     3    1
     3     3     4    1
     4     4     5   ar
     5     5     6   ar
     6     6     7   ar
     7     7     8   ar
     8     8     9   ar
     9     9    10   ar
    10    10    11   ar
    11    11    12   ar
    12    12    13   ar
    13     4    13   ar
    14     8    13   ar
    15     2    14    1
    16    14    15   ar
    17    15    16   ar
    18    16    17    1
    19    16    18   ar
    20    18    19    1
    21    18    20   ar
    22    20    21    1
    23    21    22    2
    24    21    23    1
    25    20    24   ar
    26    14    24   ar
    27     3    25    1
    28     3    26    1
    29    17    27    1
    30    19    28    1
    31     5    29    1
    32     6    30    1
    33     7    31    1
    34     9    32    1
    35    10    33    1
    36    11    34    1
    37    12    35    1
    38    15    36    1
    39    23    37    1
    40    24    38    1
@<TRIPOS>MOLECULE
mol65_1_15
 38 40 0 0 0
SMALL
USER_CHARGES
****
VDW energy = 147.80
@<TRIPOS>ATOM
   1 O1       -6.3195     0.0314    -4.3629  O.2     1  <O>11      -0.2917
   2 C1       -6.0269     1.2087    -4.2154  C.2     1  <O>11       0.1676
   3 C2       -5.4450     1.6770    -2.9240  C.3     1  <O>11       0.0362
   4 C3       -6.0969     0.9682    -1.8048  C.ar    1  <O>11      -0.0322
   5 C4       -6.7802     1.7155    -0.8416  C.ar    1  <O>11      -0.0576
   6 C5       -7.4233     1.0632     0.2057  C.ar    1  <O>11      -0.0609
   7 C6       -7.3590    -0.3306     0.3036  C.ar    1  <O>11      -0.0540
   8 C7       -6.6594    -1.0909    -0.6482  C.ar    1  <O>11      -0.0176
   9 C8       -6.5811    -2.4897    -0.5597  C.ar    1  <O>11      -0.0540
  10 C9       -5.8857    -3.2274    -1.5188  C.ar    1  <O>11      -0.0612
  11 C10      -5.2626    -2.5769    -2.5808  C.ar    1  <O>11      -0.0612
  12 C11      -5.3323    -1.1868    -2.6832  C.ar    1  <O>11      -0.0538
  13 C12      -6.0235    -0.4313    -1.7223  C.ar    1  <O>11      -0.0143
  14 C13      -6.2460     2.1550    -5.3010  C.ar    1  <O>11       0.0236
  15 C14      -7.4684     2.8405    -5.4082  C.ar    1  <O>11      -0.0059
  16 C15      -7.6817     3.7396    -6.4589  C.ar    1  <O>11       0.1612
  17 O2       -8.8126     4.3614    -6.5515  O.3     1  <O>11      -0.5032
  18 C16      -6.6793     3.9682    -7.4056  C.ar    1  <O>11       0.1889
  19 O3       -6.8711     4.7987    -8.3792  O.3     1  <O>11      -0.5018
  20 C17      -5.4599     3.2901    -7.2934  C.ar    1  <O>11       0.1671
  21 N1       -4.4295     3.5276    -8.2733  N.4     1  <O>11       0.0097
  22 O4       -3.8468     4.8368    -8.0531  O.2     1  <O>11      -0.1299
  23 O5       -5.0065     3.4728    -9.6019  O.2     1  <O>11      -0.3960
  24 C18      -5.2372     2.3921    -6.2496  C.ar    1  <O>11      -0.0173
  25 H1       -4.3749     1.4684    -2.9110  H       1  <O>11       0.0394
  26 H2       -5.6085     2.7496    -2.8187  H       1  <O>11       0.0394
  27 H3       -8.8004     4.9435    -7.3276  H       1  <O>11       0.2923
  28 H4       -6.0776     4.8335    -8.9365  H       1  <O>11       0.2924
  29 H5       -6.8077     2.7451    -0.9067  H       1  <O>11       0.0621
  30 H6       -7.9469     1.6069     0.9094  H       1  <O>11       0.0618
  31 H7       -7.8326    -0.8075     1.0866  H       1  <O>11       0.0624
  32 H8       -7.0430    -2.9780     0.2234  H       1  <O>11       0.0624
  33 H9       -5.8332    -4.2551    -1.4409  H       1  <O>11       0.0618
  34 H10      -4.7498    -3.1222    -3.2913  H       1  <O>11       0.0618
  35 H11      -4.8712    -0.7092    -3.4733  H       1  <O>11       0.0624
  36 H12      -8.2111     2.6801    -4.7097  H       1  <O>11       0.0662
  37 H13      -5.4247     2.6887    -9.8991  H       1  <O>11       0.3292
  38 H14      -4.3320     1.9022    -6.1743  H       1  <O>11       0.0648
@<TRIPOS>BOND
     1     1     2    2
     2     2     3    1
     3     3     4    1
     4     4     5   ar
     5     5     6   ar
     6     6     7   ar
     7     7     8   ar
     8     8     9   ar
     9     9    10   ar
    10    10    11   ar
    11    11    12   ar
    12    12    13   ar
    13     4    13   ar
    14     8    13   ar
    15     2    14    1
    16    14    15   ar
    17    15    16   ar
    18    16    17    1
    19    16    18   ar
    20    18    19    1
    21    18    20   ar
    22    20    21    1
    23    21    22    2
    24    21    23    1
    25    20    24   ar
    26    14    24   ar
    27     3    25    1
    28     3    26    1
    29    17    27    1
    30    19    28    1
    31     5    29    1
    32     6    30    1
    33     7    31    1
    34     9    32    1
    35    10    33    1
    36    11    34    1
    37    12    35    1
    38    15    36    1
    39    23    37    1
    40    24    38    1
@<TRIPOS>MOLECULE
mol65_1_16
 38 40 0 0 0
SMALL
USER_CHARGES
****
VDW energy = 149.52
@<TRIPOS>ATOM
   1 O1       -6.3195     0.0314    -4.3629  O.2     1  <O>11      -0.2917
   2 C1       -6.0269     1.2087    -4.2154  C.2     1  <O>11       0.1676
   3 C2       -5.4450     1.6770    -2.9240  C.3     1  <O>11       0.0362
   4 C3       -6.0969     0.9682    -1.8048  C.ar    1  <O>11      -0.0322
   5 C4       -7.2429     1.5258    -1.2313  C.ar    1  <O>11      -0.0576
   6 C5       -7.8863     0.8589    -0.1933  C.ar    1  <O>11      -0.0609
   7 C6       -7.3682    -0.3482     0.2871  C.ar    1  <O>11      -0.0540
   8 C7       -6.2063    -0.9088    -0.2689  C.ar    1  <O>11      -0.0176
   9 C8       -5.6712    -2.1163     0.2068  C.ar    1  <O>11      -0.0540
  10 C9       -4.5190    -2.6596    -0.3630  C.ar    1  <O>11      -0.0612
  11 C10      -3.8885    -2.0050    -1.4182  C.ar    1  <O>11      -0.0612
  12 C11      -4.4090    -0.8042    -1.9031  C.ar    1  <O>11      -0.0538
  13 C12      -5.5642    -0.2428    -1.3354  C.ar    1  <O>11      -0.0143
  14 C13      -6.2460     2.1550    -5.3010  C.ar    1  <O>11       0.0236
  15 C14      -6.7939     1.7208    -6.5204  C.ar    1  <O>11      -0.0059
  16 C15      -6.9919     2.6288    -7.5664  C.ar    1  <O>11       0.1612
  17 O2       -7.4918     2.2176    -8.6868  O.3     1  <O>11      -0.5032
  18 C16      -6.6530     3.9750    -7.4050  C.ar    1  <O>11       0.1889
  19 O3       -6.8340     4.8190    -8.3690  O.3     1  <O>11      -0.5018
  20 C17      -6.1141     4.4072    -6.1876  C.ar    1  <O>11       0.1671
  21 N1       -5.7643     5.7965    -6.0261  N.4     1  <O>11       0.0097
  22 O4       -5.1059     5.9829    -4.7479  O.2     1  <O>11      -0.1299
  23 O5       -6.9669     6.6045    -6.0726  O.2     1  <O>11      -0.3960
  24 C18      -5.9131     3.5102    -5.1386  C.ar    1  <O>11      -0.0173
  25 H1       -4.3749     1.4684    -2.9110  H       1  <O>11       0.0394
  26 H2       -5.6085     2.7496    -2.8187  H       1  <O>11       0.0394
  27 H3       -7.5650     2.9636    -9.3027  H       1  <O>11       0.2923
  28 H4       -6.5458     5.7012    -8.0857  H       1  <O>11       0.2924
  29 H5       -7.6098     2.4268    -1.5756  H       1  <O>11       0.0621
  30 H6       -8.7445     1.2543     0.2215  H       1  <O>11       0.0618
  31 H7       -7.8466    -0.8342     1.0616  H       1  <O>11       0.0624
  32 H8       -6.1351    -2.6077     0.9867  H       1  <O>11       0.0624
  33 H9       -4.1340    -3.5466    -0.0024  H       1  <O>11       0.0618
  34 H10      -3.0375    -2.4073    -1.8412  H       1  <O>11       0.0618
  35 H11      -3.9400    -0.3239    -2.6869  H       1  <O>11       0.0624
  36 H12      -7.0509     0.7290    -6.6447  H       1  <O>11       0.0662
  37 H13      -7.5084     6.5951    -6.8373  H       1  <O>11       0.3292
  38 H14      -5.5202     3.8418    -4.2438  H       1  <O>11       0.0648
@<TRIPOS>BOND
     1     1     2    2
     2     2     3    1
     3     3     4    1
     4     4     5   ar
     5     5     6   ar
     6     6     7   ar
     7     7     8   ar
     8     8     9   ar
     9     9    10   ar
    10    10    11   ar
    11    11    12   ar
    12    12    13   ar
    13     4    13   ar
    14     8    13   ar
    15     2    14    1
    16    14    15   ar
    17    15    16   ar
    18    16    17    1
    19    16    18   ar
    20    18    19    1
    21    18    20   ar
    22    20    21    1
    23    21    22    2
    24    21    23    1
    25    20    24   ar
    26    14    24   ar
    27     3    25    1
    28     3    26    1
    29    17    27    1
    30    19    28    1
    31     5    29    1
    32     6    30    1
    33     7    31    1
    34     9    32    1
    35    10    33    1
    36    11    34    1
    37    12    35    1
    38    15    36    1
    39    23    37    1
    40    24    38    1
@<TRIPOS>MOLECULE
mol65_1_17
 38 40 0 0 0
SMALL
USER_CHARGES
****
VDW energy = 149.85
@<TRIPOS>ATOM
   1 O1       -6.3195     0.0314    -4.3629  O.2     1  <O>11      -0.2917
   2 C1       -6.0269     1.2087    -4.2154  C.2     1  <O>11       0.1676
   3 C2       -5.4450     1.6770    -2.9240  C.3     1  <O>11       0.0362
   4 C3       -6.0969     0.9682    -1.8048  C.ar    1  <O>11      -0.0322
   5 C4       -7.2429     1.5258    -1.2313  C.ar    1  <O>11      -0.0576
   6 C5       -7.8863     0.8589    -0.1933  C.ar    1  <O>11      -0.0609
   7 C6       -7.3682    -0.3482     0.2871  C.ar    1  <O>11      -0.0540
   8 C7       -6.2063    -0.9088    -0.2689  C.ar    1  <O>11      -0.0176
   9 C8       -5.6712    -2.1163     0.2068  C.ar    1  <O>11      -0.0540
  10 C9       -4.5190    -2.6596    -0.3630  C.ar    1  <O>11      -0.0612
  11 C10      -3.8885    -2.0050    -1.4182  C.ar    1  <O>11      -0.0612
  12 C11      -4.4090    -0.8042    -1.9031  C.ar    1  <O>11      -0.0538
  13 C12      -5.5642    -0.2428    -1.3354  C.ar    1  <O>11      -0.0143
  14 C13      -6.2460     2.1550    -5.3010  C.ar    1  <O>11       0.0236
  15 C14      -6.7939     1.7208    -6.5204  C.ar    1  <O>11      -0.0059
  16 C15      -6.9919     2.6288    -7.5664  C.ar    1  <O>11       0.1612
  17 O2       -7.4918     2.2176    -8.6868  O.3     1  <O>11      -0.5032
  18 C16      -6.6530     3.9750    -7.4050  C.ar    1  <O>11       0.1889
  19 O3       -6.8340     4.8190    -8.3690  O.3     1  <O>11      -0.5018
  20 C17      -6.1141     4.4072    -6.1876  C.ar    1  <O>11       0.1671
  21 N1       -5.7643     5.7965    -6.0261  N.4     1  <O>11       0.0097
  22 O4       -4.6572     5.9104    -5.0970  O.2     1  <O>11      -0.1299
  23 O5       -6.9064     6.5237    -5.5083  O.2     1  <O>11      -0.3960
  24 C18      -5.9131     3.5102    -5.1386  C.ar    1  <O>11      -0.0173
  25 H1       -4.3749     1.4684    -2.9110  H       1  <O>11       0.0394
  26 H2       -5.6085     2.7496    -2.8187  H       1  <O>11       0.0394
  27 H3       -7.5650     2.9636    -9.3027  H       1  <O>11       0.2923
  28 H4       -6.5458     5.7012    -8.0857  H       1  <O>11       0.2924
  29 H5       -7.6098     2.4268    -1.5756  H       1  <O>11       0.0621
  30 H6       -8.7445     1.2543     0.2215  H       1  <O>11       0.0618
  31 H7       -7.8466    -0.8342     1.0616  H       1  <O>11       0.0624
  32 H8       -6.1351    -2.6077     0.9867  H       1  <O>11       0.0624
  33 H9       -4.1340    -3.5466    -0.0024  H       1  <O>11       0.0618
  34 H10      -3.0375    -2.4073    -1.8412  H       1  <O>11       0.0618
  35 H11      -3.9400    -0.3239    -2.6869  H       1  <O>11       0.0624
  36 H12      -7.0509     0.7290    -6.6447  H       1  <O>11       0.0662
  37 H13      -7.7068     6.5472    -5.9951  H       1  <O>11       0.3292
  38 H14      -5.5202     3.8418    -4.2438  H       1  <O>11       0.0648
@<TRIPOS>BOND
     1     1     2    2
     2     2     3    1
     3     3     4    1
     4     4     5   ar
     5     5     6   ar
     6     6     7   ar
     7     7     8   ar
     8     8     9   ar
     9     9    10   ar
    10    10    11   ar
    11    11    12   ar
    12    12    13   ar
    13     4    13   ar
    14     8    13   ar
    15     2    14    1
    16    14    15   ar
    17    15    16   ar
    18    16    17    1
    19    16    18   ar
    20    18    19    1
    21    18    20   ar
    22    20    21    1
    23    21    22    2
    24    21    23    1
    25    20    24   ar
    26    14    24   ar
    27     3    25    1
    28     3    26    1
    29    17    27    1
    30    19    28    1
    31     5    29    1
    32     6    30    1
    33     7    31    1
    34     9    32    1
    35    10    33    1
    36    11    34    1
    37    12    35    1
    38    15    36    1
    39    23    37    1
    40    24    38    1
@<TRIPOS>MOLECULE
mol65_1_18
 38 40 0 0 0
SMALL
USER_CHARGES
****
VDW energy = 150.35
@<TRIPOS>ATOM
   1 O1       -6.3195     0.0314    -4.3629  O.2     1  <O>11      -0.2917
   2 C1       -6.0269     1.2087    -4.2154  C.2     1  <O>11       0.1676
   3 C2       -5.4450     1.6770    -2.9240  C.3     1  <O>11       0.0362
   4 C3       -6.0969     0.9682    -1.8048  C.ar    1  <O>11      -0.0322
   5 C4       -7.2429     1.5258    -1.2313  C.ar    1  <O>11      -0.0576
   6 C5       -7.8863     0.8589    -0.1933  C.ar    1  <O>11      -0.0609
   7 C6       -7.3682    -0.3482     0.2871  C.ar    1  <O>11      -0.0540
   8 C7       -6.2063    -0.9088    -0.2689  C.ar    1  <O>11      -0.0176
   9 C8       -5.6712    -2.1163     0.2068  C.ar    1  <O>11      -0.0540
  10 C9       -4.5190    -2.6596    -0.3630  C.ar    1  <O>11      -0.0612
  11 C10      -3.8885    -2.0050    -1.4182  C.ar    1  <O>11      -0.0612
  12 C11      -4.4090    -0.8042    -1.9031  C.ar    1  <O>11      -0.0538
  13 C12      -5.5642    -0.2428    -1.3354  C.ar    1  <O>11      -0.0143
  14 C13      -6.2460     2.1550    -5.3010  C.ar    1  <O>11       0.0236
  15 C14      -5.2369     2.3908    -6.2507  C.ar    1  <O>11      -0.0059
  16 C15      -5.4445     3.3094    -7.2854  C.ar    1  <O>11       0.1612
  17 O2       -4.5070     3.5231    -8.1512  O.3     1  <O>11      -0.5032
  18 C16      -6.6584     3.9945    -7.3869  C.ar    1  <O>11       0.1889
  19 O3       -6.8558     4.8452    -8.3418  O.3     1  <O>11      -0.5018
  20 C17      -7.6650     3.7534    -6.4445  C.ar    1  <O>11       0.1671
  21 N1       -8.9149     4.4637    -6.5520  N.4     1  <O>11       0.0097
  22 O4       -8.6691     5.8895    -6.4590  O.2     1  <O>11      -0.1299
  23 O5       -9.7957     4.0541    -5.4760  O.2     1  <O>11      -0.3960
  24 C18      -7.4682     2.8394    -5.4095  C.ar    1  <O>11      -0.0173
  25 H1       -4.3749     1.4684    -2.9110  H       1  <O>11       0.0394
  26 H2       -5.6085     2.7496    -2.8187  H       1  <O>11       0.0394
  27 H3       -4.8064     4.1814    -8.7980  H       1  <O>11       0.2923
  28 H4       -7.7452     5.2243    -8.2593  H       1  <O>11       0.2924
  29 H5       -7.6098     2.4268    -1.5756  H       1  <O>11       0.0621
  30 H6       -8.7445     1.2543     0.2215  H       1  <O>11       0.0618
  31 H7       -7.8466    -0.8342     1.0616  H       1  <O>11       0.0624
  32 H8       -6.1351    -2.6077     0.9867  H       1  <O>11       0.0624
  33 H9       -4.1340    -3.5466    -0.0024  H       1  <O>11       0.0618
  34 H10      -3.0375    -2.4073    -1.8412  H       1  <O>11       0.0618
  35 H11      -3.9400    -0.3239    -2.6869  H       1  <O>11       0.0624
  36 H12      -4.3399     1.8846    -6.1845  H       1  <O>11       0.0662
  37 H13     -10.0520     3.1563    -5.3964  H       1  <O>11       0.3292
  38 H14      -8.2197     2.6660    -4.7239  H       1  <O>11       0.0648
@<TRIPOS>BOND
     1     1     2    2
     2     2     3    1
     3     3     4    1
     4     4     5   ar
     5     5     6   ar
     6     6     7   ar
     7     7     8   ar
     8     8     9   ar
     9     9    10   ar
    10    10    11   ar
    11    11    12   ar
    12    12    13   ar
    13     4    13   ar
    14     8    13   ar
    15     2    14    1
    16    14    15   ar
    17    15    16   ar
    18    16    17    1
    19    16    18   ar
    20    18    19    1
    21    18    20   ar
    22    20    21    1
    23    21    22    2
    24    21    23    1
    25    20    24   ar
    26    14    24   ar
    27     3    25    1
    28     3    26    1
    29    17    27    1
    30    19    28    1
    31     5    29    1
    32     6    30    1
    33     7    31    1
    34     9    32    1
    35    10    33    1
    36    11    34    1
    37    12    35    1
    38    15    36    1
    39    23    37    1
    40    24    38    1
@<TRIPOS>MOLECULE
mol65_1_19
 38 40 0 0 0
SMALL
USER_CHARGES
****
VDW energy = 150.92
@<TRIPOS>ATOM
   1 O1       -6.3195     0.0314    -4.3629  O.2     1  <O>11      -0.2917
   2 C1       -6.0269     1.2087    -4.2154  C.2     1  <O>11       0.1676
   3 C2       -5.4450     1.6770    -2.9240  C.3     1  <O>11       0.0362
   4 C3       -6.0969     0.9682    -1.8048  C.ar    1  <O>11      -0.0322
   5 C4       -7.2429     1.5258    -1.2313  C.ar    1  <O>11      -0.0576
   6 C5       -7.8863     0.8589    -0.1933  C.ar    1  <O>11      -0.0609
   7 C6       -7.3682    -0.3482     0.2871  C.ar    1  <O>11      -0.0540
   8 C7       -6.2063    -0.9088    -0.2689  C.ar    1  <O>11      -0.0176
   9 C8       -5.6712    -2.1163     0.2068  C.ar    1  <O>11      -0.0540
  10 C9       -4.5190    -2.6596    -0.3630  C.ar    1  <O>11      -0.0612
  11 C10      -3.8885    -2.0050    -1.4182  C.ar    1  <O>11      -0.0612
  12 C11      -4.4090    -0.8042    -1.9031  C.ar    1  <O>11      -0.0538
  13 C12      -5.5642    -0.2428    -1.3354  C.ar    1  <O>11      -0.0143
  14 C13      -6.2460     2.1550    -5.3010  C.ar    1  <O>11       0.0236
  15 C14      -7.4684     2.8405    -5.4082  C.ar    1  <O>11      -0.0059
  16 C15      -7.6817     3.7396    -6.4589  C.ar    1  <O>11       0.1612
  17 O2       -8.8126     4.3614    -6.5515  O.3     1  <O>11      -0.5032
  18 C16      -6.6793     3.9682    -7.4056  C.ar    1  <O>11       0.1889
  19 O3       -6.8711     4.7987    -8.3792  O.3     1  <O>11      -0.5018
  20 C17      -5.4599     3.2901    -7.2934  C.ar    1  <O>11       0.1671
  21 N1       -4.4295     3.5276    -8.2733  N.4     1  <O>11       0.0097
  22 O4       -4.9219     3.1671    -9.5884  O.2     1  <O>11      -0.1299
  23 O5       -3.2672     2.7219    -7.9549  O.2     1  <O>11      -0.3960
  24 C18      -5.2372     2.3921    -6.2496  C.ar    1  <O>11      -0.0173
  25 H1       -4.3749     1.4684    -2.9110  H       1  <O>11       0.0394
  26 H2       -5.6085     2.7496    -2.8187  H       1  <O>11       0.0394
  27 H3       -8.8004     4.9435    -7.3276  H       1  <O>11       0.2923
  28 H4       -6.0776     4.8335    -8.9365  H       1  <O>11       0.2924
  29 H5       -7.6098     2.4268    -1.5756  H       1  <O>11       0.0621
  30 H6       -8.7445     1.2543     0.2215  H       1  <O>11       0.0618
  31 H7       -7.8466    -0.8342     1.0616  H       1  <O>11       0.0624
  32 H8       -6.1351    -2.6077     0.9867  H       1  <O>11       0.0624
  33 H9       -4.1340    -3.5466    -0.0024  H       1  <O>11       0.0618
  34 H10      -3.0375    -2.4073    -1.8412  H       1  <O>11       0.0618
  35 H11      -3.9400    -0.3239    -2.6869  H       1  <O>11       0.0624
  36 H12      -8.2111     2.6801    -4.7097  H       1  <O>11       0.0662
  37 H13      -2.8293     2.8349    -7.1342  H       1  <O>11       0.3292
  38 H14      -4.3320     1.9022    -6.1743  H       1  <O>11       0.0648
@<TRIPOS>BOND
     1     1     2    2
     2     2     3    1
     3     3     4    1
     4     4     5   ar
     5     5     6   ar
     6     6     7   ar
     7     7     8   ar
     8     8     9   ar
     9     9    10   ar
    10    10    11   ar
    11    11    12   ar
    12    12    13   ar
    13     4    13   ar
    14     8    13   ar
    15     2    14    1
    16    14    15   ar
    17    15    16   ar
    18    16    17    1
    19    16    18   ar
    20    18    19    1
    21    18    20   ar
    22    20    21    1
    23    21    22    2
    24    21    23    1
    25    20    24   ar
    26    14    24   ar
    27     3    25    1
    28     3    26    1
    29    17    27    1
    30    19    28    1
    31     5    29    1
    32     6    30    1
    33     7    31    1
    34     9    32    1
    35    10    33    1
    36    11    34    1
    37    12    35    1
    38    15    36    1
    39    23    37    1
    40    24    38    1
@<TRIPOS>MOLECULE
mol65_1_20
 38 40 0 0 0
SMALL
USER_CHARGES
****
VDW energy = 151.43
@<TRIPOS>ATOM
   1 O1       -6.3195     0.0314    -4.3629  O.2     1  <O>11      -0.2917
   2 C1       -6.0269     1.2087    -4.2154  C.2     1  <O>11       0.1676
   3 C2       -5.4450     1.6770    -2.9240  C.3     1  <O>11       0.0362
   4 C3       -6.0969     0.9682    -1.8048  C.ar    1  <O>11      -0.0322
   5 C4       -7.0921     0.0296    -2.0910  C.ar    1  <O>11      -0.0576
   6 C5       -7.6990    -0.6675    -1.0510  C.ar    1  <O>11      -0.0609
   7 C6       -7.3304    -0.4058     0.2726  C.ar    1  <O>11      -0.0540
   8 C7       -6.3447     0.5488     0.5736  C.ar    1  <O>11      -0.0176
   9 C8       -5.9687     0.8265     1.8973  C.ar    1  <O>11      -0.0540
  10 C9       -4.9831     1.7747     2.1749  C.ar    1  <O>11      -0.0612
  11 C10      -4.3578     2.4551     1.1331  C.ar    1  <O>11      -0.0612
  12 C11      -4.7199     2.1893    -0.1884  C.ar    1  <O>11      -0.0538
  13 C12      -5.7142     1.2422    -0.4823  C.ar    1  <O>11      -0.0143
  14 C13      -6.2460     2.1550    -5.3010  C.ar    1  <O>11       0.0236
  15 C14      -5.1602     2.8363    -5.8778  C.ar    1  <O>11      -0.0059
  16 C15      -5.3740     3.7542    -6.9119  C.ar    1  <O>11       0.1612
  17 O2       -4.3681     4.3801    -7.4322  O.3     1  <O>11      -0.5032
  18 C16      -6.6671     3.9960    -7.3839  C.ar    1  <O>11       0.1889
  19 O3       -6.8705     4.8438    -8.3400  O.3     1  <O>11      -0.5018
  20 C17      -7.7465     3.3115    -6.8133  C.ar    1  <O>11       0.1671
  21 N1       -9.0789     3.5654    -7.3020  N.4     1  <O>11       0.0097
  22 O4       -9.2391     2.9534    -8.6065  O.2     1  <O>11      -0.1299
  23 O5       -9.2877     4.9957    -7.4104  O.2     1  <O>11      -0.3960
  24 C18      -7.5441     2.3942    -5.7823  C.ar    1  <O>11      -0.0173
  25 H1       -4.3749     1.4684    -2.9110  H       1  <O>11       0.0394
  26 H2       -5.6085     2.7496    -2.8187  H       1  <O>11       0.0394
  27 H3       -4.6824     4.9749    -8.1313  H       1  <O>11       0.2923
  28 H4       -7.8193     4.8864    -8.5388  H       1  <O>11       0.2924
  29 H5       -7.3751    -0.1453    -3.0678  H       1  <O>11       0.0621
  30 H6       -8.4203    -1.3767    -1.2559  H       1  <O>11       0.0618
  31 H7       -7.7893    -0.9217     1.0395  H       1  <O>11       0.0624
  32 H8       -6.4262     0.3238     2.6738  H       1  <O>11       0.0624
  33 H9       -4.7175     1.9717     3.1525  H       1  <O>11       0.0618
  34 H10      -3.6276     3.1550     1.3378  H       1  <O>11       0.0618
  35 H11      -4.2522     2.6941    -0.9574  H       1  <O>11       0.0624
  36 H12      -4.2022     2.6588    -5.5374  H       1  <O>11       0.0662
  37 H13      -9.2187     5.5383    -6.6495  H       1  <O>11       0.3292
  38 H14      -8.3472     1.8915    -5.3732  H       1  <O>11       0.0648
@<TRIPOS>BOND
     1     1     2    2
     2     2     3    1
     3     3     4    1
     4     4     5   ar
     5     5     6   ar
     6     6     7   ar
     7     7     8   ar
     8     8     9   ar
     9     9    10   ar
    10    10    11   ar
    11    11    12   ar
    12    12    13   ar
    13     4    13   ar
    14     8    13   ar
    15     2    14    1
    16    14    15   ar
    17    15    16   ar
    18    16    17    1
    19    16    18   ar
    20    18    19    1
    21    18    20   ar
    22    20    21    1
    23    21    22    2
    24    21    23    1
    25    20    24   ar
    26    14    24   ar
    27     3    25    1
    28     3    26    1
    29    17    27    1
    30    19    28    1
    31     5    29    1
    32     6    30    1
    33     7    31    1
    34     9    32    1
    35    10    33    1
    36    11    34    1
    37    12    35    1
    38    15    36    1
    39    23    37    1
    40    24    38    1
@<TRIPOS>MOLECULE
mol65_1_21
 38 40 0 0 0
SMALL
USER_CHARGES
****
VDW energy = 151.70
@<TRIPOS>ATOM
   1 O1       -6.3195     0.0314    -4.3629  O.2     1  <O>11      -0.2917
   2 C1       -6.0269     1.2087    -4.2154  C.2     1  <O>11       0.1676
   3 C2       -5.4450     1.6770    -2.9240  C.3     1  <O>11       0.0362
   4 C3       -6.0969     0.9682    -1.8048  C.ar    1  <O>11      -0.0322
   5 C4       -5.4191    -0.0889    -1.1915  C.ar    1  <O>11      -0.0576
   6 C5       -6.0062    -0.7515    -0.1181  C.ar    1  <O>11      -0.0609
   7 C6       -7.2793    -0.3749     0.3219  C.ar    1  <O>11      -0.0540
   8 C7       -7.9782     0.6738    -0.2988  C.ar    1  <O>11      -0.0176
   9 C8       -9.2590     1.0589     0.1278  C.ar    1  <O>11      -0.0540
  10 C9       -9.9344     2.1072    -0.4986  C.ar    1  <O>11      -0.0612
  11 C10      -9.3370     2.7868    -1.5572  C.ar    1  <O>11      -0.0612
  12 C11      -8.0635     2.4164    -1.9922  C.ar    1  <O>11      -0.0538
  13 C12      -7.3748     1.3597    -1.3752  C.ar    1  <O>11      -0.0143
  14 C13      -6.2460     2.1550    -5.3010  C.ar    1  <O>11       0.0236
  15 C14      -7.4684     2.8405    -5.4082  C.ar    1  <O>11      -0.0059
  16 C15      -7.6817     3.7396    -6.4589  C.ar    1  <O>11       0.1612
  17 O2       -8.8126     4.3614    -6.5515  O.3     1  <O>11      -0.5032
  18 C16      -6.6793     3.9682    -7.4056  C.ar    1  <O>11       0.1889
  19 O3       -6.8711     4.7987    -8.3792  O.3     1  <O>11      -0.5018
  20 C17      -5.4599     3.2901    -7.2934  C.ar    1  <O>11       0.1671
  21 N1       -4.4295     3.5276    -8.2733  N.4     1  <O>11       0.0097
  22 O4       -4.9219     3.1671    -9.5884  O.2     1  <O>11      -0.1299
  23 O5       -3.2672     2.7219    -7.9549  O.2     1  <O>11      -0.3960
  24 C18      -5.2372     2.3921    -6.2496  C.ar    1  <O>11      -0.0173
  25 H1       -4.3749     1.4684    -2.9110  H       1  <O>11       0.0394
  26 H2       -5.6085     2.7496    -2.8187  H       1  <O>11       0.0394
  27 H3       -8.8004     4.9435    -7.3276  H       1  <O>11       0.2923
  28 H4       -6.0776     4.8335    -8.9365  H       1  <O>11       0.2924
  29 H5       -4.4886    -0.3765    -1.5328  H       1  <O>11       0.0621
  30 H6       -5.5031    -1.5197     0.3528  H       1  <O>11       0.0618
  31 H7       -7.7117    -0.8749     1.1143  H       1  <O>11       0.0624
  32 H8       -9.7061     0.5611     0.9135  H       1  <O>11       0.0624
  33 H9      -10.8767     2.3788    -0.1773  H       1  <O>11       0.0618
  34 H10      -9.8352     3.5633    -2.0196  H       1  <O>11       0.0618
  35 H11      -7.6236     2.9245    -2.7754  H       1  <O>11       0.0624
  36 H12      -8.2111     2.6801    -4.7097  H       1  <O>11       0.0662
  37 H13      -2.8293     2.8349    -7.1342  H       1  <O>11       0.3292
  38 H14      -4.3320     1.9022    -6.1743  H       1  <O>11       0.0648
@<TRIPOS>BOND
     1     1     2    2
     2     2     3    1
     3     3     4    1
     4     4     5   ar
     5     5     6   ar
     6     6     7   ar
     7     7     8   ar
     8     8     9   ar
     9     9    10   ar
    10    10    11   ar
    11    11    12   ar
    12    12    13   ar
    13     4    13   ar
    14     8    13   ar
    15     2    14    1
    16    14    15   ar
    17    15    16   ar
    18    16    17    1
    19    16    18   ar
    20    18    19    1
    21    18    20   ar
    22    20    21    1
    23    21    22    2
    24    21    23    1
    25    20    24   ar
    26    14    24   ar
    27     3    25    1
    28     3    26    1
    29    17    27    1
    30    19    28    1
    31     5    29    1
    32     6    30    1
    33     7    31    1
    34     9    32    1
    35    10    33    1
    36    11    34    1
    37    12    35    1
    38    15    36    1
    39    23    37    1
    40    24    38    1
@<TRIPOS>MOLECULE
mol65_1_22
 38 40 0 0 0
SMALL
USER_CHARGES
****
VDW energy = 153.39
@<TRIPOS>ATOM
   1 O1       -6.3195     0.0314    -4.3629  O.2     1  <O>11      -0.2917
   2 C1       -6.0269     1.2087    -4.2154  C.2     1  <O>11       0.1676
   3 C2       -5.4450     1.6770    -2.9240  C.3     1  <O>11       0.0362
   4 C3       -6.0969     0.9682    -1.8048  C.ar    1  <O>11      -0.0322
   5 C4       -7.2429     1.5258    -1.2313  C.ar    1  <O>11      -0.0576
   6 C5       -7.8863     0.8589    -0.1933  C.ar    1  <O>11      -0.0609
   7 C6       -7.3682    -0.3482     0.2871  C.ar    1  <O>11      -0.0540
   8 C7       -6.2063    -0.9088    -0.2689  C.ar    1  <O>11      -0.0176
   9 C8       -5.6712    -2.1163     0.2068  C.ar    1  <O>11      -0.0540
  10 C9       -4.5190    -2.6596    -0.3630  C.ar    1  <O>11      -0.0612
  11 C10      -3.8885    -2.0050    -1.4182  C.ar    1  <O>11      -0.0612
  12 C11      -4.4090    -0.8042    -1.9031  C.ar    1  <O>11      -0.0538
  13 C12      -5.5642    -0.2428    -1.3354  C.ar    1  <O>11      -0.0143
  14 C13      -6.2460     2.1550    -5.3010  C.ar    1  <O>11       0.0236
  15 C14      -7.4684     2.8405    -5.4082  C.ar    1  <O>11      -0.0059
  16 C15      -7.6817     3.7396    -6.4589  C.ar    1  <O>11       0.1612
  17 O2       -8.8126     4.3614    -6.5515  O.3     1  <O>11      -0.5032
  18 C16      -6.6793     3.9682    -7.4056  C.ar    1  <O>11       0.1889
  19 O3       -6.8711     4.7987    -8.3792  O.3     1  <O>11      -0.5018
  20 C17      -5.4599     3.2901    -7.2934  C.ar    1  <O>11       0.1671
  21 N1       -4.4295     3.5276    -8.2733  N.4     1  <O>11       0.0097
  22 O4       -4.5462     4.8818    -8.7777  O.2     1  <O>11      -0.1299
  23 O5       -4.5804     2.5894    -9.3680  O.2     1  <O>11      -0.3960
  24 C18      -5.2372     2.3921    -6.2496  C.ar    1  <O>11      -0.0173
  25 H1       -4.3749     1.4684    -2.9110  H       1  <O>11       0.0394
  26 H2       -5.6085     2.7496    -2.8187  H       1  <O>11       0.0394
  27 H3       -8.8004     4.9435    -7.3276  H       1  <O>11       0.2923
  28 H4       -6.0776     4.8335    -8.9365  H       1  <O>11       0.2924
  29 H5       -7.6098     2.4268    -1.5756  H       1  <O>11       0.0621
  30 H6       -8.7445     1.2543     0.2215  H       1  <O>11       0.0618
  31 H7       -7.8466    -0.8342     1.0616  H       1  <O>11       0.0624
  32 H8       -6.1351    -2.6077     0.9867  H       1  <O>11       0.0624
  33 H9       -4.1340    -3.5466    -0.0024  H       1  <O>11       0.0618
  34 H10      -3.0375    -2.4073    -1.8412  H       1  <O>11       0.0618
  35 H11      -3.9400    -0.3239    -2.6869  H       1  <O>11       0.0624
  36 H12      -8.2111     2.6801    -4.7097  H       1  <O>11       0.0662
  37 H13      -4.5300     1.6679    -9.2056  H       1  <O>11       0.3292
  38 H14      -4.3320     1.9022    -6.1743  H       1  <O>11       0.0648
@<TRIPOS>BOND
     1     1     2    2
     2     2     3    1
     3     3     4    1
     4     4     5   ar
     5     5     6   ar
     6     6     7   ar
     7     7     8   ar
     8     8     9   ar
     9     9    10   ar
    10    10    11   ar
    11    11    12   ar
    12    12    13   ar
    13     4    13   ar
    14     8    13   ar
    15     2    14    1
    16    14    15   ar
    17    15    16   ar
    18    16    17    1
    19    16    18   ar
    20    18    19    1
    21    18    20   ar
    22    20    21    1
    23    21    22    2
    24    21    23    1
    25    20    24   ar
    26    14    24   ar
    27     3    25    1
    28     3    26    1
    29    17    27    1
    30    19    28    1
    31     5    29    1
    32     6    30    1
    33     7    31    1
    34     9    32    1
    35    10    33    1
    36    11    34    1
    37    12    35    1
    38    15    36    1
    39    23    37    1
    40    24    38    1
@<TRIPOS>MOLECULE
mol65_1_23
 38 40 0 0 0
SMALL
USER_CHARGES
****
VDW energy = 153.54
@<TRIPOS>ATOM
   1 O1       -6.3195     0.0314    -4.3629  O.2     1  <O>11      -0.2917
   2 C1       -6.0269     1.2087    -4.2154  C.2     1  <O>11       0.1676
   3 C2       -5.4450     1.6770    -2.9240  C.3     1  <O>11       0.0362
   4 C3       -6.0969     0.9682    -1.8048  C.ar    1  <O>11      -0.0322
   5 C4       -7.0921     0.0296    -2.0910  C.ar    1  <O>11      -0.0576
   6 C5       -7.6990    -0.6675    -1.0510  C.ar    1  <O>11      -0.0609
   7 C6       -7.3304    -0.4058     0.2726  C.ar    1  <O>11      -0.0540
   8 C7       -6.3447     0.5488     0.5736  C.ar    1  <O>11      -0.0176
   9 C8       -5.9687     0.8265     1.8973  C.ar    1  <O>11      -0.0540
  10 C9       -4.9831     1.7747     2.1749  C.ar    1  <O>11      -0.0612
  11 C10      -4.3578     2.4551     1.1331  C.ar    1  <O>11      -0.0612
  12 C11      -4.7199     2.1893    -0.1884  C.ar    1  <O>11      -0.0538
  13 C12      -5.7142     1.2422    -0.4823  C.ar    1  <O>11      -0.0143
  14 C13      -6.2460     2.1550    -5.3010  C.ar    1  <O>11       0.0236
  15 C14      -7.4684     2.8405    -5.4082  C.ar    1  <O>11      -0.0059
  16 C15      -7.6817     3.7396    -6.4589  C.ar    1  <O>11       0.1612
  17 O2       -8.8126     4.3614    -6.5515  O.3     1  <O>11      -0.5032
  18 C16      -6.6793     3.9682    -7.4056  C.ar    1  <O>11       0.1889
  19 O3       -6.8711     4.7987    -8.3792  O.3     1  <O>11      -0.5018
  20 C17      -5.4599     3.2901    -7.2934  C.ar    1  <O>11       0.1671
  21 N1       -4.4295     3.5276    -8.2733  N.4     1  <O>11       0.0097
  22 O4       -3.8468     4.8368    -8.0531  O.2     1  <O>11      -0.1299
  23 O5       -5.0065     3.4728    -9.6019  O.2     1  <O>11      -0.3960
  24 C18      -5.2372     2.3921    -6.2496  C.ar    1  <O>11      -0.0173
  25 H1       -4.3749     1.4684    -2.9110  H       1  <O>11       0.0394
  26 H2       -5.6085     2.7496    -2.8187  H       1  <O>11       0.0394
  27 H3       -8.8004     4.9435    -7.3276  H       1  <O>11       0.2923
  28 H4       -6.0776     4.8335    -8.9365  H       1  <O>11       0.2924
  29 H5       -7.3751    -0.1453    -3.0678  H       1  <O>11       0.0621
  30 H6       -8.4203    -1.3767    -1.2559  H       1  <O>11       0.0618
  31 H7       -7.7893    -0.9217     1.0395  H       1  <O>11       0.0624
  32 H8       -6.4262     0.3238     2.6738  H       1  <O>11       0.0624
  33 H9       -4.7175     1.9717     3.1525  H       1  <O>11       0.0618
  34 H10      -3.6276     3.1550     1.3378  H       1  <O>11       0.0618
  35 H11      -4.2522     2.6941    -0.9574  H       1  <O>11       0.0624
  36 H12      -8.2111     2.6801    -4.7097  H       1  <O>11       0.0662
  37 H13      -5.4247     2.6887    -9.8991  H       1  <O>11       0.3292
  38 H14      -4.3320     1.9022    -6.1743  H       1  <O>11       0.0648
@<TRIPOS>BOND
     1     1     2    2
     2     2     3    1
     3     3     4    1
     4     4     5   ar
     5     5     6   ar
     6     6     7   ar
     7     7     8   ar
     8     8     9   ar
     9     9    10   ar
    10    10    11   ar
    11    11    12   ar
    12    12    13   ar
    13     4    13   ar
    14     8    13   ar
    15     2    14    1
    16    14    15   ar
    17    15    16   ar
    18    16    17    1
    19    16    18   ar
    20    18    19    1
    21    18    20   ar
    22    20    21    1
    23    21    22    2
    24    21    23    1
    25    20    24   ar
    26    14    24   ar
    27     3    25    1
    28     3    26    1
    29    17    27    1
    30    19    28    1
    31     5    29    1
    32     6    30    1
    33     7    31    1
    34     9    32    1
    35    10    33    1
    36    11    34    1
    37    12    35    1
    38    15    36    1
    39    23    37    1
    40    24    38    1
@<TRIPOS>MOLECULE
mol65_1_24
 38 40 0 0 0
SMALL
USER_CHARGES
****
VDW energy = 154.37
@<TRIPOS>ATOM
   1 O1       -6.3195     0.0314    -4.3629  O.2     1  <O>11      -0.2917
   2 C1       -6.0269     1.2087    -4.2154  C.2     1  <O>11       0.1676
   3 C2       -5.4450     1.6770    -2.9240  C.3     1  <O>11       0.0362
   4 C3       -6.0155     2.9936    -2.5760  C.ar    1  <O>11      -0.0322
   5 C4       -5.1534     4.0843    -2.4336  C.ar    1  <O>11      -0.0576
   6 C5       -5.6754     5.3384    -2.1322  C.ar    1  <O>11      -0.0609
   7 C6       -7.0529     5.4941    -1.9466  C.ar    1  <O>11      -0.0540
   8 C7       -7.9272     4.4013    -2.0686  C.ar    1  <O>11      -0.0176
   9 C8       -9.3112     4.5412    -1.8791  C.ar    1  <O>11      -0.0540
  10 C9      -10.1636     3.4440    -2.0104  C.ar    1  <O>11      -0.0612
  11 C10      -9.6444     2.1936    -2.3363  C.ar    1  <O>11      -0.0612
  12 C11      -8.2707     2.0388    -2.5289  C.ar    1  <O>11      -0.0538
  13 C12      -7.4005     3.1326    -2.3941  C.ar    1  <O>11      -0.0143
  14 C13      -6.2460     2.1550    -5.3010  C.ar    1  <O>11       0.0236
  15 C14      -5.1658     2.8683    -5.8487  C.ar    1  <O>11      -0.0059
  16 C15      -5.3800     3.7861    -6.8829  C.ar    1  <O>11       0.1612
  17 O2       -4.3794     4.4416    -7.3763  O.3     1  <O>11      -0.5032
  18 C16      -6.6678     3.9960    -7.3838  C.ar    1  <O>11       0.1889
  19 O3       -6.8716     4.8435    -8.3401  O.3     1  <O>11      -0.5018
  20 C17      -7.7414     3.2796    -6.8421  C.ar    1  <O>11       0.1671
  21 N1       -9.0684     3.5006    -7.3605  N.4     1  <O>11       0.0097
  22 O4       -9.4335     4.8913    -7.1748  O.2     1  <O>11      -0.1299
  23 O5      -10.0092     2.6553    -6.6522  O.2     1  <O>11      -0.3960
  24 C18      -7.5385     2.3622    -5.8113  C.ar    1  <O>11      -0.0173
  25 H1       -5.6820     0.9599    -2.1376  H       1  <O>11       0.0394
  26 H2       -4.3630     1.7650    -3.0229  H       1  <O>11       0.0394
  27 H3       -4.6932     5.0318    -8.0795  H       1  <O>11       0.2923
  28 H4       -7.8163     4.8619    -8.5608  H       1  <O>11       0.2924
  29 H5       -4.1357     3.9604    -2.5514  H       1  <O>11       0.0621
  30 H6       -5.0471     6.1524    -2.0456  H       1  <O>11       0.0618
  31 H7       -7.4326     6.4257    -1.7166  H       1  <O>11       0.0624
  32 H8       -9.7026     5.4656    -1.6402  H       1  <O>11       0.0624
  33 H9      -11.1789     3.5594    -1.8659  H       1  <O>11       0.0618
  34 H10     -10.2746     1.3824    -2.4354  H       1  <O>11       0.0618
  35 H11      -7.8907     1.1108    -2.7727  H       1  <O>11       0.0624
  36 H12      -4.2115     2.7146    -5.4869  H       1  <O>11       0.0662
  37 H13      -9.9103     1.7237    -6.6737  H       1  <O>11       0.3292
  38 H14      -8.3372     1.8359    -5.4237  H       1  <O>11       0.0648
@<TRIPOS>BOND
     1     1     2    2
     2     2     3    1
     3     3     4    1
     4     4     5   ar
     5     5     6   ar
     6     6     7   ar
     7     7     8   ar
     8     8     9   ar
     9     9    10   ar
    10    10    11   ar
    11    11    12   ar
    12    12    13   ar
    13     4    13   ar
    14     8    13   ar
    15     2    14    1
    16    14    15   ar
    17    15    16   ar
    18    16    17    1
    19    16    18   ar
    20    18    19    1
    21    18    20   ar
    22    20    21    1
    23    21    22    2
    24    21    23    1
    25    20    24   ar
    26    14    24   ar
    27     3    25    1
    28     3    26    1
    29    17    27    1
    30    19    28    1
    31     5    29    1
    32     6    30    1
    33     7    31    1
    34     9    32    1
    35    10    33    1
    36    11    34    1
    37    12    35    1
    38    15    36    1
    39    23    37    1
    40    24    38    1
@<TRIPOS>MOLECULE
mol65_1_25
 38 40 0 0 0
SMALL
USER_CHARGES
****
VDW energy = 158.49
@<TRIPOS>ATOM
   1 O1       -6.3195     0.0314    -4.3629  O.2     1  <O>11      -0.2917
   2 C1       -6.0269     1.2087    -4.2154  C.2     1  <O>11       0.1676
   3 C2       -5.4450     1.6770    -2.9240  C.3     1  <O>11       0.0362
   4 C3       -6.0969     0.9682    -1.8048  C.ar    1  <O>11      -0.0322
   5 C4       -7.2429     1.5258    -1.2313  C.ar    1  <O>11      -0.0576
   6 C5       -7.8863     0.8589    -0.1933  C.ar    1  <O>11      -0.0609
   7 C6       -7.3682    -0.3482     0.2871  C.ar    1  <O>11      -0.0540
   8 C7       -6.2063    -0.9088    -0.2689  C.ar    1  <O>11      -0.0176
   9 C8       -5.6712    -2.1163     0.2068  C.ar    1  <O>11      -0.0540
  10 C9       -4.5190    -2.6596    -0.3630  C.ar    1  <O>11      -0.0612
  11 C10      -3.8885    -2.0050    -1.4182  C.ar    1  <O>11      -0.0612
  12 C11      -4.4090    -0.8042    -1.9031  C.ar    1  <O>11      -0.0538
  13 C12      -5.5642    -0.2428    -1.3354  C.ar    1  <O>11      -0.0143
  14 C13      -6.2460     2.1550    -5.3010  C.ar    1  <O>11       0.0236
  15 C14      -6.7939     1.7208    -6.5204  C.ar    1  <O>11      -0.0059
  16 C15      -6.9919     2.6288    -7.5664  C.ar    1  <O>11       0.1612
  17 O2       -7.4918     2.2176    -8.6868  O.3     1  <O>11      -0.5032
  18 C16      -6.6530     3.9750    -7.4050  C.ar    1  <O>11       0.1889
  19 O3       -6.8340     4.8190    -8.3690  O.3     1  <O>11      -0.5018
  20 C17      -6.1141     4.4072    -6.1876  C.ar    1  <O>11       0.1671
  21 N1       -5.7643     5.7965    -6.0261  N.4     1  <O>11       0.0097
  22 O4       -4.7647     6.1599    -7.0113  O.2     1  <O>11      -0.1299
  23 O5       -5.2299     6.0070    -4.6951  O.2     1  <O>11      -0.3960
  24 C18      -5.9131     3.5102    -5.1386  C.ar    1  <O>11      -0.0173
  25 H1       -4.3749     1.4684    -2.9110  H       1  <O>11       0.0394
  26 H2       -5.6085     2.7496    -2.8187  H       1  <O>11       0.0394
  27 H3       -7.5650     2.9636    -9.3027  H       1  <O>11       0.2923
  28 H4       -6.5458     5.7012    -8.0857  H       1  <O>11       0.2924
  29 H5       -7.6098     2.4268    -1.5756  H       1  <O>11       0.0621
  30 H6       -8.7445     1.2543     0.2215  H       1  <O>11       0.0618
  31 H7       -7.8466    -0.8342     1.0616  H       1  <O>11       0.0624
  32 H8       -6.1351    -2.6077     0.9867  H       1  <O>11       0.0624
  33 H9       -4.1340    -3.5466    -0.0024  H       1  <O>11       0.0618
  34 H10      -3.0375    -2.4073    -1.8412  H       1  <O>11       0.0618
  35 H11      -3.9400    -0.3239    -2.6869  H       1  <O>11       0.0624
  36 H12      -7.0509     0.7290    -6.6447  H       1  <O>11       0.0662
  37 H13      -5.7564     5.8176    -3.9435  H       1  <O>11       0.3292
  38 H14      -5.5202     3.8418    -4.2438  H       1  <O>11       0.0648
@<TRIPOS>BOND
     1     1     2    2
     2     2     3    1
     3     3     4    1
     4     4     5   ar
     5     5     6   ar
     6     6     7   ar
     7     7     8   ar
     8     8     9   ar
     9     9    10   ar
    10    10    11   ar
    11    11    12   ar
    12    12    13   ar
    13     4    13   ar
    14     8    13   ar
    15     2    14    1
    16    14    15   ar
    17    15    16   ar
    18    16    17    1
    19    16    18   ar
    20    18    19    1
    21    18    20   ar
    22    20    21    1
    23    21    22    2
    24    21    23    1
    25    20    24   ar
    26    14    24   ar
    27     3    25    1
    28     3    26    1
    29    17    27    1
    30    19    28    1
    31     5    29    1
    32     6    30    1
    33     7    31    1
    34     9    32    1
    35    10    33    1
    36    11    34    1
    37    12    35    1
    38    15    36    1
    39    23    37    1
    40    24    38    1
@<TRIPOS>MOLECULE
mol65_1_26
 38 40 0 0 0
SMALL
USER_CHARGES
****
VDW energy = 159.79
@<TRIPOS>ATOM
   1 O1       -6.3195     0.0314    -4.3629  O.2     1  <O>11      -0.2917
   2 C1       -6.0269     1.2087    -4.2154  C.2     1  <O>11       0.1676
   3 C2       -5.4450     1.6770    -2.9240  C.3     1  <O>11       0.0362
   4 C3       -6.0969     0.9682    -1.8048  C.ar    1  <O>11      -0.0322
   5 C4       -5.3100     0.1901    -0.9513  C.ar    1  <O>11      -0.0576
   6 C5       -5.9026    -0.4637     0.1246  C.ar    1  <O>11      -0.0609
   7 C6       -7.2824    -0.3612     0.3288  C.ar    1  <O>11      -0.0540
   8 C7       -8.0864     0.4027    -0.5335  C.ar    1  <O>11      -0.0176
   9 C8       -9.4733     0.5099    -0.3447  C.ar    1  <O>11      -0.0540
  10 C9      -10.2537     1.2786    -1.2094  C.ar    1  <O>11      -0.0612
  11 C10      -9.6576     1.9531    -2.2719  C.ar    1  <O>11      -0.0612
  12 C11      -8.2796     1.8573    -2.4722  C.ar    1  <O>11      -0.0538
  13 C12      -7.4829     1.0827    -1.6136  C.ar    1  <O>11      -0.0143
  14 C13      -6.2460     2.1550    -5.3010  C.ar    1  <O>11       0.0236
  15 C14      -6.7939     1.7208    -6.5204  C.ar    1  <O>11      -0.0059
  16 C15      -6.9919     2.6288    -7.5664  C.ar    1  <O>11       0.1612
  17 O2       -7.4918     2.2176    -8.6868  O.3     1  <O>11      -0.5032
  18 C16      -6.6530     3.9750    -7.4050  C.ar    1  <O>11       0.1889
  19 O3       -6.8340     4.8190    -8.3690  O.3     1  <O>11      -0.5018
  20 C17      -6.1141     4.4072    -6.1876  C.ar    1  <O>11       0.1671
  21 N1       -5.7643     5.7965    -6.0261  N.4     1  <O>11       0.0097
  22 O4       -4.7647     6.1599    -7.0113  O.2     1  <O>11      -0.1299
  23 O5       -5.2299     6.0070    -4.6951  O.2     1  <O>11      -0.3960
  24 C18      -5.9131     3.5102    -5.1386  C.ar    1  <O>11      -0.0173
  25 H1       -4.3749     1.4684    -2.9110  H       1  <O>11       0.0394
  26 H2       -5.6085     2.7496    -2.8187  H       1  <O>11       0.0394
  27 H3       -7.5650     2.9636    -9.3027  H       1  <O>11       0.2923
  28 H4       -6.5458     5.7012    -8.0857  H       1  <O>11       0.2924
  29 H5       -4.2955     0.1010    -1.1179  H       1  <O>11       0.0621
  30 H6       -5.3248    -1.0236     0.7709  H       1  <O>11       0.0618
  31 H7       -7.7164    -0.8541     1.1248  H       1  <O>11       0.0624
  32 H8       -9.9208     0.0148     0.4424  H       1  <O>11       0.0624
  33 H9      -11.2727     1.3471    -1.0614  H       1  <O>11       0.0618
  34 H10     -10.2340     2.5232    -2.9105  H       1  <O>11       0.0618
  35 H11      -7.8418     2.3609    -3.2594  H       1  <O>11       0.0624
  36 H12      -7.0509     0.7290    -6.6447  H       1  <O>11       0.0662
  37 H13      -5.7564     5.8176    -3.9435  H       1  <O>11       0.3292
  38 H14      -5.5202     3.8418    -4.2438  H       1  <O>11       0.0648
@<TRIPOS>BOND
     1     1     2    2
     2     2     3    1
     3     3     4    1
     4     4     5   ar
     5     5     6   ar
     6     6     7   ar
     7     7     8   ar
     8     8     9   ar
     9     9    10   ar
    10    10    11   ar
    11    11    12   ar
    12    12    13   ar
    13     4    13   ar
    14     8    13   ar
    15     2    14    1
    16    14    15   ar
    17    15    16   ar
    18    16    17    1
    19    16    18   ar
    20    18    19    1
    21    18    20   ar
    22    20    21    1
    23    21    22    2
    24    21    23    1
    25    20    24   ar
    26    14    24   ar
    27     3    25    1
    28     3    26    1
    29    17    27    1
    30    19    28    1
    31     5    29    1
    32     6    30    1
    33     7    31    1
    34     9    32    1
    35    10    33    1
    36    11    34    1
    37    12    35    1
    38    15    36    1
    39    23    37    1
    40    24    38    1
@<TRIPOS>MOLECULE
mol65_1_27
 38 40 0 0 0
SMALL
USER_CHARGES
****
VDW energy = 160.90
@<TRIPOS>ATOM
   1 O1       -6.3195     0.0314    -4.3629  O.2     1  <O>11      -0.2917
   2 C1       -6.0269     1.2087    -4.2154  C.2     1  <O>11       0.1676
   3 C2       -5.4450     1.6770    -2.9240  C.3     1  <O>11       0.0362
   4 C3       -6.0969     0.9682    -1.8048  C.ar    1  <O>11      -0.0322
   5 C4       -6.7802     1.7155    -0.8416  C.ar    1  <O>11      -0.0576
   6 C5       -7.4233     1.0632     0.2057  C.ar    1  <O>11      -0.0609
   7 C6       -7.3590    -0.3306     0.3036  C.ar    1  <O>11      -0.0540
   8 C7       -6.6594    -1.0909    -0.6482  C.ar    1  <O>11      -0.0176
   9 C8       -6.5811    -2.4897    -0.5597  C.ar    1  <O>11      -0.0540
  10 C9       -5.8857    -3.2274    -1.5188  C.ar    1  <O>11      -0.0612
  11 C10      -5.2626    -2.5769    -2.5808  C.ar    1  <O>11      -0.0612
  12 C11      -5.3323    -1.1868    -2.6832  C.ar    1  <O>11      -0.0538
  13 C12      -6.0235    -0.4313    -1.7223  C.ar    1  <O>11      -0.0143
  14 C13      -6.2460     2.1550    -5.3010  C.ar    1  <O>11       0.0236
  15 C14      -7.4684     2.8405    -5.4082  C.ar    1  <O>11      -0.0059
  16 C15      -7.6817     3.7396    -6.4589  C.ar    1  <O>11       0.1612
  17 O2       -8.8126     4.3614    -6.5515  O.3     1  <O>11      -0.5032
  18 C16      -6.6793     3.9682    -7.4056  C.ar    1  <O>11       0.1889
  19 O3       -6.8711     4.7987    -8.3792  O.3     1  <O>11      -0.5018
  20 C17      -5.4599     3.2901    -7.2934  C.ar    1  <O>11       0.1671
  21 N1       -4.4295     3.5276    -8.2733  N.4     1  <O>11       0.0097
  22 O4       -3.6229     2.3324    -8.4247  O.2     1  <O>11      -0.1299
  23 O5       -3.5900     4.6245    -7.8332  O.2     1  <O>11      -0.3960
  24 C18      -5.2372     2.3921    -6.2496  C.ar    1  <O>11      -0.0173
  25 H1       -4.3749     1.4684    -2.9110  H       1  <O>11       0.0394
  26 H2       -5.6085     2.7496    -2.8187  H       1  <O>11       0.0394
  27 H3       -8.8004     4.9435    -7.3276  H       1  <O>11       0.2923
  28 H4       -6.0776     4.8335    -8.9365  H       1  <O>11       0.2924
  29 H5       -6.8077     2.7451    -0.9067  H       1  <O>11       0.0621
  30 H6       -7.9469     1.6069     0.9094  H       1  <O>11       0.0618
  31 H7       -7.8326    -0.8075     1.0866  H       1  <O>11       0.0624
  32 H8       -7.0430    -2.9780     0.2234  H       1  <O>11       0.0624
  33 H9       -5.8332    -4.2551    -1.4409  H       1  <O>11       0.0618
  34 H10      -4.7498    -3.1222    -3.2913  H       1  <O>11       0.0618
  35 H11      -4.8712    -0.7092    -3.4733  H       1  <O>11       0.0624
  36 H12      -8.2111     2.6801    -4.7097  H       1  <O>11       0.0662
  37 H13      -3.9636     5.4715    -7.6882  H       1  <O>11       0.3292
  38 H14      -4.3320     1.9022    -6.1743  H       1  <O>11       0.0648
@<TRIPOS>BOND
     1     1     2    2
     2     2     3    1
     3     3     4    1
     4     4     5   ar
     5     5     6   ar
     6     6     7   ar
     7     7     8   ar
     8     8     9   ar
     9     9    10   ar
    10    10    11   ar
    11    11    12   ar
    12    12    13   ar
    13     4    13   ar
    14     8    13   ar
    15     2    14    1
    16    14    15   ar
    17    15    16   ar
    18    16    17    1
    19    16    18   ar
    20    18    19    1
    21    18    20   ar
    22    20    21    1
    23    21    22    2
    24    21    23    1
    25    20    24   ar
    26    14    24   ar
    27     3    25    1
    28     3    26    1
    29    17    27    1
    30    19    28    1
    31     5    29    1
    32     6    30    1
    33     7    31    1
    34     9    32    1
    35    10    33    1
    36    11    34    1
    37    12    35    1
    38    15    36    1
    39    23    37    1
    40    24    38    1
@<TRIPOS>MOLECULE
mol65_1_28
 38 40 0 0 0
SMALL
USER_CHARGES
****
VDW energy = 162.07
@<TRIPOS>ATOM
   1 O1       -6.3195     0.0314    -4.3629  O.2     1  <O>11      -0.2917
   2 C1       -6.0269     1.2087    -4.2154  C.2     1  <O>11       0.1676
   3 C2       -5.4450     1.6770    -2.9240  C.3     1  <O>11       0.0362
   4 C3       -6.0969     0.9682    -1.8048  C.ar    1  <O>11      -0.0322
   5 C4       -6.7802     1.7155    -0.8416  C.ar    1  <O>11      -0.0576
   6 C5       -7.4233     1.0632     0.2057  C.ar    1  <O>11      -0.0609
   7 C6       -7.3590    -0.3306     0.3036  C.ar    1  <O>11      -0.0540
   8 C7       -6.6594    -1.0909    -0.6482  C.ar    1  <O>11      -0.0176
   9 C8       -6.5811    -2.4897    -0.5597  C.ar    1  <O>11      -0.0540
  10 C9       -5.8857    -3.2274    -1.5188  C.ar    1  <O>11      -0.0612
  11 C10      -5.2626    -2.5769    -2.5808  C.ar    1  <O>11      -0.0612
  12 C11      -5.3323    -1.1868    -2.6832  C.ar    1  <O>11      -0.0538
  13 C12      -6.0235    -0.4313    -1.7223  C.ar    1  <O>11      -0.0143
  14 C13      -6.2460     2.1550    -5.3010  C.ar    1  <O>11       0.0236
  15 C14      -7.0983     3.2578    -5.1192  C.ar    1  <O>11      -0.0059
  16 C15      -7.3174     4.1587    -6.1671  C.ar    1  <O>11       0.1612
  17 O2       -8.1082     5.1676    -5.9909  O.3     1  <O>11      -0.5032
  18 C16      -6.6858     3.9732    -7.4000  C.ar    1  <O>11       0.1889
  19 O3       -6.8849     4.8032    -8.3725  O.3     1  <O>11      -0.5018
  20 C17      -5.8318     2.8784    -7.5772  C.ar    1  <O>11       0.1671
  21 N1       -5.1839     2.6899    -8.8512  N.4     1  <O>11       0.0097
  22 O4       -4.9641     1.2746    -9.0760  O.2     1  <O>11      -0.1299
  23 O5       -3.9105     3.3826    -8.8510  O.2     1  <O>11      -0.3960
  24 C18      -5.6064     1.9748    -6.5389  C.ar    1  <O>11      -0.0173
  25 H1       -4.3749     1.4684    -2.9110  H       1  <O>11       0.0394
  26 H2       -5.6085     2.7496    -2.8187  H       1  <O>11       0.0394
  27 H3       -8.1520     5.6918    -6.8061  H       1  <O>11       0.2923
  28 H4       -6.3721     4.5235    -9.1473  H       1  <O>11       0.2924
  29 H5       -6.8077     2.7451    -0.9067  H       1  <O>11       0.0621
  30 H6       -7.9469     1.6069     0.9094  H       1  <O>11       0.0618
  31 H7       -7.8326    -0.8075     1.0866  H       1  <O>11       0.0624
  32 H8       -7.0430    -2.9780     0.2234  H       1  <O>11       0.0624
  33 H9       -5.8332    -4.2551    -1.4409  H       1  <O>11       0.0618
  34 H10      -4.7498    -3.1222    -3.2913  H       1  <O>11       0.0618
  35 H11      -4.8712    -0.7092    -3.4733  H       1  <O>11       0.0624
  36 H12      -7.5640     3.4035    -4.2098  H       1  <O>11       0.0662
  37 H13      -3.8814     4.3096    -8.7175  H       1  <O>11       0.3292
  38 H14      -4.9703     1.1745    -6.6798  H       1  <O>11       0.0648
@<TRIPOS>BOND
     1     1     2    2
     2     2     3    1
     3     3     4    1
     4     4     5   ar
     5     5     6   ar
     6     6     7   ar
     7     7     8   ar
     8     8     9   ar
     9     9    10   ar
    10    10    11   ar
    11    11    12   ar
    12    12    13   ar
    13     4    13   ar
    14     8    13   ar
    15     2    14    1
    16    14    15   ar
    17    15    16   ar
    18    16    17    1
    19    16    18   ar
    20    18    19    1
    21    18    20   ar
    22    20    21    1
    23    21    22    2
    24    21    23    1
    25    20    24   ar
    26    14    24   ar
    27     3    25    1
    28     3    26    1
    29    17    27    1
    30    19    28    1
    31     5    29    1
    32     6    30    1
    33     7    31    1
    34     9    32    1
    35    10    33    1
    36    11    34    1
    37    12    35    1
    38    15    36    1
    39    23    37    1
    40    24    38    1
@<TRIPOS>MOLECULE
mol65_1_29
 38 40 0 0 0
SMALL
USER_CHARGES
****
VDW energy = 163.72
@<TRIPOS>ATOM
   1 O1       -6.3195     0.0314    -4.3629  O.2     1  <O>11      -0.2917
   2 C1       -6.0269     1.2087    -4.2154  C.2     1  <O>11       0.1676
   3 C2       -5.4450     1.6770    -2.9240  C.3     1  <O>11       0.0362
   4 C3       -6.0155     2.9936    -2.5760  C.ar    1  <O>11      -0.0322
   5 C4       -7.0229     3.0564    -1.6094  C.ar    1  <O>11      -0.0576
   6 C5       -7.5540     4.2910    -1.2492  C.ar    1  <O>11      -0.0609
   7 C6       -7.0974     5.4558    -1.8744  C.ar    1  <O>11      -0.0540
   8 C7       -6.0985     5.4032    -2.8608  C.ar    1  <O>11      -0.0176
   9 C8       -5.6346     6.5630    -3.5013  C.ar    1  <O>11      -0.0540
  10 C9       -4.6374     6.4900    -4.4748  C.ar    1  <O>11      -0.0612
  11 C10      -4.0881     5.2572    -4.8182  C.ar    1  <O>11      -0.0612
  12 C11      -4.5380     4.0952    -4.1896  C.ar    1  <O>11      -0.0538
  13 C12      -5.5450     4.1529    -3.2126  C.ar    1  <O>11      -0.0143
  14 C13      -6.2460     2.1550    -5.3010  C.ar    1  <O>11       0.0236
  15 C14      -7.4684     2.8405    -5.4082  C.ar    1  <O>11      -0.0059
  16 C15      -7.6817     3.7396    -6.4589  C.ar    1  <O>11       0.1612
  17 O2       -8.8126     4.3614    -6.5515  O.3     1  <O>11      -0.5032
  18 C16      -6.6793     3.9682    -7.4056  C.ar    1  <O>11       0.1889
  19 O3       -6.8711     4.7987    -8.3792  O.3     1  <O>11      -0.5018
  20 C17      -5.4599     3.2901    -7.2934  C.ar    1  <O>11       0.1671
  21 N1       -4.4295     3.5276    -8.2733  N.4     1  <O>11       0.0097
  22 O4       -4.9219     3.1671    -9.5884  O.2     1  <O>11      -0.1299
  23 O5       -3.2672     2.7219    -7.9549  O.2     1  <O>11      -0.3960
  24 C18      -5.2372     2.3921    -6.2496  C.ar    1  <O>11      -0.0173
  25 H1       -5.6820     0.9599    -2.1376  H       1  <O>11       0.0394
  26 H2       -4.3630     1.7650    -3.0229  H       1  <O>11       0.0394
  27 H3       -8.8004     4.9435    -7.3276  H       1  <O>11       0.2923
  28 H4       -6.0776     4.8335    -8.9365  H       1  <O>11       0.2924
  29 H5       -7.3709     2.1922    -1.1655  H       1  <O>11       0.0621
  30 H6       -8.2838     4.3471    -0.5217  H       1  <O>11       0.0618
  31 H7       -7.5003     6.3674    -1.6072  H       1  <O>11       0.0624
  32 H8       -6.0356     7.4799    -3.2494  H       1  <O>11       0.0624
  33 H9       -4.3069     7.3497    -4.9403  H       1  <O>11       0.0618
  34 H10      -3.3493     5.2029    -5.5367  H       1  <O>11       0.0618
  35 H11      -4.1263     3.1841    -4.4454  H       1  <O>11       0.0624
  36 H12      -8.2111     2.6801    -4.7097  H       1  <O>11       0.0662
  37 H13      -2.8293     2.8349    -7.1342  H       1  <O>11       0.3292
  38 H14      -4.3320     1.9022    -6.1743  H       1  <O>11       0.0648
@<TRIPOS>BOND
     1     1     2    2
     2     2     3    1
     3     3     4    1
     4     4     5   ar
     5     5     6   ar
     6     6     7   ar
     7     7     8   ar
     8     8     9   ar
     9     9    10   ar
    10    10    11   ar
    11    11    12   ar
    12    12    13   ar
    13     4    13   ar
    14     8    13   ar
    15     2    14    1
    16    14    15   ar
    17    15    16   ar
    18    16    17    1
    19    16    18   ar
    20    18    19    1
    21    18    20   ar
    22    20    21    1
    23    21    22    2
    24    21    23    1
    25    20    24   ar
    26    14    24   ar
    27     3    25    1
    28     3    26    1
    29    17    27    1
    30    19    28    1
    31     5    29    1
    32     6    30    1
    33     7    31    1
    34     9    32    1
    35    10    33    1
    36    11    34    1
    37    12    35    1
    38    15    36    1
    39    23    37    1
    40    24    38    1
@<TRIPOS>MOLECULE
mol65_1_30
 38 40 0 0 0
SMALL
USER_CHARGES
****
VDW energy = 168.99
@<TRIPOS>ATOM
   1 O1       -6.3195     0.0314    -4.3629  O.2     1  <O>11      -0.2917
   2 C1       -6.0269     1.2087    -4.2154  C.2     1  <O>11       0.1676
   3 C2       -5.4450     1.6770    -2.9240  C.3     1  <O>11       0.0362
   4 C3       -6.0969     0.9682    -1.8048  C.ar    1  <O>11      -0.0322
   5 C4       -7.0921     0.0296    -2.0910  C.ar    1  <O>11      -0.0576
   6 C5       -7.6990    -0.6675    -1.0510  C.ar    1  <O>11      -0.0609
   7 C6       -7.3304    -0.4058     0.2726  C.ar    1  <O>11      -0.0540
   8 C7       -6.3447     0.5488     0.5736  C.ar    1  <O>11      -0.0176
   9 C8       -5.9687     0.8265     1.8973  C.ar    1  <O>11      -0.0540
  10 C9       -4.9831     1.7747     2.1749  C.ar    1  <O>11      -0.0612
  11 C10      -4.3578     2.4551     1.1331  C.ar    1  <O>11      -0.0612
  12 C11      -4.7199     2.1893    -0.1884  C.ar    1  <O>11      -0.0538
  13 C12      -5.7142     1.2422    -0.4823  C.ar    1  <O>11      -0.0143
  14 C13      -6.2460     2.1550    -5.3010  C.ar    1  <O>11       0.0236
  15 C14      -5.1602     2.8363    -5.8778  C.ar    1  <O>11      -0.0059
  16 C15      -5.3740     3.7542    -6.9119  C.ar    1  <O>11       0.1612
  17 O2       -4.3681     4.3801    -7.4322  O.3     1  <O>11      -0.5032
  18 C16      -6.6671     3.9960    -7.3839  C.ar    1  <O>11       0.1889
  19 O3       -6.8705     4.8438    -8.3400  O.3     1  <O>11      -0.5018
  20 C17      -7.7465     3.3115    -6.8133  C.ar    1  <O>11       0.1671
  21 N1       -9.0789     3.5654    -7.3020  N.4     1  <O>11       0.0097
  22 O4      -10.0381     2.8539    -6.4800  O.2     1  <O>11      -0.1299
  23 O5       -9.1842     3.1075    -8.6734  O.2     1  <O>11      -0.3960
  24 C18      -7.5441     2.3942    -5.7823  C.ar    1  <O>11      -0.0173
  25 H1       -4.3749     1.4684    -2.9110  H       1  <O>11       0.0394
  26 H2       -5.6085     2.7496    -2.8187  H       1  <O>11       0.0394
  27 H3       -4.6824     4.9749    -8.1313  H       1  <O>11       0.2923
  28 H4       -7.8193     4.8864    -8.5388  H       1  <O>11       0.2924
  29 H5       -7.3751    -0.1453    -3.0678  H       1  <O>11       0.0621
  30 H6       -8.4203    -1.3767    -1.2559  H       1  <O>11       0.0618
  31 H7       -7.7893    -0.9217     1.0395  H       1  <O>11       0.0624
  32 H8       -6.4262     0.3238     2.6738  H       1  <O>11       0.0624
  33 H9       -4.7175     1.9717     3.1525  H       1  <O>11       0.0618
  34 H10      -3.6276     3.1550     1.3378  H       1  <O>11       0.0618
  35 H11      -4.2522     2.6941    -0.9574  H       1  <O>11       0.0624
  36 H12      -4.2022     2.6588    -5.5374  H       1  <O>11       0.0662
  37 H13      -8.6279     3.4725    -9.3332  H       1  <O>11       0.3292
  38 H14      -8.3472     1.8915    -5.3732  H       1  <O>11       0.0648
@<TRIPOS>BOND
     1     1     2    2
     2     2     3    1
     3     3     4    1
     4     4     5   ar
     5     5     6   ar
     6     6     7   ar
     7     7     8   ar
     8     8     9   ar
     9     9    10   ar
    10    10    11   ar
    11    11    12   ar
    12    12    13   ar
    13     4    13   ar
    14     8    13   ar
    15     2    14    1
    16    14    15   ar
    17    15    16   ar
    18    16    17    1
    19    16    18   ar
    20    18    19    1
    21    18    20   ar
    22    20    21    1
    23    21    22    2
    24    21    23    1
    25    20    24   ar
    26    14    24   ar
    27     3    25    1
    28     3    26    1
    29    17    27    1
    30    19    28    1
    31     5    29    1
    32     6    30    1
    33     7    31    1
    34     9    32    1
    35    10    33    1
    36    11    34    1
    37    12    35    1
    38    15    36    1
    39    23    37    1
    40    24    38    1
