@<TRIPOS>MOLECULE
mol69_1_1
 40 42 0 0 0
SMALL
USER_CHARGES
****
VDW energy = -158.89
@<TRIPOS>ATOM
   1 C1        2.8936    -7.6802    -5.8629  C.3     1  <O>11       0.0059
   2 N1        3.6845    -8.8982    -5.7123  N.3     1  <O>11      -0.1930
   3 S1        3.1570    -9.7380    -4.3910  S.O2    1  <O>11       0.0582
   4 O1        3.3260    -8.7960    -3.0330  O.2     1  <O>11      -0.1531
   5 O2        1.5570   -10.1370    -4.5920  O.2     1  <O>11      -0.1531
   6 C2        4.1100   -11.2060    -4.2090  C.ar    1  <O>11       0.1070
   7 C3        5.4910   -11.1070    -4.0270  C.ar    1  <O>11      -0.0352
   8 C4        6.2550   -12.2710    -3.8940  C.ar    1  <O>11      -0.0582
   9 C5        5.6420   -13.5260    -3.9380  C.ar    1  <O>11      -0.0404
  10 C6        4.2560   -13.6090    -4.1160  C.ar    1  <O>11       0.0354
  11 N2        3.6290   -14.9040    -4.1600  N.pl3   1  <O>11      -0.2836
  12 C7        3.6241   -15.7482    -2.9795  C.ar    1  <O>11       0.2200
  13 N3        3.0288   -16.9646    -3.0421  N.ar    1  <O>11      -0.2226
  14 C8        3.0382   -17.7293    -1.9363  C.ar    1  <O>11       0.0332
  15 C9        3.6161   -17.3440    -0.7551  C.ar    1  <O>11      -0.0174
  16 C10       4.1965   -16.1023    -0.7676  C.ar    1  <O>11       0.0760
  17 C11       4.8229   -15.6079     0.4153  C.ar    1  <O>11       0.0005
  18 C12       4.0818   -14.8669     1.3518  C.ar    1  <O>11      -0.0526
  19 C13       4.6992   -14.3708     2.5070  C.ar    1  <O>11      -0.0611
  20 C14       6.0586   -14.6118     2.7363  C.ar    1  <O>11      -0.0617
  21 C15       6.7911   -15.3551     1.8058  C.ar    1  <O>11      -0.0611
  22 C16       6.1840   -15.8550     0.6519  C.ar    1  <O>11      -0.0526
  23 N4        4.2153   -15.3005    -1.8478  N.ar    1  <O>11      -0.2142
  24 C17       3.4840   -12.4530    -4.2470  C.ar    1  <O>11      -0.0141
  25 H1        3.0048    -7.0623    -4.9718  H       1  <O>11       0.0405
  26 H2        1.8439    -7.9425    -5.9945  H       1  <O>11       0.0405
  27 H3        3.2419    -7.1264    -6.7347  H       1  <O>11       0.0405
  28 H4        3.5805    -9.4763    -6.5461  H       1  <O>11       0.1477
  29 H5        3.1884   -15.2291    -5.0203  H       1  <O>11       0.1550
  30 H6        5.9450   -10.1809    -3.9909  H       1  <O>11       0.0637
  31 H7        7.2763   -12.2027    -3.7627  H       1  <O>11       0.0619
  32 H8        6.2064   -14.3845    -3.8401  H       1  <O>11       0.0636
  33 H9        2.5861   -18.6560    -1.9795  H       1  <O>11       0.0831
  34 H10       3.6143   -17.9455     0.0835  H       1  <O>11       0.0654
  35 H11       3.0789   -14.6875     1.1875  H       1  <O>11       0.0624
  36 H12       4.1504   -13.8264     3.1906  H       1  <O>11       0.0618
  37 H13       6.5165   -14.2439     3.5849  H       1  <O>11       0.0618
  38 H14       7.7930   -15.5366     1.9739  H       1  <O>11       0.0618
  39 H15       6.7350   -16.4051    -0.0254  H       1  <O>11       0.0624
  40 H16       2.4616   -12.5198    -4.3706  H       1  <O>11       0.0656
@<TRIPOS>BOND
     1     1     2    1
     2     2     3    1
     3     3     4    2
     4     3     5    2
     5     3     6    1
     6     6     7   ar
     7     7     8   ar
     8     8     9   ar
     9     9    10   ar
    10    10    11    1
    11    11    12    1
    12    12    13   ar
    13    13    14   ar
    14    14    15   ar
    15    15    16   ar
    16    16    17    1
    17    17    18   ar
    18    18    19   ar
    19    19    20   ar
    20    20    21   ar
    21    21    22   ar
    22    17    22   ar
    23    16    23   ar
    24    12    23   ar
    25    10    24   ar
    26     6    24   ar
    27     1    25    1
    28     1    26    1
    29     1    27    1
    30     2    28    1
    31    11    29    1
    32     7    30    1
    33     8    31    1
    34     9    32    1
    35    14    33    1
    36    15    34    1
    37    18    35    1
    38    19    36    1
    39    20    37    1
    40    21    38    1
    41    22    39    1
    42    24    40    1
@<TRIPOS>MOLECULE
mol69_1_2
 40 42 0 0 0
SMALL
USER_CHARGES
****
VDW energy = -156.53
@<TRIPOS>ATOM
   1 C1        2.8936    -7.6802    -5.8629  C.3     1  <O>11       0.0059
   2 N1        3.6845    -8.8982    -5.7123  N.3     1  <O>11      -0.1930
   3 S1        3.1570    -9.7380    -4.3910  S.O2    1  <O>11       0.0582
   4 O1        3.3260    -8.7960    -3.0330  O.2     1  <O>11      -0.1531
   5 O2        1.5570   -10.1370    -4.5920  O.2     1  <O>11      -0.1531
   6 C2        4.1100   -11.2060    -4.2090  C.ar    1  <O>11       0.1070
   7 C3        5.4910   -11.1070    -4.0270  C.ar    1  <O>11      -0.0352
   8 C4        6.2550   -12.2710    -3.8940  C.ar    1  <O>11      -0.0582
   9 C5        5.6420   -13.5260    -3.9380  C.ar    1  <O>11      -0.0404
  10 C6        4.2560   -13.6090    -4.1160  C.ar    1  <O>11       0.0354
  11 N2        3.6290   -14.9040    -4.1600  N.pl3   1  <O>11      -0.2836
  12 C7        2.1930   -15.0090    -4.3420  C.ar    1  <O>11       0.2200
  13 N3        1.6926   -15.0900    -5.5994  N.ar    1  <O>11      -0.2226
  14 C8        0.3594   -15.1881    -5.7428  C.ar    1  <O>11       0.0332
  15 C9       -0.5152   -15.2104    -4.6882  C.ar    1  <O>11      -0.0174
  16 C10       0.0635   -15.1231    -3.4487  C.ar    1  <O>11       0.0760
  17 C11      -0.7627   -15.1350    -2.2854  C.ar    1  <O>11       0.0005
  18 C12      -1.0901   -16.3516    -1.6624  C.ar    1  <O>11      -0.0526
  19 C13      -1.9112   -16.3649    -0.5278  C.ar    1  <O>11      -0.0611
  20 C14      -2.4097   -15.1654    -0.0066  C.ar    1  <O>11      -0.0617
  21 C15      -2.0762   -13.9566    -0.6251  C.ar    1  <O>11      -0.0611
  22 C16      -1.2571   -13.9332    -1.7557  C.ar    1  <O>11      -0.0526
  23 N4        1.3910   -15.0254    -3.2525  N.ar    1  <O>11      -0.2142
  24 C17       3.4840   -12.4530    -4.2470  C.ar    1  <O>11      -0.0141
  25 H1        3.0048    -7.0623    -4.9718  H       1  <O>11       0.0405
  26 H2        1.8439    -7.9425    -5.9945  H       1  <O>11       0.0405
  27 H3        3.2419    -7.1264    -6.7347  H       1  <O>11       0.0405
  28 H4        3.5805    -9.4763    -6.5461  H       1  <O>11       0.1477
  29 H5        4.1930   -15.7480    -4.0630  H       1  <O>11       0.1550
  30 H6        5.9450   -10.1809    -3.9909  H       1  <O>11       0.0637
  31 H7        7.2763   -12.2027    -3.7627  H       1  <O>11       0.0619
  32 H8        6.2064   -14.3845    -3.8401  H       1  <O>11       0.0636
  33 H9       -0.0258   -15.2499    -6.6982  H       1  <O>11       0.0831
  34 H10      -1.5361   -15.2873    -4.8178  H       1  <O>11       0.0654
  35 H11      -0.7241   -17.2385    -2.0424  H       1  <O>11       0.0624
  36 H12      -2.1493   -17.2612    -0.0750  H       1  <O>11       0.0618
  37 H13      -3.0180   -15.1732     0.8270  H       1  <O>11       0.0618
  38 H14      -2.4401   -13.0705    -0.2411  H       1  <O>11       0.0618
  39 H15      -1.0158   -13.0340    -2.2009  H       1  <O>11       0.0624
  40 H16       2.4616   -12.5198    -4.3706  H       1  <O>11       0.0656
@<TRIPOS>BOND
     1     1     2    1
     2     2     3    1
     3     3     4    2
     4     3     5    2
     5     3     6    1
     6     6     7   ar
     7     7     8   ar
     8     8     9   ar
     9     9    10   ar
    10    10    11    1
    11    11    12    1
    12    12    13   ar
    13    13    14   ar
    14    14    15   ar
    15    15    16   ar
    16    16    17    1
    17    17    18   ar
    18    18    19   ar
    19    19    20   ar
    20    20    21   ar
    21    21    22   ar
    22    17    22   ar
    23    16    23   ar
    24    12    23   ar
    25    10    24   ar
    26     6    24   ar
    27     1    25    1
    28     1    26    1
    29     1    27    1
    30     2    28    1
    31    11    29    1
    32     7    30    1
    33     8    31    1
    34     9    32    1
    35    14    33    1
    36    15    34    1
    37    18    35    1
    38    19    36    1
    39    20    37    1
    40    21    38    1
    41    22    39    1
    42    24    40    1
@<TRIPOS>MOLECULE
mol69_1_3
 40 42 0 0 0
SMALL
USER_CHARGES
****
VDW energy = -156.18
@<TRIPOS>ATOM
   1 C1        2.8936    -7.6802    -5.8629  C.3     1  <O>11       0.0059
   2 N1        3.6845    -8.8982    -5.7123  N.3     1  <O>11      -0.1930
   3 S1        3.1570    -9.7380    -4.3910  S.O2    1  <O>11       0.0582
   4 O1        3.3261    -8.7960    -3.0330  O.2     1  <O>11      -0.1531
   5 O2        1.5570   -10.1369    -4.5919  O.2     1  <O>11      -0.1531
   6 C2        4.1099   -11.2061    -4.2091  C.ar    1  <O>11       0.1070
   7 C3        5.4909   -11.1072    -4.0271  C.ar    1  <O>11      -0.0352
   8 C4        6.2549   -12.2712    -3.8942  C.ar    1  <O>11      -0.0582
   9 C5        5.6418   -13.5262    -3.9382  C.ar    1  <O>11      -0.0404
  10 C6        4.2558   -13.6091    -4.1161  C.ar    1  <O>11       0.0354
  11 N2        3.6287   -14.9040    -4.1601  N.pl3   1  <O>11      -0.2836
  12 C7        3.9195   -15.8142    -5.2525  C.ar    1  <O>11       0.2200
  13 N3        3.1513   -15.7703    -6.3687  N.ar    1  <O>11      -0.2226
  14 C8        3.4409   -16.6221    -7.3678  C.ar    1  <O>11       0.0332
  15 C9        4.4678   -17.5278    -7.3159  C.ar    1  <O>11      -0.0174
  16 C10       5.1989   -17.5146    -6.1565  C.ar    1  <O>11       0.0760
  17 C11       6.2890   -18.4226    -6.0032  C.ar    1  <O>11       0.0005
  18 C12       7.5909   -17.9364    -5.7938  C.ar    1  <O>11      -0.0526
  19 C13       8.6631   -18.8270    -5.6556  C.ar    1  <O>11      -0.0611
  20 C14       8.4436   -20.2076    -5.7240  C.ar    1  <O>11      -0.0617
  21 C15       7.1460   -20.6877    -5.9257  C.ar    1  <O>11      -0.0611
  22 C16       6.0706   -19.8076    -6.0631  C.ar    1  <O>11      -0.0526
  23 N4        4.9507   -16.6815    -5.1297  N.ar    1  <O>11      -0.2142
  24 C17       3.4838   -12.4530    -4.2471  C.ar    1  <O>11      -0.0141
  25 H1        3.0048    -7.0623    -4.9718  H       1  <O>11       0.0405
  26 H2        1.8439    -7.9425    -5.9945  H       1  <O>11       0.0405
  27 H3        3.2419    -7.1264    -6.7347  H       1  <O>11       0.0405
  28 H4        3.5805    -9.4763    -6.5461  H       1  <O>11       0.1477
  29 H5        2.9798   -15.1825    -3.4245  H       1  <O>11       0.1550
  30 H6        5.9450   -10.1811    -3.9910  H       1  <O>11       0.0637
  31 H7        7.2762   -12.2030    -3.7629  H       1  <O>11       0.0619
  32 H8        6.2061   -14.3847    -3.8403  H       1  <O>11       0.0636
  33 H9        2.8586   -16.5921    -8.2194  H       1  <O>11       0.0831
  34 H10       4.6757   -18.1734    -8.0937  H       1  <O>11       0.0654
  35 H11       7.7576   -16.9193    -5.7416  H       1  <O>11       0.0624
  36 H12       9.6171   -18.4644    -5.5031  H       1  <O>11       0.0618
  37 H13       9.2327   -20.8655    -5.6264  H       1  <O>11       0.0618
  38 H14       6.9809   -21.7052    -5.9737  H       1  <O>11       0.0618
  39 H15       5.1172   -20.1749    -6.2083  H       1  <O>11       0.0624
  40 H16       2.4614   -12.5198    -4.3706  H       1  <O>11       0.0656
@<TRIPOS>BOND
     1     1     2    1
     2     2     3    1
     3     3     4    2
     4     3     5    2
     5     3     6    1
     6     6     7   ar
     7     7     8   ar
     8     8     9   ar
     9     9    10   ar
    10    10    11    1
    11    11    12    1
    12    12    13   ar
    13    13    14   ar
    14    14    15   ar
    15    15    16   ar
    16    16    17    1
    17    17    18   ar
    18    18    19   ar
    19    19    20   ar
    20    20    21   ar
    21    21    22   ar
    22    17    22   ar
    23    16    23   ar
    24    12    23   ar
    25    10    24   ar
    26     6    24   ar
    27     1    25    1
    28     1    26    1
    29     1    27    1
    30     2    28    1
    31    11    29    1
    32     7    30    1
    33     8    31    1
    34     9    32    1
    35    14    33    1
    36    15    34    1
    37    18    35    1
    38    19    36    1
    39    20    37    1
    40    21    38    1
    41    22    39    1
    42    24    40    1
@<TRIPOS>MOLECULE
mol69_1_4
 40 42 0 0 0
SMALL
USER_CHARGES
****
VDW energy = -156.13
@<TRIPOS>ATOM
   1 C1        2.8936    -7.6802    -5.8629  C.3     1  <O>11       0.0059
   2 N1        3.6845    -8.8982    -5.7123  N.3     1  <O>11      -0.1930
   3 S1        3.1570    -9.7380    -4.3910  S.O2    1  <O>11       0.0582
   4 O1        3.3261    -8.7960    -3.0330  O.2     1  <O>11      -0.1531
   5 O2        1.5570   -10.1369    -4.5919  O.2     1  <O>11      -0.1531
   6 C2        4.1099   -11.2061    -4.2091  C.ar    1  <O>11       0.1070
   7 C3        5.4909   -11.1072    -4.0271  C.ar    1  <O>11      -0.0352
   8 C4        6.2549   -12.2712    -3.8942  C.ar    1  <O>11      -0.0582
   9 C5        5.6418   -13.5262    -3.9382  C.ar    1  <O>11      -0.0404
  10 C6        4.2558   -13.6091    -4.1161  C.ar    1  <O>11       0.0354
  11 N2        3.6287   -14.9040    -4.1601  N.pl3   1  <O>11      -0.2836
  12 C7        3.9195   -15.8142    -5.2525  C.ar    1  <O>11       0.2200
  13 N3        3.1513   -15.7703    -6.3687  N.ar    1  <O>11      -0.2226
  14 C8        3.4409   -16.6221    -7.3678  C.ar    1  <O>11       0.0332
  15 C9        4.4678   -17.5278    -7.3159  C.ar    1  <O>11      -0.0174
  16 C10       5.1989   -17.5146    -6.1565  C.ar    1  <O>11       0.0760
  17 C11       6.2890   -18.4226    -6.0032  C.ar    1  <O>11       0.0005
  18 C12       6.2882   -19.3586    -4.9548  C.ar    1  <O>11      -0.0526
  19 C13       7.3636   -20.2419    -4.7965  C.ar    1  <O>11      -0.0611
  20 C14       8.4456   -20.1983    -5.6832  C.ar    1  <O>11      -0.0617
  21 C15       8.4397   -19.2703    -6.7290  C.ar    1  <O>11      -0.0611
  22 C16       7.3713   -18.3867    -6.8958  C.ar    1  <O>11      -0.0526
  23 N4        4.9507   -16.6815    -5.1297  N.ar    1  <O>11      -0.2142
  24 C17       3.4838   -12.4530    -4.2471  C.ar    1  <O>11      -0.0141
  25 H1        3.0048    -7.0623    -4.9718  H       1  <O>11       0.0405
  26 H2        1.8439    -7.9425    -5.9945  H       1  <O>11       0.0405
  27 H3        3.2419    -7.1264    -6.7347  H       1  <O>11       0.0405
  28 H4        3.5805    -9.4763    -6.5461  H       1  <O>11       0.1477
  29 H5        2.9798   -15.1825    -3.4245  H       1  <O>11       0.1550
  30 H6        5.9450   -10.1811    -3.9910  H       1  <O>11       0.0637
  31 H7        7.2762   -12.2030    -3.7629  H       1  <O>11       0.0619
  32 H8        6.2061   -14.3847    -3.8403  H       1  <O>11       0.0636
  33 H9        2.8586   -16.5921    -8.2194  H       1  <O>11       0.0831
  34 H10       4.6757   -18.1734    -8.0937  H       1  <O>11       0.0654
  35 H11       5.4921   -19.3953    -4.2991  H       1  <O>11       0.0624
  36 H12       7.3582   -20.9264    -4.0242  H       1  <O>11       0.0618
  37 H13       9.2409   -20.8454    -5.5661  H       1  <O>11       0.0618
  38 H14       9.2349   -19.2379    -7.3860  H       1  <O>11       0.0618
  39 H15       7.3776   -17.7088    -7.6738  H       1  <O>11       0.0624
  40 H16       2.4614   -12.5198    -4.3706  H       1  <O>11       0.0656
@<TRIPOS>BOND
     1     1     2    1
     2     2     3    1
     3     3     4    2
     4     3     5    2
     5     3     6    1
     6     6     7   ar
     7     7     8   ar
     8     8     9   ar
     9     9    10   ar
    10    10    11    1
    11    11    12    1
    12    12    13   ar
    13    13    14   ar
    14    14    15   ar
    15    15    16   ar
    16    16    17    1
    17    17    18   ar
    18    18    19   ar
    19    19    20   ar
    20    20    21   ar
    21    21    22   ar
    22    17    22   ar
    23    16    23   ar
    24    12    23   ar
    25    10    24   ar
    26     6    24   ar
    27     1    25    1
    28     1    26    1
    29     1    27    1
    30     2    28    1
    31    11    29    1
    32     7    30    1
    33     8    31    1
    34     9    32    1
    35    14    33    1
    36    15    34    1
    37    18    35    1
    38    19    36    1
    39    20    37    1
    40    21    38    1
    41    22    39    1
    42    24    40    1
@<TRIPOS>MOLECULE
mol69_1_5
 40 42 0 0 0
SMALL
USER_CHARGES
****
VDW energy = -155.55
@<TRIPOS>ATOM
   1 C1        2.8936    -7.6802    -5.8629  C.3     1  <O>11       0.0059
   2 N1        3.6845    -8.8982    -5.7123  N.3     1  <O>11      -0.1930
   3 S1        3.1570    -9.7380    -4.3910  S.O2    1  <O>11       0.0582
   4 O1        3.3260    -8.7960    -3.0330  O.2     1  <O>11      -0.1531
   5 O2        1.5570   -10.1370    -4.5920  O.2     1  <O>11      -0.1531
   6 C2        4.1100   -11.2060    -4.2090  C.ar    1  <O>11       0.1070
   7 C3        5.4910   -11.1070    -4.0270  C.ar    1  <O>11      -0.0352
   8 C4        6.2550   -12.2710    -3.8940  C.ar    1  <O>11      -0.0582
   9 C5        5.6420   -13.5260    -3.9380  C.ar    1  <O>11      -0.0404
  10 C6        4.2560   -13.6090    -4.1160  C.ar    1  <O>11       0.0354
  11 N2        3.6290   -14.9040    -4.1600  N.pl3   1  <O>11      -0.2836
  12 C7        2.1930   -15.0090    -4.3420  C.ar    1  <O>11       0.2200
  13 N3        1.6462   -14.6028    -5.5141  N.ar    1  <O>11      -0.2226
  14 C8        0.3140   -14.7112    -5.6600  C.ar    1  <O>11       0.0332
  15 C9       -0.5152   -15.2089    -4.6893  C.ar    1  <O>11      -0.0174
  16 C10       0.1089   -15.5976    -3.5324  C.ar    1  <O>11       0.0760
  17 C11      -0.6681   -16.1271    -2.4591  C.ar    1  <O>11       0.0005
  18 C12      -0.9148   -17.5084    -2.3782  C.ar    1  <O>11      -0.0526
  19 C13      -1.6878   -18.0272    -1.3318  C.ar    1  <O>11      -0.0611
  20 C14      -2.2183   -17.1723    -0.3588  C.ar    1  <O>11      -0.0617
  21 C15      -1.9651   -15.7996    -0.4388  C.ar    1  <O>11      -0.0611
  22 C16      -1.1944   -15.2733    -1.4775  C.ar    1  <O>11      -0.0526
  23 N4        1.4374   -15.5113    -3.3383  N.ar    1  <O>11      -0.2142
  24 C17       3.4840   -12.4530    -4.2470  C.ar    1  <O>11      -0.0141
  25 H1        3.0048    -7.0623    -4.9718  H       1  <O>11       0.0405
  26 H2        1.8439    -7.9425    -5.9945  H       1  <O>11       0.0405
  27 H3        3.2419    -7.1264    -6.7347  H       1  <O>11       0.0405
  28 H4        3.5805    -9.4763    -6.5461  H       1  <O>11       0.1477
  29 H5        4.1930   -15.7480    -4.0630  H       1  <O>11       0.1550
  30 H6        5.9450   -10.1809    -3.9909  H       1  <O>11       0.0637
  31 H7        7.2763   -12.2027    -3.7627  H       1  <O>11       0.0619
  32 H8        6.2064   -14.3845    -3.8401  H       1  <O>11       0.0636
  33 H9       -0.1064   -14.4030    -6.5507  H       1  <O>11       0.0831
  34 H10      -1.5360   -15.2855    -4.8198  H       1  <O>11       0.0654
  35 H11      -0.5249   -18.1428    -3.0927  H       1  <O>11       0.0624
  36 H12      -1.8666   -19.0421    -1.2780  H       1  <O>11       0.0618
  37 H13      -2.7914   -17.5519     0.4109  H       1  <O>11       0.0618
  38 H14      -2.3527   -15.1673     0.2789  H       1  <O>11       0.0618
  39 H15      -1.0121   -14.2586    -1.5233  H       1  <O>11       0.0624
  40 H16       2.4616   -12.5198    -4.3706  H       1  <O>11       0.0656
@<TRIPOS>BOND
     1     1     2    1
     2     2     3    1
     3     3     4    2
     4     3     5    2
     5     3     6    1
     6     6     7   ar
     7     7     8   ar
     8     8     9   ar
     9     9    10   ar
    10    10    11    1
    11    11    12    1
    12    12    13   ar
    13    13    14   ar
    14    14    15   ar
    15    15    16   ar
    16    16    17    1
    17    17    18   ar
    18    18    19   ar
    19    19    20   ar
    20    20    21   ar
    21    21    22   ar
    22    17    22   ar
    23    16    23   ar
    24    12    23   ar
    25    10    24   ar
    26     6    24   ar
    27     1    25    1
    28     1    26    1
    29     1    27    1
    30     2    28    1
    31    11    29    1
    32     7    30    1
    33     8    31    1
    34     9    32    1
    35    14    33    1
    36    15    34    1
    37    18    35    1
    38    19    36    1
    39    20    37    1
    40    21    38    1
    41    22    39    1
    42    24    40    1
@<TRIPOS>MOLECULE
mol69_1_6
 40 42 0 0 0
SMALL
USER_CHARGES
****
VDW energy = -155.54
@<TRIPOS>ATOM
   1 C1        2.8936    -7.6802    -5.8629  C.3     1  <O>11       0.0059
   2 N1        3.6845    -8.8982    -5.7123  N.3     1  <O>11      -0.1930
   3 S1        3.1570    -9.7380    -4.3910  S.O2    1  <O>11       0.0582
   4 O1        3.3260    -8.7960    -3.0330  O.2     1  <O>11      -0.1531
   5 O2        1.5570   -10.1370    -4.5920  O.2     1  <O>11      -0.1531
   6 C2        4.1100   -11.2060    -4.2090  C.ar    1  <O>11       0.1070
   7 C3        5.4910   -11.1070    -4.0270  C.ar    1  <O>11      -0.0352
   8 C4        6.2550   -12.2710    -3.8940  C.ar    1  <O>11      -0.0582
   9 C5        5.6420   -13.5260    -3.9380  C.ar    1  <O>11      -0.0404
  10 C6        4.2560   -13.6090    -4.1160  C.ar    1  <O>11       0.0354
  11 N2        3.6290   -14.9040    -4.1600  N.pl3   1  <O>11      -0.2836
  12 C7        2.1930   -15.0090    -4.3420  C.ar    1  <O>11       0.2200
  13 N3        1.6462   -14.6028    -5.5141  N.ar    1  <O>11      -0.2226
  14 C8        0.3140   -14.7112    -5.6600  C.ar    1  <O>11       0.0332
  15 C9       -0.5152   -15.2089    -4.6893  C.ar    1  <O>11      -0.0174
  16 C10       0.1089   -15.5976    -3.5324  C.ar    1  <O>11       0.0760
  17 C11      -0.6681   -16.1271    -2.4591  C.ar    1  <O>11       0.0005
  18 C12      -1.1921   -15.2710    -1.4753  C.ar    1  <O>11      -0.0526
  19 C13      -1.9444   -15.7916    -0.4148  C.ar    1  <O>11      -0.0611
  20 C14      -2.1801   -17.1685    -0.3293  C.ar    1  <O>11      -0.0617
  21 C15      -1.6629   -18.0163    -1.3136  C.ar    1  <O>11      -0.0611
  22 C16      -0.9130   -17.5064    -2.3754  C.ar    1  <O>11      -0.0526
  23 N4        1.4374   -15.5113    -3.3383  N.ar    1  <O>11      -0.2142
  24 C17       3.4840   -12.4530    -4.2470  C.ar    1  <O>11      -0.0141
  25 H1        3.0048    -7.0623    -4.9718  H       1  <O>11       0.0405
  26 H2        1.8439    -7.9425    -5.9945  H       1  <O>11       0.0405
  27 H3        3.2419    -7.1264    -6.7347  H       1  <O>11       0.0405
  28 H4        3.5805    -9.4763    -6.5461  H       1  <O>11       0.1477
  29 H5        4.1930   -15.7480    -4.0630  H       1  <O>11       0.1550
  30 H6        5.9450   -10.1809    -3.9909  H       1  <O>11       0.0637
  31 H7        7.2763   -12.2027    -3.7627  H       1  <O>11       0.0619
  32 H8        6.2064   -14.3845    -3.8401  H       1  <O>11       0.0636
  33 H9       -0.1064   -14.4030    -6.5507  H       1  <O>11       0.0831
  34 H10      -1.5360   -15.2855    -4.8198  H       1  <O>11       0.0654
  35 H11      -1.0219   -14.2549    -1.5346  H       1  <O>11       0.0624
  36 H12      -2.3259   -15.1584     0.3054  H       1  <O>11       0.0618
  37 H13      -2.7308   -17.5547     0.4534  H       1  <O>11       0.0618
  38 H14      -1.8376   -19.0317    -1.2545  H       1  <O>11       0.0618
  39 H15      -0.5396   -18.1425    -3.0972  H       1  <O>11       0.0624
  40 H16       2.4616   -12.5198    -4.3706  H       1  <O>11       0.0656
@<TRIPOS>BOND
     1     1     2    1
     2     2     3    1
     3     3     4    2
     4     3     5    2
     5     3     6    1
     6     6     7   ar
     7     7     8   ar
     8     8     9   ar
     9     9    10   ar
    10    10    11    1
    11    11    12    1
    12    12    13   ar
    13    13    14   ar
    14    14    15   ar
    15    15    16   ar
    16    16    17    1
    17    17    18   ar
    18    18    19   ar
    19    19    20   ar
    20    20    21   ar
    21    21    22   ar
    22    17    22   ar
    23    16    23   ar
    24    12    23   ar
    25    10    24   ar
    26     6    24   ar
    27     1    25    1
    28     1    26    1
    29     1    27    1
    30     2    28    1
    31    11    29    1
    32     7    30    1
    33     8    31    1
    34     9    32    1
    35    14    33    1
    36    15    34    1
    37    18    35    1
    38    19    36    1
    39    20    37    1
    40    21    38    1
    41    22    39    1
    42    24    40    1
@<TRIPOS>MOLECULE
mol69_1_7
 40 42 0 0 0
SMALL
USER_CHARGES
****
VDW energy = -155.18
@<TRIPOS>ATOM
   1 C1        2.8936    -7.6802    -5.8629  C.3     1  <O>11       0.0059
   2 N1        3.6845    -8.8982    -5.7123  N.3     1  <O>11      -0.1930
   3 S1        3.1570    -9.7380    -4.3910  S.O2    1  <O>11       0.0582
   4 O1        3.3260    -8.7960    -3.0330  O.2     1  <O>11      -0.1531
   5 O2        1.5570   -10.1370    -4.5920  O.2     1  <O>11      -0.1531
   6 C2        4.1100   -11.2060    -4.2090  C.ar    1  <O>11       0.1070
   7 C3        4.3181   -11.7327    -2.9326  C.ar    1  <O>11      -0.0352
   8 C4        5.0850   -12.8926    -2.7809  C.ar    1  <O>11      -0.0582
   9 C5        5.6366   -13.5246    -3.8985  C.ar    1  <O>11      -0.0404
  10 C6        5.4151   -12.9875    -5.1721  C.ar    1  <O>11       0.0354
  11 N2        5.9848   -13.6425    -6.3203  N.pl3   1  <O>11      -0.2836
  12 C7        5.7640   -13.1007    -7.6485  C.ar    1  <O>11       0.2200
  13 N3        6.2903   -11.8915    -7.9625  N.ar    1  <O>11      -0.2226
  14 C8        6.0736   -11.4109    -9.1993  C.ar    1  <O>11       0.0332
  15 C9        5.3516   -12.0778   -10.1541  C.ar    1  <O>11      -0.0174
  16 C10       4.8501   -13.2922    -9.7636  C.ar    1  <O>11       0.0760
  17 C11       4.0812   -14.0638   -10.6853  C.ar    1  <O>11       0.0005
  18 C12       4.7132   -14.9898   -11.5329  C.ar    1  <O>11      -0.0526
  19 C13       3.9604   -15.7385   -12.4464  C.ar    1  <O>11      -0.0611
  20 C14       2.5730   -15.5696   -12.5195  C.ar    1  <O>11      -0.0617
  21 C15       1.9469   -14.6524   -11.6699  C.ar    1  <O>11      -0.0611
  22 C16       2.6888   -13.9026   -10.7549  C.ar    1  <O>11      -0.0526
  23 N4        5.0404   -13.8171    -8.5395  N.ar    1  <O>11      -0.2142
  24 C17       4.6487   -11.8317    -5.3344  C.ar    1  <O>11      -0.0141
  25 H1        3.0048    -7.0623    -4.9718  H       1  <O>11       0.0405
  26 H2        1.8439    -7.9425    -5.9945  H       1  <O>11       0.0405
  27 H3        3.2419    -7.1264    -6.7347  H       1  <O>11       0.0405
  28 H4        3.5805    -9.4763    -6.5461  H       1  <O>11       0.1477
  29 H5        6.5434   -14.4873    -6.2014  H       1  <O>11       0.1550
  30 H6        3.9087   -11.2692    -2.1064  H       1  <O>11       0.0637
  31 H7        5.2442   -13.2835    -1.8392  H       1  <O>11       0.0619
  32 H8        6.2027   -14.3802    -3.7858  H       1  <O>11       0.0636
  33 H9        6.4724   -10.4907    -9.4426  H       1  <O>11       0.0831
  34 H10       5.1966   -11.6933   -11.0992  H       1  <O>11       0.0654
  35 H11       5.7358   -15.1186   -11.4820  H       1  <O>11       0.0624
  36 H12       4.4299   -16.4162   -13.0672  H       1  <O>11       0.0618
  37 H13       2.0168   -16.1173   -13.1946  H       1  <O>11       0.0618
  38 H14       0.9237   -14.5279   -11.7198  H       1  <O>11       0.0618
  39 H15       2.2143   -13.2312   -10.1312  H       1  <O>11       0.0624
  40 H16       4.4824   -11.4442    -6.2764  H       1  <O>11       0.0656
@<TRIPOS>BOND
     1     1     2    1
     2     2     3    1
     3     3     4    2
     4     3     5    2
     5     3     6    1
     6     6     7   ar
     7     7     8   ar
     8     8     9   ar
     9     9    10   ar
    10    10    11    1
    11    11    12    1
    12    12    13   ar
    13    13    14   ar
    14    14    15   ar
    15    15    16   ar
    16    16    17    1
    17    17    18   ar
    18    18    19   ar
    19    19    20   ar
    20    20    21   ar
    21    21    22   ar
    22    17    22   ar
    23    16    23   ar
    24    12    23   ar
    25    10    24   ar
    26     6    24   ar
    27     1    25    1
    28     1    26    1
    29     1    27    1
    30     2    28    1
    31    11    29    1
    32     7    30    1
    33     8    31    1
    34     9    32    1
    35    14    33    1
    36    15    34    1
    37    18    35    1
    38    19    36    1
    39    20    37    1
    40    21    38    1
    41    22    39    1
    42    24    40    1
@<TRIPOS>MOLECULE
mol69_1_8
 40 42 0 0 0
SMALL
USER_CHARGES
****
VDW energy = -154.93
@<TRIPOS>ATOM
   1 C1        2.8936    -7.6802    -5.8629  C.3     1  <O>11       0.0059
   2 N1        3.6845    -8.8982    -5.7123  N.3     1  <O>11      -0.1930
   3 S1        3.1570    -9.7380    -4.3910  S.O2    1  <O>11       0.0582
   4 O1        3.3261    -8.7960    -3.0330  O.2     1  <O>11      -0.1531
   5 O2        1.5570   -10.1369    -4.5919  O.2     1  <O>11      -0.1531
   6 C2        4.1099   -11.2061    -4.2091  C.ar    1  <O>11       0.1070
   7 C3        5.4909   -11.1072    -4.0271  C.ar    1  <O>11      -0.0352
   8 C4        6.2549   -12.2712    -3.8942  C.ar    1  <O>11      -0.0582
   9 C5        5.6418   -13.5262    -3.9382  C.ar    1  <O>11      -0.0404
  10 C6        4.2558   -13.6091    -4.1161  C.ar    1  <O>11       0.0354
  11 N2        3.6287   -14.9040    -4.1601  N.pl3   1  <O>11      -0.2836
  12 C7        2.1927   -15.0089    -4.3421  C.ar    1  <O>11       0.2200
  13 N3        1.3897   -15.0232    -3.2499  N.ar    1  <O>11      -0.2226
  14 C8        0.0627   -15.1196    -3.4436  C.ar    1  <O>11       0.0332
  15 C9       -0.5167   -15.2035    -4.6824  C.ar    1  <O>11      -0.0174
  16 C10       0.3578   -15.1845    -5.7378  C.ar    1  <O>11       0.0760
  17 C11      -0.1469   -15.2699    -7.0698  C.ar    1  <O>11       0.0005
  18 C12       0.0974   -14.2332    -7.9868  C.ar    1  <O>11      -0.0526
  19 C13      -0.4082   -14.3107    -9.2906  C.ar    1  <O>11      -0.0611
  20 C14      -1.1592   -15.4227    -9.6886  C.ar    1  <O>11      -0.0617
  21 C15      -1.3944   -16.4552    -8.7755  C.ar    1  <O>11      -0.0611
  22 C16      -0.8931   -16.3875    -7.4739  C.ar    1  <O>11      -0.0526
  23 N4        1.6923   -15.0877    -5.5967  N.ar    1  <O>11      -0.2142
  24 C17       3.4838   -12.4530    -4.2471  C.ar    1  <O>11      -0.0141
  25 H1        3.0048    -7.0623    -4.9718  H       1  <O>11       0.0405
  26 H2        1.8439    -7.9425    -5.9945  H       1  <O>11       0.0405
  27 H3        3.2419    -7.1264    -6.7347  H       1  <O>11       0.0405
  28 H4        3.5805    -9.4763    -6.5461  H       1  <O>11       0.1477
  29 H5        4.1926   -15.7481    -4.0632  H       1  <O>11       0.1550
  30 H6        5.9450   -10.1811    -3.9910  H       1  <O>11       0.0637
  31 H7        7.2762   -12.2030    -3.7629  H       1  <O>11       0.0619
  32 H8        6.2061   -14.3847    -3.8403  H       1  <O>11       0.0636
  33 H9       -0.5523   -15.1309    -2.6149  H       1  <O>11       0.0831
  34 H10      -1.5381   -15.2759    -4.8116  H       1  <O>11       0.0654
  35 H11       0.6515   -13.4117    -7.6984  H       1  <O>11       0.0624
  36 H12      -0.2267   -13.5461    -9.9595  H       1  <O>11       0.0618
  37 H13      -1.5361   -15.4801   -10.6476  H       1  <O>11       0.0618
  38 H14      -1.9454   -17.2775    -9.0672  H       1  <O>11       0.0618
  39 H15      -1.0711   -17.1578    -6.8107  H       1  <O>11       0.0624
  40 H16       2.4614   -12.5198    -4.3706  H       1  <O>11       0.0656
@<TRIPOS>BOND
     1     1     2    1
     2     2     3    1
     3     3     4    2
     4     3     5    2
     5     3     6    1
     6     6     7   ar
     7     7     8   ar
     8     8     9   ar
     9     9    10   ar
    10    10    11    1
    11    11    12    1
    12    12    13   ar
    13    13    14   ar
    14    14    15   ar
    15    15    16   ar
    16    16    17    1
    17    17    18   ar
    18    18    19   ar
    19    19    20   ar
    20    20    21   ar
    21    21    22   ar
    22    17    22   ar
    23    16    23   ar
    24    12    23   ar
    25    10    24   ar
    26     6    24   ar
    27     1    25    1
    28     1    26    1
    29     1    27    1
    30     2    28    1
    31    11    29    1
    32     7    30    1
    33     8    31    1
    34     9    32    1
    35    14    33    1
    36    15    34    1
    37    18    35    1
    38    19    36    1
    39    20    37    1
    40    21    38    1
    41    22    39    1
    42    24    40    1
@<TRIPOS>MOLECULE
mol69_1_9
 40 42 0 0 0
SMALL
USER_CHARGES
****
VDW energy = -154.55
@<TRIPOS>ATOM
   1 C1        2.8936    -7.6802    -5.8629  C.3     1  <O>11       0.0059
   2 N1        3.6845    -8.8982    -5.7123  N.3     1  <O>11      -0.1930
   3 S1        3.1570    -9.7380    -4.3910  S.O2    1  <O>11       0.0582
   4 O1        3.3260    -8.7960    -3.0330  O.2     1  <O>11      -0.1531
   5 O2        1.5570   -10.1370    -4.5920  O.2     1  <O>11      -0.1531
   6 C2        4.1100   -11.2060    -4.2090  C.ar    1  <O>11       0.1070
   7 C3        4.6430   -11.8208    -5.3439  C.ar    1  <O>11      -0.0352
   8 C4        5.3910   -12.9946    -5.2062  C.ar    1  <O>11      -0.0582
   9 C5        5.6089   -13.5479    -3.9417  C.ar    1  <O>11      -0.0404
  10 C6        5.0724   -12.9174    -2.8129  C.ar    1  <O>11       0.0354
  11 N2        5.3002   -13.4909    -1.5124  N.pl3   1  <O>11      -0.2836
  12 C7        4.7531   -12.8497    -0.3309  C.ar    1  <O>11       0.2200
  13 N3        3.4076   -12.7971    -0.1733  N.ar    1  <O>11      -0.2226
  14 C8        2.9244   -12.1995     0.9299  C.ar    1  <O>11       0.0332
  15 C9        3.7185   -11.6437     1.8984  C.ar    1  <O>11      -0.0174
  16 C10       5.0670   -11.7339     1.6697  C.ar    1  <O>11       0.0760
  17 C11       5.9788   -11.1825     2.6187  C.ar    1  <O>11       0.0005
  18 C12       6.4594   -11.9703     3.6788  C.ar    1  <O>11      -0.0526
  19 C13       7.3447   -11.4259     4.6176  C.ar    1  <O>11      -0.0611
  20 C14       7.7575   -10.0933     4.5045  C.ar    1  <O>11      -0.0617
  21 C15       7.2826    -9.3147     3.4447  C.ar    1  <O>11      -0.0611
  22 C16       6.4008    -9.8491     2.5030  C.ar    1  <O>11      -0.0526
  23 N4        5.5997   -12.3229     0.5837  N.ar    1  <O>11      -0.2142
  24 C17       4.3266   -11.7439    -2.9393  C.ar    1  <O>11      -0.0141
  25 H1        3.0048    -7.0623    -4.9718  H       1  <O>11       0.0405
  26 H2        1.8439    -7.9425    -5.9945  H       1  <O>11       0.0405
  27 H3        3.2419    -7.1264    -6.7347  H       1  <O>11       0.0405
  28 H4        3.5805    -9.4763    -6.5461  H       1  <O>11       0.1477
  29 H5        5.8460   -14.3473    -1.4203  H       1  <O>11       0.1550
  30 H6        4.4859   -11.4117    -6.2783  H       1  <O>11       0.0637
  31 H7        5.7839   -13.4542    -6.0425  H       1  <O>11       0.0619
  32 H8        6.1607   -14.4143    -3.8409  H       1  <O>11       0.0636
  33 H9        1.9007   -12.1572     1.0538  H       1  <O>11       0.0831
  34 H10       3.3293   -11.1898     2.7396  H       1  <O>11       0.0654
  35 H11       6.1587   -12.9536     3.7657  H       1  <O>11       0.0624
  36 H12       7.6935   -12.0086     5.3946  H       1  <O>11       0.0618
  37 H13       8.4067    -9.6889     5.1974  H       1  <O>11       0.0618
  38 H14       7.5875    -8.3327     3.3574  H       1  <O>11       0.0618
  39 H15       6.0603    -9.2648     1.7236  H       1  <O>11       0.0624
  40 H16       3.9397   -11.2791    -2.1030  H       1  <O>11       0.0656
@<TRIPOS>BOND
     1     1     2    1
     2     2     3    1
     3     3     4    2
     4     3     5    2
     5     3     6    1
     6     6     7   ar
     7     7     8   ar
     8     8     9   ar
     9     9    10   ar
    10    10    11    1
    11    11    12    1
    12    12    13   ar
    13    13    14   ar
    14    14    15   ar
    15    15    16   ar
    16    16    17    1
    17    17    18   ar
    18    18    19   ar
    19    19    20   ar
    20    20    21   ar
    21    21    22   ar
    22    17    22   ar
    23    16    23   ar
    24    12    23   ar
    25    10    24   ar
    26     6    24   ar
    27     1    25    1
    28     1    26    1
    29     1    27    1
    30     2    28    1
    31    11    29    1
    32     7    30    1
    33     8    31    1
    34     9    32    1
    35    14    33    1
    36    15    34    1
    37    18    35    1
    38    19    36    1
    39    20    37    1
    40    21    38    1
    41    22    39    1
    42    24    40    1
@<TRIPOS>MOLECULE
mol69_1_10
 40 42 0 0 0
SMALL
USER_CHARGES
****
VDW energy = -151.61
@<TRIPOS>ATOM
   1 C1        2.8936    -7.6802    -5.8629  C.3     1  <O>11       0.0059
   2 N1        3.6845    -8.8982    -5.7123  N.3     1  <O>11      -0.1930
   3 S1        3.1570    -9.7380    -4.3910  S.O2    1  <O>11       0.0582
   4 O1        4.0577   -11.1235    -4.2202  O.2     1  <O>11      -0.1531
   5 O2        3.3274    -8.7964    -3.0331  O.2     1  <O>11      -0.1531
   6 C2        1.4624   -10.1623    -4.6026  C.ar    1  <O>11       0.1070
   7 C3        1.0861   -10.9550    -5.6889  C.ar    1  <O>11      -0.0352
   8 C4       -0.2611   -11.2851    -5.8688  C.ar    1  <O>11      -0.0582
   9 C5       -1.2256   -10.8296    -4.9660  C.ar    1  <O>11      -0.0404
  10 C6       -0.8323   -10.0400    -3.8790  C.ar    1  <O>11       0.0354
  11 N2       -1.8294    -9.5738    -2.9514  N.pl3   1  <O>11      -0.2836
  12 C7       -1.4396    -8.7557    -1.8178  C.ar    1  <O>11       0.2200
  13 N3       -1.1118    -9.3615    -0.6501  N.ar    1  <O>11      -0.2226
  14 C8       -0.7525    -8.5830     0.3855  C.ar    1  <O>11       0.0332
  15 C9       -0.7008    -7.2152     0.3213  C.ar    1  <O>11      -0.0174
  16 C10      -1.0469    -6.6748    -0.8899  C.ar    1  <O>11       0.0760
  17 C11      -1.0278    -5.2579    -1.0580  C.ar    1  <O>11       0.0005
  18 C12       0.1411    -4.6132    -1.4977  C.ar    1  <O>11      -0.0526
  19 C13       0.1642    -3.2212    -1.6510  C.ar    1  <O>11      -0.0611
  20 C14      -0.9783    -2.4637    -1.3682  C.ar    1  <O>11      -0.0617
  21 C15      -2.1412    -3.1093    -0.9374  C.ar    1  <O>11      -0.0611
  22 C16      -2.1743    -4.4967    -0.7831  C.ar    1  <O>11      -0.0526
  23 N4       -1.4114    -7.4101    -1.9560  N.ar    1  <O>11      -0.2142
  24 C17       0.5103    -9.7072    -3.6890  C.ar    1  <O>11      -0.0141
  25 H1        3.0048    -7.0623    -4.9718  H       1  <O>11       0.0405
  26 H2        1.8439    -7.9425    -5.9945  H       1  <O>11       0.0405
  27 H3        3.2419    -7.1264    -6.7347  H       1  <O>11       0.0405
  28 H4        3.5805    -9.4763    -6.5461  H       1  <O>11       0.1477
  29 H5       -2.8097    -9.8182    -3.0898  H       1  <O>11       0.1550
  30 H6        1.7975   -11.2950    -6.3548  H       1  <O>11       0.0637
  31 H7       -0.5442   -11.8678    -6.6720  H       1  <O>11       0.0619
  32 H8       -2.2195   -11.0734    -5.0995  H       1  <O>11       0.0636
  33 H9       -0.5023    -9.0400     1.2764  H       1  <O>11       0.0831
  34 H10      -0.4215    -6.6339     1.1270  H       1  <O>11       0.0654
  35 H11       0.9856    -5.1676    -1.7085  H       1  <O>11       0.0624
  36 H12       1.0255    -2.7529    -1.9732  H       1  <O>11       0.0618
  37 H13      -0.9623    -1.4375    -1.4767  H       1  <O>11       0.0618
  38 H14      -2.9858    -2.5534    -0.7309  H       1  <O>11       0.0618
  39 H15      -3.0400    -4.9614    -0.4676  H       1  <O>11       0.0624
  40 H16       0.7956    -9.1309    -2.8818  H       1  <O>11       0.0656
@<TRIPOS>BOND
     1     1     2    1
     2     2     3    1
     3     3     4    2
     4     3     5    2
     5     3     6    1
     6     6     7   ar
     7     7     8   ar
     8     8     9   ar
     9     9    10   ar
    10    10    11    1
    11    11    12    1
    12    12    13   ar
    13    13    14   ar
    14    14    15   ar
    15    15    16   ar
    16    16    17    1
    17    17    18   ar
    18    18    19   ar
    19    19    20   ar
    20    20    21   ar
    21    21    22   ar
    22    17    22   ar
    23    16    23   ar
    24    12    23   ar
    25    10    24   ar
    26     6    24   ar
    27     1    25    1
    28     1    26    1
    29     1    27    1
    30     2    28    1
    31    11    29    1
    32     7    30    1
    33     8    31    1
    34     9    32    1
    35    14    33    1
    36    15    34    1
    37    18    35    1
    38    19    36    1
    39    20    37    1
    40    21    38    1
    41    22    39    1
    42    24    40    1
@<TRIPOS>MOLECULE
mol69_1_11
 40 42 0 0 0
SMALL
USER_CHARGES
****
VDW energy = -150.64
@<TRIPOS>ATOM
   1 C1        2.8936    -7.6802    -5.8629  C.3     1  <O>11       0.0059
   2 N1        3.6845    -8.8982    -5.7123  N.3     1  <O>11      -0.1930
   3 S1        3.1570    -9.7380    -4.3910  S.O2    1  <O>11       0.0582
   4 O1        4.0577   -11.1235    -4.2202  O.2     1  <O>11      -0.1531
   5 O2        3.3274    -8.7964    -3.0331  O.2     1  <O>11      -0.1531
   6 C2        1.4624   -10.1623    -4.6026  C.ar    1  <O>11       0.1070
   7 C3        1.0861   -10.9550    -5.6889  C.ar    1  <O>11      -0.0352
   8 C4       -0.2611   -11.2851    -5.8688  C.ar    1  <O>11      -0.0582
   9 C5       -1.2256   -10.8296    -4.9660  C.ar    1  <O>11      -0.0404
  10 C6       -0.8323   -10.0400    -3.8790  C.ar    1  <O>11       0.0354
  11 N2       -1.8294    -9.5738    -2.9514  N.pl3   1  <O>11      -0.2836
  12 C7       -1.4396    -8.7557    -1.8178  C.ar    1  <O>11       0.2200
  13 N3       -0.9365    -7.5169    -2.0415  N.ar    1  <O>11      -0.2226
  14 C8       -0.5839    -6.7771    -0.9757  C.ar    1  <O>11       0.0332
  15 C9       -0.7064    -7.2091     0.3189  C.ar    1  <O>11      -0.0174
  16 C10      -1.2209    -8.4711     0.4663  C.ar    1  <O>11       0.0760
  17 C11      -1.3854    -9.0140     1.7756  C.ar    1  <O>11       0.0005
  18 C12      -2.5882    -8.8195     2.4763  C.ar    1  <O>11      -0.0526
  19 C13      -2.7457    -9.3415     3.7663  C.ar    1  <O>11      -0.0611
  20 C14      -1.7057   -10.0618     4.3651  C.ar    1  <O>11      -0.0617
  21 C15      -0.5132   -10.2590     3.6624  C.ar    1  <O>11      -0.0611
  22 C16      -0.3474    -9.7436     2.3752  C.ar    1  <O>11      -0.0526
  23 N4       -1.5901    -9.2495    -0.5671  N.ar    1  <O>11      -0.2142
  24 C17       0.5103    -9.7072    -3.6890  C.ar    1  <O>11      -0.0141
  25 H1        3.0048    -7.0623    -4.9718  H       1  <O>11       0.0405
  26 H2        1.8439    -7.9425    -5.9945  H       1  <O>11       0.0405
  27 H3        3.2419    -7.1264    -6.7347  H       1  <O>11       0.0405
  28 H4        3.5805    -9.4763    -6.5461  H       1  <O>11       0.1477
  29 H5       -2.8097    -9.8182    -3.0898  H       1  <O>11       0.1550
  30 H6        1.7975   -11.2950    -6.3548  H       1  <O>11       0.0637
  31 H7       -0.5442   -11.8678    -6.6720  H       1  <O>11       0.0619
  32 H8       -2.2195   -11.0734    -5.0995  H       1  <O>11       0.0636
  33 H9       -0.2004    -5.8334    -1.1415  H       1  <O>11       0.0831
  34 H10      -0.4312    -6.6263     1.1249  H       1  <O>11       0.0654
  35 H11      -3.3582    -8.2900     2.0385  H       1  <O>11       0.0624
  36 H12      -3.6306    -9.1948     4.2766  H       1  <O>11       0.0618
  37 H13      -1.8181   -10.4440     5.3172  H       1  <O>11       0.0618
  38 H14       0.2542   -10.7921     4.1005  H       1  <O>11       0.0618
  39 H15       0.5365    -9.8990     1.8659  H       1  <O>11       0.0624
  40 H16       0.7956    -9.1309    -2.8818  H       1  <O>11       0.0656
@<TRIPOS>BOND
     1     1     2    1
     2     2     3    1
     3     3     4    2
     4     3     5    2
     5     3     6    1
     6     6     7   ar
     7     7     8   ar
     8     8     9   ar
     9     9    10   ar
    10    10    11    1
    11    11    12    1
    12    12    13   ar
    13    13    14   ar
    14    14    15   ar
    15    15    16   ar
    16    16    17    1
    17    17    18   ar
    18    18    19   ar
    19    19    20   ar
    20    20    21   ar
    21    21    22   ar
    22    17    22   ar
    23    16    23   ar
    24    12    23   ar
    25    10    24   ar
    26     6    24   ar
    27     1    25    1
    28     1    26    1
    29     1    27    1
    30     2    28    1
    31    11    29    1
    32     7    30    1
    33     8    31    1
    34     9    32    1
    35    14    33    1
    36    15    34    1
    37    18    35    1
    38    19    36    1
    39    20    37    1
    40    21    38    1
    41    22    39    1
    42    24    40    1
@<TRIPOS>MOLECULE
mol69_1_12
 40 42 0 0 0
SMALL
USER_CHARGES
****
VDW energy = -150.09
@<TRIPOS>ATOM
   1 C1        2.8936    -7.6802    -5.8629  C.3     1  <O>11       0.0059
   2 N1        3.6845    -8.8982    -5.7123  N.3     1  <O>11      -0.1930
   3 S1        3.1570    -9.7380    -4.3910  S.O2    1  <O>11       0.0582
   4 O1        4.0577   -11.1235    -4.2202  O.2     1  <O>11      -0.1531
   5 O2        3.3274    -8.7964    -3.0331  O.2     1  <O>11      -0.1531
   6 C2        1.4624   -10.1623    -4.6026  C.ar    1  <O>11       0.1070
   7 C3        1.0861   -10.9550    -5.6889  C.ar    1  <O>11      -0.0352
   8 C4       -0.2611   -11.2851    -5.8688  C.ar    1  <O>11      -0.0582
   9 C5       -1.2256   -10.8296    -4.9660  C.ar    1  <O>11      -0.0404
  10 C6       -0.8323   -10.0400    -3.8790  C.ar    1  <O>11       0.0354
  11 N2       -1.8294    -9.5738    -2.9514  N.pl3   1  <O>11      -0.2836
  12 C7       -1.4396    -8.7557    -1.8178  C.ar    1  <O>11       0.2200
  13 N3       -1.1118    -9.3615    -0.6501  N.ar    1  <O>11      -0.2226
  14 C8       -0.7525    -8.5830     0.3855  C.ar    1  <O>11       0.0332
  15 C9       -0.7008    -7.2152     0.3213  C.ar    1  <O>11      -0.0174
  16 C10      -1.0469    -6.6748    -0.8899  C.ar    1  <O>11       0.0760
  17 C11      -1.0278    -5.2579    -1.0580  C.ar    1  <O>11       0.0005
  18 C12      -0.1946    -4.6713    -2.0260  C.ar    1  <O>11      -0.0526
  19 C13      -0.1662    -3.2798    -2.1830  C.ar    1  <O>11      -0.0611
  20 C14      -0.9693    -2.4648    -1.3769  C.ar    1  <O>11      -0.0617
  21 C15      -1.8019    -3.0525    -0.4196  C.ar    1  <O>11      -0.0611
  22 C16      -1.8381    -4.4388    -0.2568  C.ar    1  <O>11      -0.0526
  23 N4       -1.4114    -7.4101    -1.9560  N.ar    1  <O>11      -0.2142
  24 C17       0.5103    -9.7072    -3.6890  C.ar    1  <O>11      -0.0141
  25 H1        3.0048    -7.0623    -4.9718  H       1  <O>11       0.0405
  26 H2        1.8439    -7.9425    -5.9945  H       1  <O>11       0.0405
  27 H3        3.2419    -7.1264    -6.7347  H       1  <O>11       0.0405
  28 H4        3.5805    -9.4763    -6.5461  H       1  <O>11       0.1477
  29 H5       -2.8097    -9.8182    -3.0898  H       1  <O>11       0.1550
  30 H6        1.7975   -11.2950    -6.3548  H       1  <O>11       0.0637
  31 H7       -0.5442   -11.8678    -6.6720  H       1  <O>11       0.0619
  32 H8       -2.2195   -11.0734    -5.0995  H       1  <O>11       0.0636
  33 H9       -0.5023    -9.0400     1.2764  H       1  <O>11       0.0831
  34 H10      -0.4215    -6.6339     1.1270  H       1  <O>11       0.0654
  35 H11       0.3985    -5.2682    -2.6234  H       1  <O>11       0.0624
  36 H12       0.4483    -2.8545    -2.8946  H       1  <O>11       0.0618
  37 H13      -0.9470    -1.4391    -1.4881  H       1  <O>11       0.0618
  38 H14      -2.3972    -2.4540     0.1741  H       1  <O>11       0.0618
  39 H15      -2.4595    -4.8602     0.4512  H       1  <O>11       0.0624
  40 H16       0.7956    -9.1309    -2.8818  H       1  <O>11       0.0656
@<TRIPOS>BOND
     1     1     2    1
     2     2     3    1
     3     3     4    2
     4     3     5    2
     5     3     6    1
     6     6     7   ar
     7     7     8   ar
     8     8     9   ar
     9     9    10   ar
    10    10    11    1
    11    11    12    1
    12    12    13   ar
    13    13    14   ar
    14    14    15   ar
    15    15    16   ar
    16    16    17    1
    17    17    18   ar
    18    18    19   ar
    19    19    20   ar
    20    20    21   ar
    21    21    22   ar
    22    17    22   ar
    23    16    23   ar
    24    12    23   ar
    25    10    24   ar
    26     6    24   ar
    27     1    25    1
    28     1    26    1
    29     1    27    1
    30     2    28    1
    31    11    29    1
    32     7    30    1
    33     8    31    1
    34     9    32    1
    35    14    33    1
    36    15    34    1
    37    18    35    1
    38    19    36    1
    39    20    37    1
    40    21    38    1
    41    22    39    1
    42    24    40    1
@<TRIPOS>MOLECULE
mol69_1_13
 40 42 0 0 0
SMALL
USER_CHARGES
****
VDW energy = -149.98
@<TRIPOS>ATOM
   1 C1        2.8936    -7.6802    -5.8629  C.3     1  <O>11       0.0059
   2 N1        3.6845    -8.8982    -5.7123  N.3     1  <O>11      -0.1930
   3 S1        3.1570    -9.7380    -4.3910  S.O2    1  <O>11       0.0582
   4 O1        4.0577   -11.1235    -4.2202  O.2     1  <O>11      -0.1531
   5 O2        3.3274    -8.7964    -3.0331  O.2     1  <O>11      -0.1531
   6 C2        1.4624   -10.1623    -4.6026  C.ar    1  <O>11       0.1070
   7 C3        1.0861   -10.9550    -5.6889  C.ar    1  <O>11      -0.0352
   8 C4       -0.2611   -11.2851    -5.8688  C.ar    1  <O>11      -0.0582
   9 C5       -1.2256   -10.8296    -4.9660  C.ar    1  <O>11      -0.0404
  10 C6       -0.8323   -10.0400    -3.8790  C.ar    1  <O>11       0.0354
  11 N2       -1.8294    -9.5738    -2.9514  N.pl3   1  <O>11      -0.2836
  12 C7       -1.4396    -8.7557    -1.8178  C.ar    1  <O>11       0.2200
  13 N3       -1.4136    -7.4074    -1.9565  N.ar    1  <O>11      -0.2226
  14 C8       -1.0508    -6.6705    -0.8921  C.ar    1  <O>11       0.0332
  15 C9       -0.7078    -7.2099     0.3199  C.ar    1  <O>11      -0.0174
  16 C10      -0.7562    -8.5783     0.3838  C.ar    1  <O>11       0.0760
  17 C11      -0.4140    -9.2370     1.6025  C.ar    1  <O>11       0.0005
  18 C12      -1.3556   -10.0510     2.2555  C.ar    1  <O>11      -0.0526
  19 C13      -1.0244   -10.6878     3.4581  C.ar    1  <O>11      -0.0611
  20 C14       0.2478   -10.5182     4.0164  C.ar    1  <O>11      -0.0617
  21 C15       1.1840    -9.7132     3.3604  C.ar    1  <O>11      -0.0611
  22 C16       0.8635    -9.0754     2.1603  C.ar    1  <O>11      -0.0526
  23 N4       -1.1143    -9.3594    -0.6514  N.ar    1  <O>11      -0.2142
  24 C17       0.5103    -9.7072    -3.6890  C.ar    1  <O>11      -0.0141
  25 H1        3.0048    -7.0623    -4.9718  H       1  <O>11       0.0405
  26 H2        1.8439    -7.9425    -5.9945  H       1  <O>11       0.0405
  27 H3        3.2419    -7.1264    -6.7347  H       1  <O>11       0.0405
  28 H4        3.5805    -9.4763    -6.5461  H       1  <O>11       0.1477
  29 H5       -2.8097    -9.8182    -3.0898  H       1  <O>11       0.1550
  30 H6        1.7975   -11.2950    -6.3548  H       1  <O>11       0.0637
  31 H7       -0.5442   -11.8678    -6.6720  H       1  <O>11       0.0619
  32 H8       -2.2195   -11.0734    -5.0995  H       1  <O>11       0.0636
  33 H9       -1.0295    -5.6437    -0.9933  H       1  <O>11       0.0831
  34 H10      -0.4328    -6.6278     1.1265  H       1  <O>11       0.0654
  35 H11      -2.2946   -10.1799     1.8472  H       1  <O>11       0.0624
  36 H12      -1.7200   -11.2835     3.9339  H       1  <O>11       0.0618
  37 H13       0.4927   -10.9834     4.9045  H       1  <O>11       0.0618
  38 H14       2.1237    -9.5887     3.7684  H       1  <O>11       0.0618
  39 H15       1.5647    -8.4865     1.6844  H       1  <O>11       0.0624
  40 H16       0.7956    -9.1309    -2.8818  H       1  <O>11       0.0656
@<TRIPOS>BOND
     1     1     2    1
     2     2     3    1
     3     3     4    2
     4     3     5    2
     5     3     6    1
     6     6     7   ar
     7     7     8   ar
     8     8     9   ar
     9     9    10   ar
    10    10    11    1
    11    11    12    1
    12    12    13   ar
    13    13    14   ar
    14    14    15   ar
    15    15    16   ar
    16    16    17    1
    17    17    18   ar
    18    18    19   ar
    19    19    20   ar
    20    20    21   ar
    21    21    22   ar
    22    17    22   ar
    23    16    23   ar
    24    12    23   ar
    25    10    24   ar
    26     6    24   ar
    27     1    25    1
    28     1    26    1
    29     1    27    1
    30     2    28    1
    31    11    29    1
    32     7    30    1
    33     8    31    1
    34     9    32    1
    35    14    33    1
    36    15    34    1
    37    18    35    1
    38    19    36    1
    39    20    37    1
    40    21    38    1
    41    22    39    1
    42    24    40    1
@<TRIPOS>MOLECULE
mol69_1_14
 40 42 0 0 0
SMALL
USER_CHARGES
****
VDW energy = -145.20
@<TRIPOS>ATOM
   1 C1        2.8936    -7.6802    -5.8629  C.3     1  <O>11       0.0059
   2 N1        3.6845    -8.8982    -5.7123  N.3     1  <O>11      -0.1930
   3 S1        3.1570    -9.7380    -4.3910  S.O2    1  <O>11       0.0582
   4 O1        3.3260    -8.7960    -3.0330  O.2     1  <O>11      -0.1531
   5 O2        1.5570   -10.1370    -4.5920  O.2     1  <O>11      -0.1531
   6 C2        4.1100   -11.2060    -4.2090  C.ar    1  <O>11       0.1070
   7 C3        5.4910   -11.1070    -4.0270  C.ar    1  <O>11      -0.0352
   8 C4        6.2550   -12.2710    -3.8940  C.ar    1  <O>11      -0.0582
   9 C5        5.6420   -13.5260    -3.9380  C.ar    1  <O>11      -0.0404
  10 C6        4.2560   -13.6090    -4.1160  C.ar    1  <O>11       0.0354
  11 N2        3.6290   -14.9040    -4.1600  N.pl3   1  <O>11      -0.2836
  12 C7        3.6241   -15.7482    -2.9795  C.ar    1  <O>11       0.2200
  13 N3        2.9298   -15.3476    -1.8862  N.ar    1  <O>11      -0.2226
  14 C8        2.9387   -16.1469    -0.8052  C.ar    1  <O>11       0.0332
  15 C9        3.6104   -17.3401    -0.7523  C.ar    1  <O>11      -0.0174
  16 C10       4.2901   -17.6777    -1.8938  C.ar    1  <O>11       0.0760
  17 C11       5.0239   -18.9007    -1.9385  C.ar    1  <O>11       0.0005
  18 C12       5.0510   -19.7510    -0.8198  C.ar    1  <O>11      -0.0526
  19 C13       5.7812   -20.9456    -0.8588  C.ar    1  <O>11      -0.0611
  20 C14       6.4877   -21.3003    -2.0138  C.ar    1  <O>11      -0.0617
  21 C15       6.4529   -20.4551    -3.1271  C.ar    1  <O>11      -0.0611
  22 C16       5.7264   -19.2629    -3.0981  C.ar    1  <O>11      -0.0526
  23 N4        4.3106   -16.9139    -3.0011  N.ar    1  <O>11      -0.2142
  24 C17       3.4840   -12.4530    -4.2470  C.ar    1  <O>11      -0.0141
  25 H1        3.0048    -7.0623    -4.9718  H       1  <O>11       0.0405
  26 H2        1.8439    -7.9425    -5.9945  H       1  <O>11       0.0405
  27 H3        3.2419    -7.1264    -6.7347  H       1  <O>11       0.0405
  28 H4        3.5805    -9.4763    -6.5461  H       1  <O>11       0.1477
  29 H5        3.1884   -15.2291    -5.0203  H       1  <O>11       0.1550
  30 H6        5.9450   -10.1809    -3.9909  H       1  <O>11       0.0637
  31 H7        7.2763   -12.2027    -3.7627  H       1  <O>11       0.0619
  32 H8        6.2064   -14.3845    -3.8401  H       1  <O>11       0.0636
  33 H9        2.4116   -15.8458     0.0294  H       1  <O>11       0.0831
  34 H10       3.6049   -17.9413     0.0865  H       1  <O>11       0.0654
  35 H11       4.5308   -19.4943     0.0337  H       1  <O>11       0.0624
  36 H12       5.7984   -21.5656    -0.0340  H       1  <O>11       0.0618
  37 H13       7.0296   -22.1781    -2.0434  H       1  <O>11       0.0618
  38 H14       6.9706   -20.7157    -3.9809  H       1  <O>11       0.0618
  39 H15       5.7062   -18.6495    -3.9277  H       1  <O>11       0.0624
  40 H16       2.4616   -12.5198    -4.3706  H       1  <O>11       0.0656
@<TRIPOS>BOND
     1     1     2    1
     2     2     3    1
     3     3     4    2
     4     3     5    2
     5     3     6    1
     6     6     7   ar
     7     7     8   ar
     8     8     9   ar
     9     9    10   ar
    10    10    11    1
    11    11    12    1
    12    12    13   ar
    13    13    14   ar
    14    14    15   ar
    15    15    16   ar
    16    16    17    1
    17    17    18   ar
    18    18    19   ar
    19    19    20   ar
    20    20    21   ar
    21    21    22   ar
    22    17    22   ar
    23    16    23   ar
    24    12    23   ar
    25    10    24   ar
    26     6    24   ar
    27     1    25    1
    28     1    26    1
    29     1    27    1
    30     2    28    1
    31    11    29    1
    32     7    30    1
    33     8    31    1
    34     9    32    1
    35    14    33    1
    36    15    34    1
    37    18    35    1
    38    19    36    1
    39    20    37    1
    40    21    38    1
    41    22    39    1
    42    24    40    1
@<TRIPOS>MOLECULE
mol69_1_15
 40 42 0 0 0
SMALL
USER_CHARGES
****
VDW energy = -143.74
@<TRIPOS>ATOM
   1 C1        2.8936    -7.6802    -5.8629  C.3     1  <O>11       0.0059
   2 N1        3.6845    -8.8982    -5.7123  N.3     1  <O>11      -0.1930
   3 S1        3.1570    -9.7380    -4.3910  S.O2    1  <O>11       0.0582
   4 O1        3.3260    -8.7960    -3.0330  O.2     1  <O>11      -0.1531
   5 O2        1.5570   -10.1370    -4.5920  O.2     1  <O>11      -0.1531
   6 C2        4.1100   -11.2060    -4.2090  C.ar    1  <O>11       0.1070
   7 C3        5.4910   -11.1070    -4.0270  C.ar    1  <O>11      -0.0352
   8 C4        6.2550   -12.2710    -3.8940  C.ar    1  <O>11      -0.0582
   9 C5        5.6420   -13.5260    -3.9380  C.ar    1  <O>11      -0.0404
  10 C6        4.2560   -13.6090    -4.1160  C.ar    1  <O>11       0.0354
  11 N2        3.6290   -14.9040    -4.1600  N.pl3   1  <O>11      -0.2836
  12 C7        2.1930   -15.0090    -4.3420  C.ar    1  <O>11       0.2200
  13 N3        1.6926   -15.0900    -5.5994  N.ar    1  <O>11      -0.2226
  14 C8        0.3594   -15.1881    -5.7428  C.ar    1  <O>11       0.0332
  15 C9       -0.5152   -15.2104    -4.6882  C.ar    1  <O>11      -0.0174
  16 C10       0.0635   -15.1231    -3.4487  C.ar    1  <O>11       0.0760
  17 C11      -0.7627   -15.1350    -2.2854  C.ar    1  <O>11       0.0005
  18 C12      -2.1592   -15.2333    -2.4102  C.ar    1  <O>11      -0.0526
  19 C13      -2.9714   -15.2326    -1.2692  C.ar    1  <O>11      -0.0611
  20 C14      -2.3965   -15.1353     0.0031  C.ar    1  <O>11      -0.0617
  21 C15      -1.0064   -15.0446     0.1236  C.ar    1  <O>11      -0.0611
  22 C16      -0.1884   -15.0460    -1.0080  C.ar    1  <O>11      -0.0526
  23 N4        1.3910   -15.0254    -3.2525  N.ar    1  <O>11      -0.2142
  24 C17       3.4840   -12.4530    -4.2470  C.ar    1  <O>11      -0.0141
  25 H1        3.0048    -7.0623    -4.9718  H       1  <O>11       0.0405
  26 H2        1.8439    -7.9425    -5.9945  H       1  <O>11       0.0405
  27 H3        3.2419    -7.1264    -6.7347  H       1  <O>11       0.0405
  28 H4        3.5805    -9.4763    -6.5461  H       1  <O>11       0.1477
  29 H5        4.1930   -15.7480    -4.0630  H       1  <O>11       0.1550
  30 H6        5.9450   -10.1809    -3.9909  H       1  <O>11       0.0637
  31 H7        7.2763   -12.2027    -3.7627  H       1  <O>11       0.0619
  32 H8        6.2064   -14.3845    -3.8401  H       1  <O>11       0.0636
  33 H9       -0.0258   -15.2499    -6.6982  H       1  <O>11       0.0831
  34 H10      -1.5361   -15.2873    -4.8178  H       1  <O>11       0.0654
  35 H11      -2.5877   -15.3062    -3.3462  H       1  <O>11       0.0624
  36 H12      -3.9963   -15.3038    -1.3668  H       1  <O>11       0.0618
  37 H13      -2.9933   -15.1307     0.8450  H       1  <O>11       0.0618
  38 H14      -0.5797   -14.9757     1.0607  H       1  <O>11       0.0618
  39 H15       0.8365   -14.9818    -0.9053  H       1  <O>11       0.0624
  40 H16       2.4616   -12.5198    -4.3706  H       1  <O>11       0.0656
@<TRIPOS>BOND
     1     1     2    1
     2     2     3    1
     3     3     4    2
     4     3     5    2
     5     3     6    1
     6     6     7   ar
     7     7     8   ar
     8     8     9   ar
     9     9    10   ar
    10    10    11    1
    11    11    12    1
    12    12    13   ar
    13    13    14   ar
    14    14    15   ar
    15    15    16   ar
    16    16    17    1
    17    17    18   ar
    18    18    19   ar
    19    19    20   ar
    20    20    21   ar
    21    21    22   ar
    22    17    22   ar
    23    16    23   ar
    24    12    23   ar
    25    10    24   ar
    26     6    24   ar
    27     1    25    1
    28     1    26    1
    29     1    27    1
    30     2    28    1
    31    11    29    1
    32     7    30    1
    33     8    31    1
    34     9    32    1
    35    14    33    1
    36    15    34    1
    37    18    35    1
    38    19    36    1
    39    20    37    1
    40    21    38    1
    41    22    39    1
    42    24    40    1
@<TRIPOS>MOLECULE
mol69_1_16
 40 42 0 0 0
SMALL
USER_CHARGES
****
VDW energy = -142.70
@<TRIPOS>ATOM
   1 C1        2.8936    -7.6802    -5.8629  C.3     1  <O>11       0.0059
   2 N1        3.6845    -8.8982    -5.7123  N.3     1  <O>11      -0.1930
   3 S1        3.1570    -9.7380    -4.3910  S.O2    1  <O>11       0.0582
   4 O1        3.3260    -8.7960    -3.0330  O.2     1  <O>11      -0.1531
   5 O2        1.5570   -10.1370    -4.5920  O.2     1  <O>11      -0.1531
   6 C2        4.1100   -11.2060    -4.2090  C.ar    1  <O>11       0.1070
   7 C3        5.4910   -11.1070    -4.0270  C.ar    1  <O>11      -0.0352
   8 C4        6.2550   -12.2710    -3.8940  C.ar    1  <O>11      -0.0582
   9 C5        5.6420   -13.5260    -3.9380  C.ar    1  <O>11      -0.0404
  10 C6        4.2560   -13.6090    -4.1160  C.ar    1  <O>11       0.0354
  11 N2        3.6290   -14.9040    -4.1600  N.pl3   1  <O>11      -0.2836
  12 C7        2.1930   -15.0090    -4.3420  C.ar    1  <O>11       0.2200
  13 N3        1.6462   -14.6028    -5.5141  N.ar    1  <O>11      -0.2226
  14 C8        0.3140   -14.7112    -5.6600  C.ar    1  <O>11       0.0332
  15 C9       -0.5152   -15.2089    -4.6893  C.ar    1  <O>11      -0.0174
  16 C10       0.1089   -15.5976    -3.5324  C.ar    1  <O>11       0.0760
  17 C11      -0.6681   -16.1271    -2.4591  C.ar    1  <O>11       0.0005
  18 C12      -2.0627   -16.2468    -2.5868  C.ar    1  <O>11      -0.0526
  19 C13      -2.8272   -16.7549    -1.5290  C.ar    1  <O>11      -0.0611
  20 C14      -2.2060   -17.1480    -0.3380  C.ar    1  <O>11      -0.0617
  21 C15      -0.8178   -17.0338    -0.2171  C.ar    1  <O>11      -0.0611
  22 C16      -0.0471   -16.5298    -1.2668  C.ar    1  <O>11      -0.0526
  23 N4        1.4374   -15.5113    -3.3383  N.ar    1  <O>11      -0.2142
  24 C17       3.4840   -12.4530    -4.2470  C.ar    1  <O>11      -0.0141
  25 H1        3.0048    -7.0623    -4.9718  H       1  <O>11       0.0405
  26 H2        1.8439    -7.9425    -5.9945  H       1  <O>11       0.0405
  27 H3        3.2419    -7.1264    -6.7347  H       1  <O>11       0.0405
  28 H4        3.5805    -9.4763    -6.5461  H       1  <O>11       0.1477
  29 H5        4.1930   -15.7480    -4.0630  H       1  <O>11       0.1550
  30 H6        5.9450   -10.1809    -3.9909  H       1  <O>11       0.0637
  31 H7        7.2763   -12.2027    -3.7627  H       1  <O>11       0.0619
  32 H8        6.2064   -14.3845    -3.8401  H       1  <O>11       0.0636
  33 H9       -0.1064   -14.4030    -6.5507  H       1  <O>11       0.0831
  34 H10      -1.5360   -15.2855    -4.8198  H       1  <O>11       0.0654
  35 H11      -2.5251   -15.9592    -3.4634  H       1  <O>11       0.0624
  36 H12      -3.8510   -16.8395    -1.6279  H       1  <O>11       0.0618
  37 H13      -2.7679   -17.5190     0.4442  H       1  <O>11       0.0618
  38 H14      -0.3570   -17.3256     0.6589  H       1  <O>11       0.0618
  39 H15       0.9771   -16.4537    -1.1661  H       1  <O>11       0.0624
  40 H16       2.4616   -12.5198    -4.3706  H       1  <O>11       0.0656
@<TRIPOS>BOND
     1     1     2    1
     2     2     3    1
     3     3     4    2
     4     3     5    2
     5     3     6    1
     6     6     7   ar
     7     7     8   ar
     8     8     9   ar
     9     9    10   ar
    10    10    11    1
    11    11    12    1
    12    12    13   ar
    13    13    14   ar
    14    14    15   ar
    15    15    16   ar
    16    16    17    1
    17    17    18   ar
    18    18    19   ar
    19    19    20   ar
    20    20    21   ar
    21    21    22   ar
    22    17    22   ar
    23    16    23   ar
    24    12    23   ar
    25    10    24   ar
    26     6    24   ar
    27     1    25    1
    28     1    26    1
    29     1    27    1
    30     2    28    1
    31    11    29    1
    32     7    30    1
    33     8    31    1
    34     9    32    1
    35    14    33    1
    36    15    34    1
    37    18    35    1
    38    19    36    1
    39    20    37    1
    40    21    38    1
    41    22    39    1
    42    24    40    1
@<TRIPOS>MOLECULE
mol69_1_17
 40 42 0 0 0
SMALL
USER_CHARGES
****
VDW energy = -142.27
@<TRIPOS>ATOM
   1 C1        2.8936    -7.6802    -5.8629  C.3     1  <O>11       0.0059
   2 N1        3.6845    -8.8982    -5.7123  N.3     1  <O>11      -0.1930
   3 S1        3.1570    -9.7380    -4.3910  S.O2    1  <O>11       0.0582
   4 O1        3.3260    -8.7960    -3.0330  O.2     1  <O>11      -0.1531
   5 O2        1.5570   -10.1370    -4.5920  O.2     1  <O>11      -0.1531
   6 C2        4.1100   -11.2060    -4.2090  C.ar    1  <O>11       0.1070
   7 C3        4.3181   -11.7327    -2.9326  C.ar    1  <O>11      -0.0352
   8 C4        5.0850   -12.8926    -2.7809  C.ar    1  <O>11      -0.0582
   9 C5        5.6366   -13.5246    -3.8985  C.ar    1  <O>11      -0.0404
  10 C6        5.4151   -12.9875    -5.1721  C.ar    1  <O>11       0.0354
  11 N2        5.9848   -13.6425    -6.3203  N.pl3   1  <O>11      -0.2836
  12 C7        5.7640   -13.1007    -7.6485  C.ar    1  <O>11       0.2200
  13 N3        6.2903   -11.8915    -7.9625  N.ar    1  <O>11      -0.2226
  14 C8        6.0736   -11.4109    -9.1993  C.ar    1  <O>11       0.0332
  15 C9        5.3516   -12.0778   -10.1541  C.ar    1  <O>11      -0.0174
  16 C10       4.8501   -13.2922    -9.7636  C.ar    1  <O>11       0.0760
  17 C11       4.0812   -14.0638   -10.6853  C.ar    1  <O>11       0.0005
  18 C12       3.8384   -13.5808   -11.9826  C.ar    1  <O>11      -0.0526
  19 C13       3.0733   -14.3321   -12.8837  C.ar    1  <O>11      -0.0611
  20 C14       2.5469   -15.5700   -12.4973  C.ar    1  <O>11      -0.0617
  21 C15       2.7962   -16.0503   -11.2081  C.ar    1  <O>11      -0.0611
  22 C16       3.5590   -15.3092   -10.3034  C.ar    1  <O>11      -0.0526
  23 N4        5.0404   -13.8171    -8.5395  N.ar    1  <O>11      -0.2142
  24 C17       4.6487   -11.8317    -5.3344  C.ar    1  <O>11      -0.0141
  25 H1        3.0048    -7.0623    -4.9718  H       1  <O>11       0.0405
  26 H2        1.8439    -7.9425    -5.9945  H       1  <O>11       0.0405
  27 H3        3.2419    -7.1264    -6.7347  H       1  <O>11       0.0405
  28 H4        3.5805    -9.4763    -6.5461  H       1  <O>11       0.1477
  29 H5        6.5434   -14.4873    -6.2014  H       1  <O>11       0.1550
  30 H6        3.9087   -11.2692    -2.1064  H       1  <O>11       0.0637
  31 H7        5.2442   -13.2835    -1.8392  H       1  <O>11       0.0619
  32 H8        6.2027   -14.3802    -3.7858  H       1  <O>11       0.0636
  33 H9        6.4724   -10.4907    -9.4426  H       1  <O>11       0.0831
  34 H10       5.1966   -11.6933   -11.0992  H       1  <O>11       0.0654
  35 H11       4.2253   -12.6691   -12.2724  H       1  <O>11       0.0624
  36 H12       2.8973   -13.9721   -13.8347  H       1  <O>11       0.0618
  37 H13       1.9795   -16.1235   -13.1583  H       1  <O>11       0.0618
  38 H14       2.4115   -16.9641   -10.9216  H       1  <O>11       0.0618
  39 H15       3.7385   -15.6764    -9.3558  H       1  <O>11       0.0624
  40 H16       4.4824   -11.4442    -6.2764  H       1  <O>11       0.0656
@<TRIPOS>BOND
     1     1     2    1
     2     2     3    1
     3     3     4    2
     4     3     5    2
     5     3     6    1
     6     6     7   ar
     7     7     8   ar
     8     8     9   ar
     9     9    10   ar
    10    10    11    1
    11    11    12    1
    12    12    13   ar
    13    13    14   ar
    14    14    15   ar
    15    15    16   ar
    16    16    17    1
    17    17    18   ar
    18    18    19   ar
    19    19    20   ar
    20    20    21   ar
    21    21    22   ar
    22    17    22   ar
    23    16    23   ar
    24    12    23   ar
    25    10    24   ar
    26     6    24   ar
    27     1    25    1
    28     1    26    1
    29     1    27    1
    30     2    28    1
    31    11    29    1
    32     7    30    1
    33     8    31    1
    34     9    32    1
    35    14    33    1
    36    15    34    1
    37    18    35    1
    38    19    36    1
    39    20    37    1
    40    21    38    1
    41    22    39    1
    42    24    40    1
@<TRIPOS>MOLECULE
mol69_1_18
 40 42 0 0 0
SMALL
USER_CHARGES
****
VDW energy = -142.09
@<TRIPOS>ATOM
   1 C1        2.8936    -7.6802    -5.8629  C.3     1  <O>11       0.0059
   2 N1        3.6845    -8.8982    -5.7123  N.3     1  <O>11      -0.1930
   3 S1        3.1570    -9.7380    -4.3910  S.O2    1  <O>11       0.0582
   4 O1        3.3260    -8.7960    -3.0330  O.2     1  <O>11      -0.1531
   5 O2        1.5570   -10.1370    -4.5920  O.2     1  <O>11      -0.1531
   6 C2        4.1100   -11.2060    -4.2090  C.ar    1  <O>11       0.1070
   7 C3        5.4910   -11.1070    -4.0270  C.ar    1  <O>11      -0.0352
   8 C4        6.2550   -12.2710    -3.8940  C.ar    1  <O>11      -0.0582
   9 C5        5.6420   -13.5260    -3.9380  C.ar    1  <O>11      -0.0404
  10 C6        4.2560   -13.6090    -4.1160  C.ar    1  <O>11       0.0354
  11 N2        3.6290   -14.9040    -4.1600  N.pl3   1  <O>11      -0.2836
  12 C7        2.1930   -15.0090    -4.3420  C.ar    1  <O>11       0.2200
  13 N3        1.3701   -14.5420    -3.3711  N.ar    1  <O>11      -0.2226
  14 C8        0.0437   -14.6488    -3.5628  C.ar    1  <O>11       0.0332
  15 C9       -0.5163   -15.2028    -4.6840  C.ar    1  <O>11      -0.0174
  16 C10       0.3776   -15.6538    -5.6203  C.ar    1  <O>11       0.0760
  17 C11      -0.1060   -16.2503    -6.8230  C.ar    1  <O>11       0.0005
  18 C12      -1.4883   -16.3762    -7.0443  C.ar    1  <O>11      -0.0526
  19 C13      -1.9634   -16.9728    -8.2191  C.ar    1  <O>11      -0.0611
  20 C14      -1.0635   -17.4462    -9.1808  C.ar    1  <O>11      -0.0617
  21 C15       0.3107   -17.3131    -8.9602  C.ar    1  <O>11      -0.0611
  22 C16       0.7938   -16.7184    -7.7928  C.ar    1  <O>11      -0.0526
  23 N4        1.7125   -15.5683    -5.4765  N.ar    1  <O>11      -0.2142
  24 C17       3.4840   -12.4530    -4.2470  C.ar    1  <O>11      -0.0141
  25 H1        3.0048    -7.0623    -4.9718  H       1  <O>11       0.0405
  26 H2        1.8439    -7.9425    -5.9945  H       1  <O>11       0.0405
  27 H3        3.2419    -7.1264    -6.7347  H       1  <O>11       0.0405
  28 H4        3.5805    -9.4763    -6.5461  H       1  <O>11       0.1477
  29 H5        4.1930   -15.7480    -4.0630  H       1  <O>11       0.1550
  30 H6        5.9450   -10.1809    -3.9909  H       1  <O>11       0.0637
  31 H7        7.2763   -12.2027    -3.7627  H       1  <O>11       0.0619
  32 H8        6.2064   -14.3845    -3.8401  H       1  <O>11       0.0636
  33 H9       -0.5864   -14.2946    -2.8262  H       1  <O>11       0.0831
  34 H10      -1.5375   -15.2754    -4.8142  H       1  <O>11       0.0654
  35 H11      -2.1557   -16.0277    -6.3386  H       1  <O>11       0.0624
  36 H12      -2.9793   -17.0635    -8.3759  H       1  <O>11       0.0618
  37 H13      -1.4113   -17.8897   -10.0454  H       1  <O>11       0.0618
  38 H14       0.9764   -17.6588    -9.6690  H       1  <O>11       0.0618
  39 H15       1.8105   -16.6232    -7.6435  H       1  <O>11       0.0624
  40 H16       2.4616   -12.5198    -4.3706  H       1  <O>11       0.0656
@<TRIPOS>BOND
     1     1     2    1
     2     2     3    1
     3     3     4    2
     4     3     5    2
     5     3     6    1
     6     6     7   ar
     7     7     8   ar
     8     8     9   ar
     9     9    10   ar
    10    10    11    1
    11    11    12    1
    12    12    13   ar
    13    13    14   ar
    14    14    15   ar
    15    15    16   ar
    16    16    17    1
    17    17    18   ar
    18    18    19   ar
    19    19    20   ar
    20    20    21   ar
    21    21    22   ar
    22    17    22   ar
    23    16    23   ar
    24    12    23   ar
    25    10    24   ar
    26     6    24   ar
    27     1    25    1
    28     1    26    1
    29     1    27    1
    30     2    28    1
    31    11    29    1
    32     7    30    1
    33     8    31    1
    34     9    32    1
    35    14    33    1
    36    15    34    1
    37    18    35    1
    38    19    36    1
    39    20    37    1
    40    21    38    1
    41    22    39    1
    42    24    40    1
@<TRIPOS>MOLECULE
mol69_1_19
 40 42 0 0 0
SMALL
USER_CHARGES
****
VDW energy = -141.49
@<TRIPOS>ATOM
   1 C1        2.8936    -7.6802    -5.8629  C.3     1  <O>11       0.0059
   2 N1        3.6845    -8.8982    -5.7123  N.3     1  <O>11      -0.1930
   3 S1        3.1570    -9.7380    -4.3910  S.O2    1  <O>11       0.0582
   4 O1        1.5572   -10.1382    -4.5923  O.2     1  <O>11      -0.1531
   5 O2        4.0569   -11.1240    -4.2213  O.2     1  <O>11      -0.1531
   6 C2        3.3359    -8.7416    -2.9517  C.ar    1  <O>11       0.1070
   7 C3        2.6624    -7.5206    -2.8768  C.ar    1  <O>11      -0.0352
   8 C4        2.8106    -6.7190    -1.7403  C.ar    1  <O>11      -0.0582
   9 C5        3.6233    -7.1371    -0.6832  C.ar    1  <O>11      -0.0404
  10 C6        4.2881    -8.3660    -0.7708  C.ar    1  <O>11       0.0354
  11 N2        5.1237    -8.7927     0.3209  N.pl3   1  <O>11      -0.2836
  12 C7        5.8190   -10.0645     0.2482  C.ar    1  <O>11       0.2200
  13 N3        5.0954   -11.2109     0.2333  N.ar    1  <O>11      -0.2226
  14 C8        5.7616   -12.3767     0.1640  C.ar    1  <O>11       0.0332
  15 C9        7.1278   -12.4649     0.1079  C.ar    1  <O>11      -0.0174
  16 C10       7.7910   -11.2655     0.1285  C.ar    1  <O>11       0.0760
  17 C11       9.2169   -11.2504     0.0769  C.ar    1  <O>11       0.0005
  18 C12       9.8797   -11.1982    -1.1614  C.ar    1  <O>11      -0.0526
  19 C13      11.2793   -11.1959    -1.2131  C.ar    1  <O>11      -0.0611
  20 C14      12.0267   -11.2441    -0.0308  C.ar    1  <O>11      -0.0617
  21 C15      11.3638   -11.2891     1.1995  C.ar    1  <O>11      -0.0611
  22 C16       9.9688   -11.2903     1.2612  C.ar    1  <O>11      -0.0526
  23 N4        7.1709   -10.0734     0.1951  N.ar    1  <O>11      -0.2142
  24 C17       4.1446    -9.1748    -1.8997  C.ar    1  <O>11      -0.0141
  25 H1        3.0048    -7.0623    -4.9718  H       1  <O>11       0.0405
  26 H2        1.8439    -7.9425    -5.9945  H       1  <O>11       0.0405
  27 H3        3.2419    -7.1264    -6.7347  H       1  <O>11       0.0405
  28 H4        3.5805    -9.4763    -6.5461  H       1  <O>11       0.1477
  29 H5        5.2272    -8.2023     1.1459  H       1  <O>11       0.1550
  30 H6        2.0591    -7.2117    -3.6551  H       1  <O>11       0.0637
  31 H7        2.3174    -5.8144    -1.6821  H       1  <O>11       0.0619
  32 H8        3.7325    -6.5450     0.1550  H       1  <O>11       0.0636
  33 H9        5.2147   -13.2518     0.1525  H       1  <O>11       0.0831
  34 H10       7.6219   -13.3694     0.0539  H       1  <O>11       0.0654
  35 H11       9.3330   -11.1615    -2.0359  H       1  <O>11       0.0624
  36 H12      11.7607   -11.1586    -2.1252  H       1  <O>11       0.0618
  37 H13      13.0581   -11.2464    -0.0667  H       1  <O>11       0.0618
  38 H14      11.9125   -11.3218     2.0729  H       1  <O>11       0.0618
  39 H15       9.4917   -11.3204     2.1757  H       1  <O>11       0.0624
  40 H16       4.6311   -10.0832    -1.9558  H       1  <O>11       0.0656
@<TRIPOS>BOND
     1     1     2    1
     2     2     3    1
     3     3     4    2
     4     3     5    2
     5     3     6    1
     6     6     7   ar
     7     7     8   ar
     8     8     9   ar
     9     9    10   ar
    10    10    11    1
    11    11    12    1
    12    12    13   ar
    13    13    14   ar
    14    14    15   ar
    15    15    16   ar
    16    16    17    1
    17    17    18   ar
    18    18    19   ar
    19    19    20   ar
    20    20    21   ar
    21    21    22   ar
    22    17    22   ar
    23    16    23   ar
    24    12    23   ar
    25    10    24   ar
    26     6    24   ar
    27     1    25    1
    28     1    26    1
    29     1    27    1
    30     2    28    1
    31    11    29    1
    32     7    30    1
    33     8    31    1
    34     9    32    1
    35    14    33    1
    36    15    34    1
    37    18    35    1
    38    19    36    1
    39    20    37    1
    40    21    38    1
    41    22    39    1
    42    24    40    1
@<TRIPOS>MOLECULE
mol69_1_20
 40 42 0 0 0
SMALL
USER_CHARGES
****
VDW energy = -141.45
@<TRIPOS>ATOM
   1 C1        2.8936    -7.6802    -5.8629  C.3     1  <O>11       0.0059
   2 N1        3.6845    -8.8982    -5.7123  N.3     1  <O>11      -0.1930
   3 S1        3.1570    -9.7380    -4.3910  S.O2    1  <O>11       0.0582
   4 O1        3.3260    -8.7960    -3.0330  O.2     1  <O>11      -0.1531
   5 O2        1.5570   -10.1370    -4.5920  O.2     1  <O>11      -0.1531
   6 C2        4.1100   -11.2060    -4.2090  C.ar    1  <O>11       0.1070
   7 C3        4.6430   -11.8208    -5.3439  C.ar    1  <O>11      -0.0352
   8 C4        5.3910   -12.9946    -5.2062  C.ar    1  <O>11      -0.0582
   9 C5        5.6089   -13.5479    -3.9417  C.ar    1  <O>11      -0.0404
  10 C6        5.0724   -12.9174    -2.8129  C.ar    1  <O>11       0.0354
  11 N2        5.3002   -13.4909    -1.5124  N.pl3   1  <O>11      -0.2836
  12 C7        4.7531   -12.8497    -0.3309  C.ar    1  <O>11       0.2200
  13 N3        5.2133   -11.6258     0.0271  N.ar    1  <O>11      -0.2226
  14 C8        4.6904   -11.0511     1.1244  C.ar    1  <O>11       0.0332
  15 C9        3.7208   -11.6365     1.8956  C.ar    1  <O>11      -0.0174
  16 C10       3.3067   -12.8729     1.4727  C.ar    1  <O>11       0.0760
  17 C11       2.3017   -13.5673     2.2103  C.ar    1  <O>11       0.0005
  18 C12       1.7427   -12.9884     3.3626  C.ar    1  <O>11      -0.0526
  19 C13       0.7652   -13.6749     4.0939  C.ar    1  <O>11      -0.0611
  20 C14       0.3380   -14.9419     3.6802  C.ar    1  <O>11      -0.0617
  21 C15       0.8916   -15.5116     2.5296  C.ar    1  <O>11      -0.0611
  22 C16       1.8656   -14.8342     1.7931  C.ar    1  <O>11      -0.0526
  23 N4        3.7969   -13.4889     0.3816  N.ar    1  <O>11      -0.2142
  24 C17       4.3266   -11.7439    -2.9393  C.ar    1  <O>11      -0.0141
  25 H1        3.0048    -7.0623    -4.9718  H       1  <O>11       0.0405
  26 H2        1.8439    -7.9425    -5.9945  H       1  <O>11       0.0405
  27 H3        3.2419    -7.1264    -6.7347  H       1  <O>11       0.0405
  28 H4        3.5805    -9.4763    -6.5461  H       1  <O>11       0.1477
  29 H5        5.8460   -14.3473    -1.4203  H       1  <O>11       0.1550
  30 H6        4.4859   -11.4117    -6.2783  H       1  <O>11       0.0637
  31 H7        5.7839   -13.4542    -6.0425  H       1  <O>11       0.0619
  32 H8        6.1607   -14.4143    -3.8409  H       1  <O>11       0.0636
  33 H9        5.0378   -10.1195     1.4005  H       1  <O>11       0.0831
  34 H10       3.3304   -11.1794     2.7344  H       1  <O>11       0.0654
  35 H11       2.0537   -12.0540     3.6710  H       1  <O>11       0.0624
  36 H12       0.3589   -13.2455     4.9399  H       1  <O>11       0.0618
  37 H13      -0.3793   -15.4512     4.2198  H       1  <O>11       0.0618
  38 H14       0.5763   -16.4444     2.2207  H       1  <O>11       0.0618
  39 H15       2.2638   -15.2643     0.9438  H       1  <O>11       0.0624
  40 H16       3.9397   -11.2791    -2.1030  H       1  <O>11       0.0656
@<TRIPOS>BOND
     1     1     2    1
     2     2     3    1
     3     3     4    2
     4     3     5    2
     5     3     6    1
     6     6     7   ar
     7     7     8   ar
     8     8     9   ar
     9     9    10   ar
    10    10    11    1
    11    11    12    1
    12    12    13   ar
    13    13    14   ar
    14    14    15   ar
    15    15    16   ar
    16    16    17    1
    17    17    18   ar
    18    18    19   ar
    19    19    20   ar
    20    20    21   ar
    21    21    22   ar
    22    17    22   ar
    23    16    23   ar
    24    12    23   ar
    25    10    24   ar
    26     6    24   ar
    27     1    25    1
    28     1    26    1
    29     1    27    1
    30     2    28    1
    31    11    29    1
    32     7    30    1
    33     8    31    1
    34     9    32    1
    35    14    33    1
    36    15    34    1
    37    18    35    1
    38    19    36    1
    39    20    37    1
    40    21    38    1
    41    22    39    1
    42    24    40    1
@<TRIPOS>MOLECULE
mol69_1_21
 40 42 0 0 0
SMALL
USER_CHARGES
****
VDW energy = -139.90
@<TRIPOS>ATOM
   1 C1        2.8936    -7.6802    -5.8629  C.3     1  <O>11       0.0059
   2 N1        3.6845    -8.8982    -5.7123  N.3     1  <O>11      -0.1930
   3 S1        3.1570    -9.7380    -4.3910  S.O2    1  <O>11       0.0582
   4 O1        4.0577   -11.1235    -4.2202  O.2     1  <O>11      -0.1531
   5 O2        3.3274    -8.7964    -3.0331  O.2     1  <O>11      -0.1531
   6 C2        1.4624   -10.1623    -4.6026  C.ar    1  <O>11       0.1070
   7 C3        1.0861   -10.9550    -5.6889  C.ar    1  <O>11      -0.0352
   8 C4       -0.2611   -11.2851    -5.8688  C.ar    1  <O>11      -0.0582
   9 C5       -1.2256   -10.8296    -4.9660  C.ar    1  <O>11      -0.0404
  10 C6       -0.8323   -10.0400    -3.8790  C.ar    1  <O>11       0.0354
  11 N2       -1.8294    -9.5738    -2.9514  N.pl3   1  <O>11      -0.2836
  12 C7       -2.1706   -10.3744    -1.7899  C.ar    1  <O>11       0.2200
  13 N3       -1.2358   -10.5713    -0.8280  N.ar    1  <O>11      -0.2226
  14 C8       -1.5755   -11.3151     0.2392  C.ar    1  <O>11       0.0332
  15 C9       -2.8124   -11.8815     0.4036  C.ar    1  <O>11      -0.0174
  16 C10      -3.7036   -11.6402    -0.6095  C.ar    1  <O>11       0.0760
  17 C11      -5.0186   -12.1889    -0.5337  C.ar    1  <O>11       0.0005
  18 C12      -5.3958   -12.9726     0.5703  C.ar    1  <O>11      -0.0526
  19 C13      -6.6824   -13.5217     0.6393  C.ar    1  <O>11      -0.0611
  20 C14      -7.6012   -13.2918    -0.3912  C.ar    1  <O>11      -0.0617
  21 C15      -7.2245   -12.5061    -1.4847  C.ar    1  <O>11      -0.0611
  22 C16      -5.9445   -11.9532    -1.5616  C.ar    1  <O>11      -0.0526
  23 N4       -3.4130   -10.9018    -1.6960  N.ar    1  <O>11      -0.2142
  24 C17       0.5103    -9.7072    -3.6890  C.ar    1  <O>11      -0.0141
  25 H1        3.0048    -7.0623    -4.9718  H       1  <O>11       0.0405
  26 H2        1.8439    -7.9425    -5.9945  H       1  <O>11       0.0405
  27 H3        3.2419    -7.1264    -6.7347  H       1  <O>11       0.0405
  28 H4        3.5805    -9.4763    -6.5461  H       1  <O>11       0.1477
  29 H5       -2.2967    -8.6814    -3.1097  H       1  <O>11       0.1550
  30 H6        1.7975   -11.2950    -6.3548  H       1  <O>11       0.0637
  31 H7       -0.5442   -11.8678    -6.6720  H       1  <O>11       0.0619
  32 H8       -2.2195   -11.0734    -5.0995  H       1  <O>11       0.0636
  33 H9       -0.8669   -11.4677     0.9738  H       1  <O>11       0.0831
  34 H10      -3.0554   -12.4489     1.2307  H       1  <O>11       0.0654
  35 H11      -4.7222   -13.1440     1.3331  H       1  <O>11       0.0624
  36 H12      -6.9536   -14.0972     1.4519  H       1  <O>11       0.0618
  37 H13      -8.5484   -13.6987    -0.3443  H       1  <O>11       0.0618
  38 H14      -7.9009   -12.3327    -2.2445  H       1  <O>11       0.0618
  39 H15      -5.6801   -11.3724    -2.3725  H       1  <O>11       0.0624
  40 H16       0.7956    -9.1309    -2.8818  H       1  <O>11       0.0656
@<TRIPOS>BOND
     1     1     2    1
     2     2     3    1
     3     3     4    2
     4     3     5    2
     5     3     6    1
     6     6     7   ar
     7     7     8   ar
     8     8     9   ar
     9     9    10   ar
    10    10    11    1
    11    11    12    1
    12    12    13   ar
    13    13    14   ar
    14    14    15   ar
    15    15    16   ar
    16    16    17    1
    17    17    18   ar
    18    18    19   ar
    19    19    20   ar
    20    20    21   ar
    21    21    22   ar
    22    17    22   ar
    23    16    23   ar
    24    12    23   ar
    25    10    24   ar
    26     6    24   ar
    27     1    25    1
    28     1    26    1
    29     1    27    1
    30     2    28    1
    31    11    29    1
    32     7    30    1
    33     8    31    1
    34     9    32    1
    35    14    33    1
    36    15    34    1
    37    18    35    1
    38    19    36    1
    39    20    37    1
    40    21    38    1
    41    22    39    1
    42    24    40    1
@<TRIPOS>MOLECULE
mol69_1_22
 40 42 0 0 0
SMALL
USER_CHARGES
****
VDW energy = -137.80
@<TRIPOS>ATOM
   1 C1        2.8936    -7.6802    -5.8629  C.3     1  <O>11       0.0059
   2 N1        3.6845    -8.8982    -5.7123  N.3     1  <O>11      -0.1930
   3 S1        3.1570    -9.7380    -4.3910  S.O2    1  <O>11       0.0582
   4 O1        4.0577   -11.1235    -4.2202  O.2     1  <O>11      -0.1531
   5 O2        3.3274    -8.7964    -3.0331  O.2     1  <O>11      -0.1531
   6 C2        1.4624   -10.1623    -4.6026  C.ar    1  <O>11       0.1070
   7 C3        1.0861   -10.9550    -5.6889  C.ar    1  <O>11      -0.0352
   8 C4       -0.2611   -11.2851    -5.8688  C.ar    1  <O>11      -0.0582
   9 C5       -1.2256   -10.8296    -4.9660  C.ar    1  <O>11      -0.0404
  10 C6       -0.8323   -10.0400    -3.8790  C.ar    1  <O>11       0.0354
  11 N2       -1.8294    -9.5738    -2.9514  N.pl3   1  <O>11      -0.2836
  12 C7       -1.4396    -8.7557    -1.8178  C.ar    1  <O>11       0.2200
  13 N3       -0.9365    -7.5169    -2.0415  N.ar    1  <O>11      -0.2226
  14 C8       -0.5839    -6.7771    -0.9757  C.ar    1  <O>11       0.0332
  15 C9       -0.7064    -7.2091     0.3189  C.ar    1  <O>11      -0.0174
  16 C10      -1.2209    -8.4711     0.4663  C.ar    1  <O>11       0.0760
  17 C11      -1.3854    -9.0140     1.7756  C.ar    1  <O>11       0.0005
  18 C12      -1.0207    -8.2609     2.9049  C.ar    1  <O>11      -0.0526
  19 C13      -1.1704    -8.7980     4.1897  C.ar    1  <O>11      -0.0611
  20 C14      -1.6860   -10.0885     4.3566  C.ar    1  <O>11      -0.0617
  21 C15      -2.0541   -10.8320     3.2311  C.ar    1  <O>11      -0.0611
  22 C16      -1.9099   -10.3044     1.9463  C.ar    1  <O>11      -0.0526
  23 N4       -1.5901    -9.2495    -0.5671  N.ar    1  <O>11      -0.2142
  24 C17       0.5103    -9.7072    -3.6890  C.ar    1  <O>11      -0.0141
  25 H1        3.0048    -7.0623    -4.9718  H       1  <O>11       0.0405
  26 H2        1.8439    -7.9425    -5.9945  H       1  <O>11       0.0405
  27 H3        3.2419    -7.1264    -6.7347  H       1  <O>11       0.0405
  28 H4        3.5805    -9.4763    -6.5461  H       1  <O>11       0.1477
  29 H5       -2.8097    -9.8182    -3.0898  H       1  <O>11       0.1550
  30 H6        1.7975   -11.2950    -6.3548  H       1  <O>11       0.0637
  31 H7       -0.5442   -11.8678    -6.6720  H       1  <O>11       0.0619
  32 H8       -2.2195   -11.0734    -5.0995  H       1  <O>11       0.0636
  33 H9       -0.2004    -5.8334    -1.1415  H       1  <O>11       0.0831
  34 H10      -0.4312    -6.6263     1.1249  H       1  <O>11       0.0654
  35 H11      -0.6410    -7.3086     2.7869  H       1  <O>11       0.0624
  36 H12      -0.9000    -8.2410     5.0153  H       1  <O>11       0.0618
  37 H13      -1.7936   -10.4877     5.3021  H       1  <O>11       0.0618
  38 H14      -2.4372   -11.7826     3.3515  H       1  <O>11       0.0618
  39 H15      -2.1884   -10.8622     1.1240  H       1  <O>11       0.0624
  40 H16       0.7956    -9.1309    -2.8818  H       1  <O>11       0.0656
@<TRIPOS>BOND
     1     1     2    1
     2     2     3    1
     3     3     4    2
     4     3     5    2
     5     3     6    1
     6     6     7   ar
     7     7     8   ar
     8     8     9   ar
     9     9    10   ar
    10    10    11    1
    11    11    12    1
    12    12    13   ar
    13    13    14   ar
    14    14    15   ar
    15    15    16   ar
    16    16    17    1
    17    17    18   ar
    18    18    19   ar
    19    19    20   ar
    20    20    21   ar
    21    21    22   ar
    22    17    22   ar
    23    16    23   ar
    24    12    23   ar
    25    10    24   ar
    26     6    24   ar
    27     1    25    1
    28     1    26    1
    29     1    27    1
    30     2    28    1
    31    11    29    1
    32     7    30    1
    33     8    31    1
    34     9    32    1
    35    14    33    1
    36    15    34    1
    37    18    35    1
    38    19    36    1
    39    20    37    1
    40    21    38    1
    41    22    39    1
    42    24    40    1
@<TRIPOS>MOLECULE
mol69_1_23
 40 42 0 0 0
SMALL
USER_CHARGES
****
VDW energy = -129.92
@<TRIPOS>ATOM
   1 C1        2.8936    -7.6802    -5.8629  C.3     1  <O>11       0.0059
   2 N1        3.6845    -8.8982    -5.7123  N.3     1  <O>11      -0.1930
   3 S1        3.1570    -9.7380    -4.3910  S.O2    1  <O>11       0.0582
   4 O1        3.3260    -8.7960    -3.0330  O.2     1  <O>11      -0.1531
   5 O2        1.5570   -10.1370    -4.5920  O.2     1  <O>11      -0.1531
   6 C2        4.1100   -11.2060    -4.2090  C.ar    1  <O>11       0.1070
   7 C3        5.4910   -11.1070    -4.0270  C.ar    1  <O>11      -0.0352
   8 C4        6.2550   -12.2710    -3.8940  C.ar    1  <O>11      -0.0582
   9 C5        5.6420   -13.5260    -3.9380  C.ar    1  <O>11      -0.0404
  10 C6        4.2560   -13.6090    -4.1160  C.ar    1  <O>11       0.0354
  11 N2        3.6290   -14.9040    -4.1600  N.pl3   1  <O>11      -0.2836
  12 C7        2.1930   -15.0090    -4.3420  C.ar    1  <O>11       0.2200
  13 N3        1.6220   -16.2380    -4.3800  N.ar    1  <O>11      -0.2226
  14 C8        0.2900   -16.3100    -4.5480  C.ar    1  <O>11       0.0332
  15 C9       -0.5160   -15.2100    -4.6820  C.ar    1  <O>11      -0.0174
  16 C10       0.1320   -14.0030    -4.6350  C.ar    1  <O>11       0.0760
  17 C11      -0.6190   -12.7970    -4.7680  C.ar    1  <O>11       0.0005
  18 C12      -1.1470   -12.1630    -3.6302  C.ar    1  <O>11      -0.0526
  19 C13      -1.8947   -10.9860    -3.7613  C.ar    1  <O>11      -0.0611
  20 C14      -2.1194   -10.4331    -5.0273  C.ar    1  <O>11      -0.0617
  21 C15      -1.5868   -11.0630    -6.1562  C.ar    1  <O>11      -0.0611
  22 C16      -0.8388   -12.2359    -6.0354  C.ar    1  <O>11      -0.0526
  23 N4        1.4610   -13.8780    -4.4670  N.ar    1  <O>11      -0.2142
  24 C17       3.4840   -12.4530    -4.2470  C.ar    1  <O>11      -0.0141
  25 H1        3.0048    -7.0623    -4.9718  H       1  <O>11       0.0405
  26 H2        1.8439    -7.9425    -5.9945  H       1  <O>11       0.0405
  27 H3        3.2419    -7.1264    -6.7347  H       1  <O>11       0.0405
  28 H4        3.5805    -9.4763    -6.5461  H       1  <O>11       0.1477
  29 H5        4.1930   -15.7480    -4.0630  H       1  <O>11       0.1550
  30 H6        5.9450   -10.1809    -3.9909  H       1  <O>11       0.0637
  31 H7        7.2763   -12.2027    -3.7627  H       1  <O>11       0.0619
  32 H8        6.2064   -14.3845    -3.8401  H       1  <O>11       0.0636
  33 H9       -0.1488   -17.2436    -4.5776  H       1  <O>11       0.0831
  34 H10      -1.5374   -15.2849    -4.8092  H       1  <O>11       0.0654
  35 H11      -0.9831   -12.5663    -2.6945  H       1  <O>11       0.0624
  36 H12      -2.2809   -10.5253    -2.9225  H       1  <O>11       0.0618
  37 H13      -2.6733    -9.5680    -5.1266  H       1  <O>11       0.0618
  38 H14      -1.7486   -10.6558    -7.0906  H       1  <O>11       0.0618
  39 H15      -0.4485   -12.6892    -6.8763  H       1  <O>11       0.0624
  40 H16       2.4616   -12.5198    -4.3706  H       1  <O>11       0.0656
@<TRIPOS>BOND
     1     1     2    1
     2     2     3    1
     3     3     4    2
     4     3     5    2
     5     3     6    1
     6     6     7   ar
     7     7     8   ar
     8     8     9   ar
     9     9    10   ar
    10    10    11    1
    11    11    12    1
    12    12    13   ar
    13    13    14   ar
    14    14    15   ar
    15    15    16   ar
    16    16    17    1
    17    17    18   ar
    18    18    19   ar
    19    19    20   ar
    20    20    21   ar
    21    21    22   ar
    22    17    22   ar
    23    16    23   ar
    24    12    23   ar
    25    10    24   ar
    26     6    24   ar
    27     1    25    1
    28     1    26    1
    29     1    27    1
    30     2    28    1
    31    11    29    1
    32     7    30    1
    33     8    31    1
    34     9    32    1
    35    14    33    1
    36    15    34    1
    37    18    35    1
    38    19    36    1
    39    20    37    1
    40    21    38    1
    41    22    39    1
    42    24    40    1
@<TRIPOS>MOLECULE
mol69_1_24
 40 42 0 0 0
SMALL
USER_CHARGES
****
VDW energy = -129.91
@<TRIPOS>ATOM
   1 C1        2.8936    -7.6802    -5.8629  C.3     1  <O>11       0.0059
   2 N1        3.6845    -8.8982    -5.7123  N.3     1  <O>11      -0.1930
   3 S1        3.1570    -9.7380    -4.3910  S.O2    1  <O>11       0.0582
   4 O1        3.3260    -8.7960    -3.0330  O.2     1  <O>11      -0.1531
   5 O2        1.5570   -10.1370    -4.5920  O.2     1  <O>11      -0.1531
   6 C2        4.1100   -11.2060    -4.2090  C.ar    1  <O>11       0.1070
   7 C3        5.4910   -11.1070    -4.0270  C.ar    1  <O>11      -0.0352
   8 C4        6.2550   -12.2710    -3.8940  C.ar    1  <O>11      -0.0582
   9 C5        5.6420   -13.5260    -3.9380  C.ar    1  <O>11      -0.0404
  10 C6        4.2560   -13.6090    -4.1160  C.ar    1  <O>11       0.0354
  11 N2        3.6290   -14.9040    -4.1600  N.pl3   1  <O>11      -0.2836
  12 C7        2.1930   -15.0090    -4.3420  C.ar    1  <O>11       0.2200
  13 N3        1.6220   -16.2380    -4.3800  N.ar    1  <O>11      -0.2226
  14 C8        0.2900   -16.3100    -4.5480  C.ar    1  <O>11       0.0332
  15 C9       -0.5160   -15.2100    -4.6820  C.ar    1  <O>11      -0.0174
  16 C10       0.1320   -14.0030    -4.6350  C.ar    1  <O>11       0.0760
  17 C11      -0.6190   -12.7970    -4.7680  C.ar    1  <O>11       0.0005
  18 C12      -0.8359   -12.2348    -6.0377  C.ar    1  <O>11      -0.0526
  19 C13      -1.5624   -11.0445    -6.1677  C.ar    1  <O>11      -0.0611
  20 C14      -2.0783   -10.4081    -5.0329  C.ar    1  <O>11      -0.0617
  21 C15      -1.8662   -10.9740    -3.7720  C.ar    1  <O>11      -0.0611
  22 C16      -1.1445   -12.1613    -3.6326  C.ar    1  <O>11      -0.0526
  23 N4        1.4610   -13.8780    -4.4670  N.ar    1  <O>11      -0.2142
  24 C17       3.4840   -12.4530    -4.2470  C.ar    1  <O>11      -0.0141
  25 H1        3.0048    -7.0623    -4.9718  H       1  <O>11       0.0405
  26 H2        1.8439    -7.9425    -5.9945  H       1  <O>11       0.0405
  27 H3        3.2419    -7.1264    -6.7347  H       1  <O>11       0.0405
  28 H4        3.5805    -9.4763    -6.5461  H       1  <O>11       0.1477
  29 H5        4.1930   -15.7480    -4.0630  H       1  <O>11       0.1550
  30 H6        5.9450   -10.1809    -3.9909  H       1  <O>11       0.0637
  31 H7        7.2763   -12.2027    -3.7627  H       1  <O>11       0.0619
  32 H8        6.2064   -14.3845    -3.8401  H       1  <O>11       0.0636
  33 H9       -0.1488   -17.2436    -4.5776  H       1  <O>11       0.0831
  34 H10      -1.5374   -15.2849    -4.8092  H       1  <O>11       0.0654
  35 H11      -0.4584   -12.7009    -6.8775  H       1  <O>11       0.0624
  36 H12      -1.7177   -10.6355    -7.1024  H       1  <O>11       0.0618
  37 H13      -2.6105    -9.5289    -5.1259  H       1  <O>11       0.0618
  38 H14      -2.2479   -10.5084    -2.9339  H       1  <O>11       0.0618
  39 H15      -0.9978   -12.5703    -2.6966  H       1  <O>11       0.0624
  40 H16       2.4616   -12.5198    -4.3706  H       1  <O>11       0.0656
@<TRIPOS>BOND
     1     1     2    1
     2     2     3    1
     3     3     4    2
     4     3     5    2
     5     3     6    1
     6     6     7   ar
     7     7     8   ar
     8     8     9   ar
     9     9    10   ar
    10    10    11    1
    11    11    12    1
    12    12    13   ar
    13    13    14   ar
    14    14    15   ar
    15    15    16   ar
    16    16    17    1
    17    17    18   ar
    18    18    19   ar
    19    19    20   ar
    20    20    21   ar
    21    21    22   ar
    22    17    22   ar
    23    16    23   ar
    24    12    23   ar
    25    10    24   ar
    26     6    24   ar
    27     1    25    1
    28     1    26    1
    29     1    27    1
    30     2    28    1
    31    11    29    1
    32     7    30    1
    33     8    31    1
    34     9    32    1
    35    14    33    1
    36    15    34    1
    37    18    35    1
    38    19    36    1
    39    20    37    1
    40    21    38    1
    41    22    39    1
    42    24    40    1
@<TRIPOS>MOLECULE
mol69_1_25
 40 42 0 0 0
SMALL
USER_CHARGES
****
VDW energy = -129.51
@<TRIPOS>ATOM
   1 C1        2.8936    -7.6802    -5.8629  C.3     1  <O>11       0.0059
   2 N1        3.6845    -8.8982    -5.7123  N.3     1  <O>11      -0.1930
   3 S1        3.1570    -9.7380    -4.3910  S.O2    1  <O>11       0.0582
   4 O1        3.3260    -8.7960    -3.0330  O.2     1  <O>11      -0.1531
   5 O2        1.5570   -10.1370    -4.5920  O.2     1  <O>11      -0.1531
   6 C2        4.1100   -11.2060    -4.2090  C.ar    1  <O>11       0.1070
   7 C3        4.3181   -11.7327    -2.9326  C.ar    1  <O>11      -0.0352
   8 C4        5.0850   -12.8926    -2.7809  C.ar    1  <O>11      -0.0582
   9 C5        5.6366   -13.5246    -3.8985  C.ar    1  <O>11      -0.0404
  10 C6        5.4151   -12.9875    -5.1721  C.ar    1  <O>11       0.0354
  11 N2        5.9848   -13.6425    -6.3203  N.pl3   1  <O>11      -0.2836
  12 C7        5.7640   -13.1007    -7.6485  C.ar    1  <O>11       0.2200
  13 N3        6.3093   -13.7327    -8.7167  N.ar    1  <O>11      -0.2226
  14 C8        6.0897   -13.2130    -9.9371  C.ar    1  <O>11       0.0332
  15 C9        5.3463   -12.0829   -10.1553  C.ar    1  <O>11      -0.0174
  16 C10       4.8287   -11.4987    -9.0284  C.ar    1  <O>11       0.0760
  17 C11       4.0417   -10.3146    -9.1494  C.ar    1  <O>11       0.0005
  18 C12       2.6495   -10.4045    -9.3194  C.ar    1  <O>11      -0.0526
  19 C13       1.8781    -9.2429    -9.4506  C.ar    1  <O>11      -0.0611
  20 C14       2.4897    -7.9846    -9.4118  C.ar    1  <O>11      -0.0617
  21 C15       3.8741    -7.8989    -9.2358  C.ar    1  <O>11      -0.0611
  22 C16       4.6513    -9.0514    -9.1026  C.ar    1  <O>11      -0.0526
  23 N4        5.0180   -11.9804    -7.7866  N.ar    1  <O>11      -0.2142
  24 C17       4.6487   -11.8317    -5.3344  C.ar    1  <O>11      -0.0141
  25 H1        3.0048    -7.0623    -4.9718  H       1  <O>11       0.0405
  26 H2        1.8439    -7.9425    -5.9945  H       1  <O>11       0.0405
  27 H3        3.2419    -7.1264    -6.7347  H       1  <O>11       0.0405
  28 H4        3.5805    -9.4763    -6.5461  H       1  <O>11       0.1477
  29 H5        6.5434   -14.4873    -6.2014  H       1  <O>11       0.1550
  30 H6        3.9087   -11.2692    -2.1064  H       1  <O>11       0.0637
  31 H7        5.2442   -13.2835    -1.8392  H       1  <O>11       0.0619
  32 H8        6.2027   -14.3802    -3.7858  H       1  <O>11       0.0636
  33 H9        6.5031   -13.6909   -10.7530  H       1  <O>11       0.0831
  34 H10       5.1876   -11.6991   -11.1000  H       1  <O>11       0.0654
  35 H11       2.1938   -11.3300    -9.3476  H       1  <O>11       0.0624
  36 H12       0.8563    -9.3148    -9.5763  H       1  <O>11       0.0618
  37 H13       1.9238    -7.1274    -9.5122  H       1  <O>11       0.0618
  38 H14       4.3273    -6.9723    -9.2039  H       1  <O>11       0.0618
  39 H15       5.6718    -8.9744    -8.9698  H       1  <O>11       0.0624
  40 H16       4.4824   -11.4442    -6.2764  H       1  <O>11       0.0656
@<TRIPOS>BOND
     1     1     2    1
     2     2     3    1
     3     3     4    2
     4     3     5    2
     5     3     6    1
     6     6     7   ar
     7     7     8   ar
     8     8     9   ar
     9     9    10   ar
    10    10    11    1
    11    11    12    1
    12    12    13   ar
    13    13    14   ar
    14    14    15   ar
    15    15    16   ar
    16    16    17    1
    17    17    18   ar
    18    18    19   ar
    19    19    20   ar
    20    20    21   ar
    21    21    22   ar
    22    17    22   ar
    23    16    23   ar
    24    12    23   ar
    25    10    24   ar
    26     6    24   ar
    27     1    25    1
    28     1    26    1
    29     1    27    1
    30     2    28    1
    31    11    29    1
    32     7    30    1
    33     8    31    1
    34     9    32    1
    35    14    33    1
    36    15    34    1
    37    18    35    1
    38    19    36    1
    39    20    37    1
    40    21    38    1
    41    22    39    1
    42    24    40    1
@<TRIPOS>MOLECULE
mol69_1_26
 40 42 0 0 0
SMALL
USER_CHARGES
****
VDW energy = -129.06
@<TRIPOS>ATOM
   1 C1        2.8936    -7.6802    -5.8629  C.3     1  <O>11       0.0059
   2 N1        3.6845    -8.8982    -5.7123  N.3     1  <O>11      -0.1930
   3 S1        3.1570    -9.7380    -4.3910  S.O2    1  <O>11       0.0582
   4 O1        3.3260    -8.7960    -3.0330  O.2     1  <O>11      -0.1531
   5 O2        1.5570   -10.1370    -4.5920  O.2     1  <O>11      -0.1531
   6 C2        4.1100   -11.2060    -4.2090  C.ar    1  <O>11       0.1070
   7 C3        4.6430   -11.8208    -5.3439  C.ar    1  <O>11      -0.0352
   8 C4        5.3910   -12.9946    -5.2062  C.ar    1  <O>11      -0.0582
   9 C5        5.6089   -13.5479    -3.9417  C.ar    1  <O>11      -0.0404
  10 C6        5.0724   -12.9174    -2.8129  C.ar    1  <O>11       0.0354
  11 N2        5.3002   -13.4909    -1.5124  N.pl3   1  <O>11      -0.2836
  12 C7        4.7531   -12.8497    -0.3309  C.ar    1  <O>11       0.2200
  13 N3        4.9796   -13.4056     0.8847  N.ar    1  <O>11      -0.2226
  14 C8        4.4641   -12.7928     1.9647  C.ar    1  <O>11       0.0332
  15 C9        3.7251   -11.6407     1.8999  C.ar    1  <O>11      -0.0174
  16 C10       3.5369   -11.1388     0.6383  C.ar    1  <O>11       0.0760
  17 C11       2.7781    -9.9430     0.4641  C.ar    1  <O>11       0.0005
  18 C12       1.3882   -10.0094     0.2659  C.ar    1  <O>11      -0.0526
  19 C13       0.6447    -8.8367     0.0825  C.ar    1  <O>11      -0.0611
  20 C14       1.2820    -7.5907     0.0971  C.ar    1  <O>11      -0.0617
  21 C15       2.6638    -7.5282     0.3013  C.ar    1  <O>11      -0.0611
  22 C16       3.4132    -8.6918     0.4865  C.ar    1  <O>11      -0.0526
  23 N4        4.0331   -11.7130    -0.4726  N.ar    1  <O>11      -0.2142
  24 C17       4.3266   -11.7439    -2.9393  C.ar    1  <O>11      -0.0141
  25 H1        3.0048    -7.0623    -4.9718  H       1  <O>11       0.0405
  26 H2        1.8439    -7.9425    -5.9945  H       1  <O>11       0.0405
  27 H3        3.2419    -7.1264    -6.7347  H       1  <O>11       0.0405
  28 H4        3.5805    -9.4763    -6.5461  H       1  <O>11       0.1477
  29 H5        5.8460   -14.3473    -1.4203  H       1  <O>11       0.1550
  30 H6        4.4859   -11.4117    -6.2783  H       1  <O>11       0.0637
  31 H7        5.7839   -13.4542    -6.0425  H       1  <O>11       0.0619
  32 H8        6.1607   -14.4143    -3.8409  H       1  <O>11       0.0636
  33 H9        4.6340   -13.2126     2.8920  H       1  <O>11       0.0831
  34 H10       3.3381   -11.1838     2.7404  H       1  <O>11       0.0654
  35 H11       0.9137   -10.9258     0.2554  H       1  <O>11       0.0624
  36 H12      -0.3754    -8.8915    -0.0637  H       1  <O>11       0.0618
  37 H13       0.7367    -6.7256    -0.0418  H       1  <O>11       0.0618
  38 H14       3.1357    -6.6106     0.3153  H       1  <O>11       0.0618
  39 H15       4.4320    -8.6318     0.6396  H       1  <O>11       0.0624
  40 H16       3.9397   -11.2791    -2.1030  H       1  <O>11       0.0656
@<TRIPOS>BOND
     1     1     2    1
     2     2     3    1
     3     3     4    2
     4     3     5    2
     5     3     6    1
     6     6     7   ar
     7     7     8   ar
     8     8     9   ar
     9     9    10   ar
    10    10    11    1
    11    11    12    1
    12    12    13   ar
    13    13    14   ar
    14    14    15   ar
    15    15    16   ar
    16    16    17    1
    17    17    18   ar
    18    18    19   ar
    19    19    20   ar
    20    20    21   ar
    21    21    22   ar
    22    17    22   ar
    23    16    23   ar
    24    12    23   ar
    25    10    24   ar
    26     6    24   ar
    27     1    25    1
    28     1    26    1
    29     1    27    1
    30     2    28    1
    31    11    29    1
    32     7    30    1
    33     8    31    1
    34     9    32    1
    35    14    33    1
    36    15    34    1
    37    18    35    1
    38    19    36    1
    39    20    37    1
    40    21    38    1
    41    22    39    1
    42    24    40    1
@<TRIPOS>MOLECULE
mol69_1_27
 40 42 0 0 0
SMALL
USER_CHARGES
****
VDW energy = -128.63
@<TRIPOS>ATOM
   1 C1        2.8936    -7.6802    -5.8629  C.3     1  <O>11       0.0059
   2 N1        3.6845    -8.8982    -5.7123  N.3     1  <O>11      -0.1930
   3 S1        3.1570    -9.7380    -4.3910  S.O2    1  <O>11       0.0582
   4 O1        1.5572   -10.1382    -4.5923  O.2     1  <O>11      -0.1531
   5 O2        4.0569   -11.1240    -4.2213  O.2     1  <O>11      -0.1531
   6 C2        3.3359    -8.7416    -2.9517  C.ar    1  <O>11       0.1070
   7 C3        2.6624    -7.5206    -2.8768  C.ar    1  <O>11      -0.0352
   8 C4        2.8106    -6.7190    -1.7403  C.ar    1  <O>11      -0.0582
   9 C5        3.6233    -7.1371    -0.6832  C.ar    1  <O>11      -0.0404
  10 C6        4.2881    -8.3660    -0.7708  C.ar    1  <O>11       0.0354
  11 N2        5.1237    -8.7927     0.3209  N.pl3   1  <O>11      -0.2836
  12 C7        5.8190   -10.0645     0.2482  C.ar    1  <O>11       0.2200
  13 N3        5.0954   -11.2109     0.2333  N.ar    1  <O>11      -0.2226
  14 C8        5.7616   -12.3767     0.1640  C.ar    1  <O>11       0.0332
  15 C9        7.1278   -12.4649     0.1079  C.ar    1  <O>11      -0.0174
  16 C10       7.7910   -11.2655     0.1285  C.ar    1  <O>11       0.0760
  17 C11       9.2169   -11.2504     0.0769  C.ar    1  <O>11       0.0005
  18 C12       9.9354   -12.4564     0.0077  C.ar    1  <O>11      -0.0526
  19 C13      11.3354   -12.4426    -0.0305  C.ar    1  <O>11      -0.0611
  20 C14      12.0276   -11.2265    -0.0014  C.ar    1  <O>11      -0.0617
  21 C15      11.3092   -10.0286     0.0607  C.ar    1  <O>11      -0.0611
  22 C16       9.9133   -10.0322     0.0976  C.ar    1  <O>11      -0.0526
  23 N4        7.1709   -10.0734     0.1951  N.ar    1  <O>11      -0.2142
  24 C17       4.1446    -9.1748    -1.8997  C.ar    1  <O>11      -0.0141
  25 H1        3.0048    -7.0623    -4.9718  H       1  <O>11       0.0405
  26 H2        1.8439    -7.9425    -5.9945  H       1  <O>11       0.0405
  27 H3        3.2419    -7.1264    -6.7347  H       1  <O>11       0.0405
  28 H4        3.5805    -9.4763    -6.5461  H       1  <O>11       0.1477
  29 H5        5.2272    -8.2023     1.1459  H       1  <O>11       0.1550
  30 H6        2.0591    -7.2117    -3.6551  H       1  <O>11       0.0637
  31 H7        2.3174    -5.8144    -1.6821  H       1  <O>11       0.0619
  32 H8        3.7325    -6.5450     0.1550  H       1  <O>11       0.0636
  33 H9        5.2147   -13.2518     0.1525  H       1  <O>11       0.0831
  34 H10       7.6219   -13.3694     0.0539  H       1  <O>11       0.0654
  35 H11       9.4294   -13.3555    -0.0151  H       1  <O>11       0.0624
  36 H12      11.8578   -13.3312    -0.0803  H       1  <O>11       0.0618
  37 H13      13.0592   -11.2142    -0.0255  H       1  <O>11       0.0618
  38 H14      11.8171    -9.1304     0.0795  H       1  <O>11       0.0618
  39 H15       9.3949    -9.1409     0.1401  H       1  <O>11       0.0624
  40 H16       4.6311   -10.0832    -1.9558  H       1  <O>11       0.0656
@<TRIPOS>BOND
     1     1     2    1
     2     2     3    1
     3     3     4    2
     4     3     5    2
     5     3     6    1
     6     6     7   ar
     7     7     8   ar
     8     8     9   ar
     9     9    10   ar
    10    10    11    1
    11    11    12    1
    12    12    13   ar
    13    13    14   ar
    14    14    15   ar
    15    15    16   ar
    16    16    17    1
    17    17    18   ar
    18    18    19   ar
    19    19    20   ar
    20    20    21   ar
    21    21    22   ar
    22    17    22   ar
    23    16    23   ar
    24    12    23   ar
    25    10    24   ar
    26     6    24   ar
    27     1    25    1
    28     1    26    1
    29     1    27    1
    30     2    28    1
    31    11    29    1
    32     7    30    1
    33     8    31    1
    34     9    32    1
    35    14    33    1
    36    15    34    1
    37    18    35    1
    38    19    36    1
    39    20    37    1
    40    21    38    1
    41    22    39    1
    42    24    40    1
@<TRIPOS>MOLECULE
mol69_1_28
 40 42 0 0 0
SMALL
USER_CHARGES
****
VDW energy = -126.36
@<TRIPOS>ATOM
   1 C1        2.8936    -7.6802    -5.8629  C.3     1  <O>11       0.0059
   2 N1        3.6845    -8.8982    -5.7123  N.3     1  <O>11      -0.1930
   3 S1        3.1570    -9.7380    -4.3910  S.O2    1  <O>11       0.0582
   4 O1        3.3260    -8.7960    -3.0330  O.2     1  <O>11      -0.1531
   5 O2        1.5570   -10.1370    -4.5920  O.2     1  <O>11      -0.1531
   6 C2        4.1100   -11.2060    -4.2090  C.ar    1  <O>11       0.1070
   7 C3        5.4910   -11.1070    -4.0270  C.ar    1  <O>11      -0.0352
   8 C4        6.2550   -12.2710    -3.8940  C.ar    1  <O>11      -0.0582
   9 C5        5.6420   -13.5260    -3.9380  C.ar    1  <O>11      -0.0404
  10 C6        4.2560   -13.6090    -4.1160  C.ar    1  <O>11       0.0354
  11 N2        3.6290   -14.9040    -4.1600  N.pl3   1  <O>11      -0.2836
  12 C7        2.1930   -15.0090    -4.3420  C.ar    1  <O>11       0.2200
  13 N3        1.6220   -16.2380    -4.3800  N.ar    1  <O>11      -0.2226
  14 C8        0.2900   -16.3100    -4.5480  C.ar    1  <O>11       0.0332
  15 C9       -0.5160   -15.2100    -4.6820  C.ar    1  <O>11      -0.0174
  16 C10       0.1320   -14.0030    -4.6350  C.ar    1  <O>11       0.0760
  17 C11      -0.6190   -12.7970    -4.7680  C.ar    1  <O>11       0.0005
  18 C12      -0.3464   -11.9060    -5.8202  C.ar    1  <O>11      -0.0526
  19 C13      -1.0748   -10.7162    -5.9440  C.ar    1  <O>11      -0.0611
  20 C14      -2.0804   -10.4081    -5.0205  C.ar    1  <O>11      -0.0617
  21 C15      -2.3534   -11.3002    -3.9791  C.ar    1  <O>11      -0.0611
  22 C16      -1.6334   -12.4895    -3.8483  C.ar    1  <O>11      -0.0526
  23 N4        1.4610   -13.8780    -4.4670  N.ar    1  <O>11      -0.2142
  24 C17       3.4840   -12.4530    -4.2470  C.ar    1  <O>11      -0.0141
  25 H1        3.0048    -7.0623    -4.9718  H       1  <O>11       0.0405
  26 H2        1.8439    -7.9425    -5.9945  H       1  <O>11       0.0405
  27 H3        3.2419    -7.1264    -6.7347  H       1  <O>11       0.0405
  28 H4        3.5805    -9.4763    -6.5461  H       1  <O>11       0.1477
  29 H5        4.1930   -15.7480    -4.0630  H       1  <O>11       0.1550
  30 H6        5.9450   -10.1809    -3.9909  H       1  <O>11       0.0637
  31 H7        7.2763   -12.2027    -3.7627  H       1  <O>11       0.0619
  32 H8        6.2064   -14.3845    -3.8401  H       1  <O>11       0.0636
  33 H9       -0.1488   -17.2436    -4.5776  H       1  <O>11       0.0831
  34 H10      -1.5374   -15.2849    -4.8092  H       1  <O>11       0.0654
  35 H11       0.3934   -12.1292    -6.5042  H       1  <O>11       0.0624
  36 H12      -0.8697   -10.0650    -6.7179  H       1  <O>11       0.0618
  37 H13      -2.6158    -9.5301    -5.1076  H       1  <O>11       0.0618
  38 H14      -3.0962   -11.0768    -3.2984  H       1  <O>11       0.0618
  39 H15      -1.8469   -13.1410    -3.0771  H       1  <O>11       0.0624
  40 H16       2.4616   -12.5198    -4.3706  H       1  <O>11       0.0656
@<TRIPOS>BOND
     1     1     2    1
     2     2     3    1
     3     3     4    2
     4     3     5    2
     5     3     6    1
     6     6     7   ar
     7     7     8   ar
     8     8     9   ar
     9     9    10   ar
    10    10    11    1
    11    11    12    1
    12    12    13   ar
    13    13    14   ar
    14    14    15   ar
    15    15    16   ar
    16    16    17    1
    17    17    18   ar
    18    18    19   ar
    19    19    20   ar
    20    20    21   ar
    21    21    22   ar
    22    17    22   ar
    23    16    23   ar
    24    12    23   ar
    25    10    24   ar
    26     6    24   ar
    27     1    25    1
    28     1    26    1
    29     1    27    1
    30     2    28    1
    31    11    29    1
    32     7    30    1
    33     8    31    1
    34     9    32    1
    35    14    33    1
    36    15    34    1
    37    18    35    1
    38    19    36    1
    39    20    37    1
    40    21    38    1
    41    22    39    1
    42    24    40    1
@<TRIPOS>MOLECULE
mol69_1_29
 40 42 0 0 0
SMALL
USER_CHARGES
****
VDW energy = -124.95
@<TRIPOS>ATOM
   1 C1        2.8936    -7.6802    -5.8629  C.3     1  <O>11       0.0059
   2 N1        3.6845    -8.8982    -5.7123  N.3     1  <O>11      -0.1930
   3 S1        3.1570    -9.7380    -4.3910  S.O2    1  <O>11       0.0582
   4 O1        4.0577   -11.1235    -4.2202  O.2     1  <O>11      -0.1531
   5 O2        3.3274    -8.7964    -3.0331  O.2     1  <O>11      -0.1531
   6 C2        1.4624   -10.1623    -4.6026  C.ar    1  <O>11       0.1070
   7 C3        1.0861   -10.9550    -5.6889  C.ar    1  <O>11      -0.0352
   8 C4       -0.2611   -11.2851    -5.8688  C.ar    1  <O>11      -0.0582
   9 C5       -1.2256   -10.8296    -4.9660  C.ar    1  <O>11      -0.0404
  10 C6       -0.8323   -10.0400    -3.8790  C.ar    1  <O>11       0.0354
  11 N2       -1.8294    -9.5738    -2.9514  N.pl3   1  <O>11      -0.2836
  12 C7       -1.4396    -8.7557    -1.8178  C.ar    1  <O>11       0.2200
  13 N3       -2.3940    -8.3274    -0.9554  N.ar    1  <O>11      -0.2226
  14 C8       -2.0086    -7.5722     0.0880  C.ar    1  <O>11       0.0332
  15 C9       -0.7068    -7.2151     0.3233  C.ar    1  <O>11      -0.0174
  16 C10       0.2008    -7.6835    -0.5910  C.ar    1  <O>11       0.0760
  17 C11       1.5828    -7.3639    -0.4358  C.ar    1  <O>11       0.0005
  18 C12       2.1118    -6.2043    -1.0280  C.ar    1  <O>11      -0.0526
  19 C13       3.4708    -5.8967    -0.8864  C.ar    1  <O>11      -0.0611
  20 C14       4.3104    -6.7424    -0.1524  C.ar    1  <O>11      -0.0617
  21 C15       3.7791    -7.8916     0.4409  C.ar    1  <O>11      -0.0611
  22 C16       2.4252    -8.2058     0.3065  C.ar    1  <O>11      -0.0526
  23 N4       -0.1339    -8.4434    -1.6496  N.ar    1  <O>11      -0.2142
  24 C17       0.5103    -9.7072    -3.6890  C.ar    1  <O>11      -0.0141
  25 H1        3.0048    -7.0623    -4.9718  H       1  <O>11       0.0405
  26 H2        1.8439    -7.9425    -5.9945  H       1  <O>11       0.0405
  27 H3        3.2419    -7.1264    -6.7347  H       1  <O>11       0.0405
  28 H4        3.5805    -9.4763    -6.5461  H       1  <O>11       0.1477
  29 H5       -2.8097    -9.8182    -3.0898  H       1  <O>11       0.1550
  30 H6        1.7975   -11.2950    -6.3548  H       1  <O>11       0.0637
  31 H7       -0.5442   -11.8678    -6.6720  H       1  <O>11       0.0619
  32 H8       -2.2195   -11.0734    -5.0995  H       1  <O>11       0.0636
  33 H9       -2.7319    -7.2439     0.7468  H       1  <O>11       0.0831
  34 H10      -0.4296    -6.6352     1.1307  H       1  <O>11       0.0654
  35 H11       1.4965    -5.5771    -1.5693  H       1  <O>11       0.0624
  36 H12       3.8541    -5.0444    -1.3244  H       1  <O>11       0.0618
  37 H13       5.3129    -6.5197    -0.0501  H       1  <O>11       0.0618
  38 H14       4.3954    -8.5154     0.9850  H       1  <O>11       0.0618
  39 H15       2.0448    -9.0553     0.7522  H       1  <O>11       0.0624
  40 H16       0.7956    -9.1309    -2.8818  H       1  <O>11       0.0656
@<TRIPOS>BOND
     1     1     2    1
     2     2     3    1
     3     3     4    2
     4     3     5    2
     5     3     6    1
     6     6     7   ar
     7     7     8   ar
     8     8     9   ar
     9     9    10   ar
    10    10    11    1
    11    11    12    1
    12    12    13   ar
    13    13    14   ar
    14    14    15   ar
    15    15    16   ar
    16    16    17    1
    17    17    18   ar
    18    18    19   ar
    19    19    20   ar
    20    20    21   ar
    21    21    22   ar
    22    17    22   ar
    23    16    23   ar
    24    12    23   ar
    25    10    24   ar
    26     6    24   ar
    27     1    25    1
    28     1    26    1
    29     1    27    1
    30     2    28    1
    31    11    29    1
    32     7    30    1
    33     8    31    1
    34     9    32    1
    35    14    33    1
    36    15    34    1
    37    18    35    1
    38    19    36    1
    39    20    37    1
    40    21    38    1
    41    22    39    1
    42    24    40    1
@<TRIPOS>MOLECULE
mol69_1_30
 40 42 0 0 0
SMALL
USER_CHARGES
****
VDW energy = -121.24
@<TRIPOS>ATOM
   1 C1        2.8936    -7.6802    -5.8629  C.3     1  <O>11       0.0059
   2 N1        3.6845    -8.8982    -5.7123  N.3     1  <O>11      -0.1930
   3 S1        3.1570    -9.7380    -4.3910  S.O2    1  <O>11       0.0582
   4 O1        4.0577   -11.1235    -4.2202  O.2     1  <O>11      -0.1531
   5 O2        3.3274    -8.7964    -3.0331  O.2     1  <O>11      -0.1531
   6 C2        1.4624   -10.1623    -4.6026  C.ar    1  <O>11       0.1070
   7 C3        1.0861   -10.9550    -5.6889  C.ar    1  <O>11      -0.0352
   8 C4       -0.2611   -11.2851    -5.8688  C.ar    1  <O>11      -0.0582
   9 C5       -1.2256   -10.8296    -4.9660  C.ar    1  <O>11      -0.0404
  10 C6       -0.8323   -10.0400    -3.8790  C.ar    1  <O>11       0.0354
  11 N2       -1.8294    -9.5738    -2.9514  N.pl3   1  <O>11      -0.2836
  12 C7       -1.4396    -8.7557    -1.8178  C.ar    1  <O>11       0.2200
  13 N3       -2.3940    -8.3274    -0.9554  N.ar    1  <O>11      -0.2226
  14 C8       -2.0086    -7.5722     0.0880  C.ar    1  <O>11       0.0332
  15 C9       -0.7068    -7.2151     0.3233  C.ar    1  <O>11      -0.0174
  16 C10       0.2008    -7.6835    -0.5910  C.ar    1  <O>11       0.0760
  17 C11       1.5828    -7.3639    -0.4358  C.ar    1  <O>11       0.0005
  18 C12       2.5330    -8.3880    -0.2817  C.ar    1  <O>11      -0.0526
  19 C13       3.8880    -8.0745    -0.1169  C.ar    1  <O>11      -0.0611
  20 C14       4.3042    -6.7383    -0.1063  C.ar    1  <O>11      -0.0617
  21 C15       3.3570    -5.7225    -0.2667  C.ar    1  <O>11      -0.0611
  22 C16       2.0040    -6.0253    -0.4330  C.ar    1  <O>11      -0.0526
  23 N4       -0.1339    -8.4434    -1.6496  N.ar    1  <O>11      -0.2142
  24 C17       0.5103    -9.7072    -3.6890  C.ar    1  <O>11      -0.0141
  25 H1        3.0048    -7.0623    -4.9718  H       1  <O>11       0.0405
  26 H2        1.8439    -7.9425    -5.9945  H       1  <O>11       0.0405
  27 H3        3.2419    -7.1264    -6.7347  H       1  <O>11       0.0405
  28 H4        3.5805    -9.4763    -6.5461  H       1  <O>11       0.1477
  29 H5       -2.8097    -9.8182    -3.0898  H       1  <O>11       0.1550
  30 H6        1.7975   -11.2950    -6.3548  H       1  <O>11       0.0637
  31 H7       -0.5442   -11.8678    -6.6720  H       1  <O>11       0.0619
  32 H8       -2.2195   -11.0734    -5.0995  H       1  <O>11       0.0636
  33 H9       -2.7319    -7.2439     0.7468  H       1  <O>11       0.0831
  34 H10      -0.4296    -6.6352     1.1307  H       1  <O>11       0.0654
  35 H11       2.2310    -9.3748    -0.2899  H       1  <O>11       0.0624
  36 H12       4.5812    -8.8305    -0.0031  H       1  <O>11       0.0618
  37 H13       5.3017    -6.5048     0.0189  H       1  <O>11       0.0618
  38 H14       3.6615    -4.7364    -0.2620  H       1  <O>11       0.0618
  39 H15       1.3153    -5.2663    -0.5537  H       1  <O>11       0.0624
  40 H16       0.7956    -9.1309    -2.8818  H       1  <O>11       0.0656
@<TRIPOS>BOND
     1     1     2    1
     2     2     3    1
     3     3     4    2
     4     3     5    2
     5     3     6    1
     6     6     7   ar
     7     7     8   ar
     8     8     9   ar
     9     9    10   ar
    10    10    11    1
    11    11    12    1
    12    12    13   ar
    13    13    14   ar
    14    14    15   ar
    15    15    16   ar
    16    16    17    1
    17    17    18   ar
    18    18    19   ar
    19    19    20   ar
    20    20    21   ar
    21    21    22   ar
    22    17    22   ar
    23    16    23   ar
    24    12    23   ar
    25    10    24   ar
    26     6    24   ar
    27     1    25    1
    28     1    26    1
    29     1    27    1
    30     2    28    1
    31    11    29    1
    32     7    30    1
    33     8    31    1
    34     9    32    1
    35    14    33    1
    36    15    34    1
    37    18    35    1
    38    19    36    1
    39    20    37    1
    40    21    38    1
    41    22    39    1
    42    24    40    1
@<TRIPOS>MOLECULE
mol69_2_1
 40 42 0 0 0
SMALL
USER_CHARGES
****
VDW energy = -155.86
@<TRIPOS>ATOM
   1 C1        2.8936    -7.6802    -5.8629  C.3     1  <O>11       0.0059
   2 N1        3.6845    -8.8982    -5.7123  N.3     1  <O>11      -0.1930
   3 S1        3.1570    -9.7380    -4.3910  S.O2    1  <O>11       0.0582
   4 O1        3.3260    -8.7960    -3.0330  O.2     1  <O>11      -0.1531
   5 O2        1.5570   -10.1370    -4.5920  O.2     1  <O>11      -0.1531
   6 C2        4.1100   -11.2060    -4.2090  C.ar    1  <O>11       0.1070
   7 C3        5.4910   -11.1070    -4.0270  C.ar    1  <O>11      -0.0352
   8 C4        6.2550   -12.2710    -3.8940  C.ar    1  <O>11      -0.0582
   9 C5        5.6420   -13.5260    -3.9380  C.ar    1  <O>11      -0.0404
  10 C6        4.2560   -13.6090    -4.1160  C.ar    1  <O>11       0.0354
  11 N2        3.6290   -14.9040    -4.1600  N.pl3   1  <O>11      -0.2836
  12 C7        3.6230   -15.7491    -2.9813  C.ar    1  <O>11       0.2200
  13 N3        4.6462   -16.6160    -2.7914  N.ar    1  <O>11      -0.2226
  14 C8        4.6192   -17.3894    -1.6894  C.ar    1  <O>11       0.0332
  15 C9        3.6157   -17.3438    -0.7560  C.ar    1  <O>11      -0.0174
  16 C10       2.6175   -16.4420    -1.0168  C.ar    1  <O>11       0.0760
  17 C11       1.5277   -16.3171    -0.1065  C.ar    1  <O>11       0.0005
  18 C12       0.2120   -16.5648    -0.5357  C.ar    1  <O>11      -0.0526
  19 C13      -0.8584   -16.4308     0.3556  C.ar    1  <O>11      -0.0611
  20 C14      -0.6264   -16.0512     1.6797  C.ar    1  <O>11      -0.0617
  21 C15       0.6844   -15.8120     2.1091  C.ar    1  <O>11      -0.0611
  22 C16       1.7573   -15.9465     1.2294  C.ar    1  <O>11      -0.0526
  23 N4        2.5980   -15.6468    -2.1053  N.ar    1  <O>11      -0.2142
  24 C17       3.4840   -12.4530    -4.2470  C.ar    1  <O>11      -0.0141
  25 H1        3.0048    -7.0623    -4.9718  H       1  <O>11       0.0405
  26 H2        1.8439    -7.9425    -5.9945  H       1  <O>11       0.0405
  27 H3        3.2419    -7.1264    -6.7347  H       1  <O>11       0.0405
  28 H4        3.5805    -9.4763    -6.5461  H       1  <O>11       0.1477
  29 H5        3.1887   -15.2282    -5.0220  H       1  <O>11       0.1550
  30 H6        5.9450   -10.1809    -3.9909  H       1  <O>11       0.0637
  31 H7        7.2763   -12.2027    -3.7627  H       1  <O>11       0.0619
  32 H8        6.2064   -14.3845    -3.8401  H       1  <O>11       0.0636
  33 H9        5.3958   -18.0523    -1.5393  H       1  <O>11       0.0831
  34 H10       3.6125   -17.9455     0.0826  H       1  <O>11       0.0654
  35 H11       0.0349   -16.8468    -1.5125  H       1  <O>11       0.0624
  36 H12      -1.8218   -16.6129     0.0338  H       1  <O>11       0.0618
  37 H13      -1.4155   -15.9478     2.3367  H       1  <O>11       0.0618
  38 H14       0.8583   -15.5331     3.0874  H       1  <O>11       0.0618
  39 H15       2.7199   -15.7741     1.5591  H       1  <O>11       0.0624
  40 H16       2.4616   -12.5198    -4.3706  H       1  <O>11       0.0656
@<TRIPOS>BOND
     1     1     2    1
     2     2     3    1
     3     3     4    2
     4     3     5    2
     5     3     6    1
     6     6     7   ar
     7     7     8   ar
     8     8     9   ar
     9     9    10   ar
    10    10    11    1
    11    11    12    1
    12    12    13   ar
    13    13    14   ar
    14    14    15   ar
    15    15    16   ar
    16    16    17    1
    17    17    18   ar
    18    18    19   ar
    19    19    20   ar
    20    20    21   ar
    21    21    22   ar
    22    17    22   ar
    23    16    23   ar
    24    12    23   ar
    25    10    24   ar
    26     6    24   ar
    27     1    25    1
    28     1    26    1
    29     1    27    1
    30     2    28    1
    31    11    29    1
    32     7    30    1
    33     8    31    1
    34     9    32    1
    35    14    33    1
    36    15    34    1
    37    18    35    1
    38    19    36    1
    39    20    37    1
    40    21    38    1
    41    22    39    1
    42    24    40    1
@<TRIPOS>MOLECULE
mol69_2_2
 40 42 0 0 0
SMALL
USER_CHARGES
****
VDW energy = -155.83
@<TRIPOS>ATOM
   1 C1        2.8936    -7.6802    -5.8629  C.3     1  <O>11       0.0059
   2 N1        3.6845    -8.8982    -5.7123  N.3     1  <O>11      -0.1930
   3 S1        3.1570    -9.7380    -4.3910  S.O2    1  <O>11       0.0582
   4 O1        1.5572   -10.1382    -4.5923  O.2     1  <O>11      -0.1531
   5 O2        4.0569   -11.1240    -4.2213  O.2     1  <O>11      -0.1531
   6 C2        3.3359    -8.7416    -2.9517  C.ar    1  <O>11       0.1070
   7 C3        4.6051    -8.2869    -2.5878  C.ar    1  <O>11      -0.0352
   8 C4        4.7548    -7.5048    -1.4380  C.ar    1  <O>11      -0.0582
   9 C5        3.6423    -7.1752    -0.6592  C.ar    1  <O>11      -0.0404
  10 C6        2.3757    -7.6342    -1.0396  C.ar    1  <O>11       0.0354
  11 N2        1.2326    -7.2916    -0.2346  N.pl3   1  <O>11      -0.2836
  12 C7       -0.0884    -7.7552    -0.6134  C.ar    1  <O>11       0.2200
  13 N3       -0.8450    -6.9828    -1.4292  N.ar    1  <O>11      -0.2226
  14 C8       -2.0674    -7.4347    -1.7678  C.ar    1  <O>11       0.0332
  15 C9       -2.5815    -8.6290    -1.3321  C.ar    1  <O>11      -0.0174
  16 C10      -1.7571    -9.3539    -0.5120  C.ar    1  <O>11       0.0760
  17 C11      -2.1983   -10.6112    -0.0054  C.ar    1  <O>11       0.0005
  18 C12      -1.4809   -11.7849    -0.2955  C.ar    1  <O>11      -0.0526
  19 C13      -1.9211   -13.0203     0.1927  C.ar    1  <O>11      -0.0611
  20 C14      -3.0766   -13.0952     0.9740  C.ar    1  <O>11      -0.0617
  21 C15      -3.7866   -11.9255     1.2693  C.ar    1  <O>11      -0.0611
  22 C16      -3.3537   -10.6900     0.7905  C.ar    1  <O>11      -0.0526
  23 N4       -0.5265    -8.9450    -0.1432  N.ar    1  <O>11      -0.2142
  24 C17       2.2152    -8.4133    -2.1871  C.ar    1  <O>11      -0.0141
  25 H1        3.0048    -7.0623    -4.9718  H       1  <O>11       0.0405
  26 H2        1.8439    -7.9425    -5.9945  H       1  <O>11       0.0405
  27 H3        3.2419    -7.1264    -6.7347  H       1  <O>11       0.0405
  28 H4        3.5805    -9.4763    -6.5461  H       1  <O>11       0.1477
  29 H5        1.3518    -6.7210     0.6034  H       1  <O>11       0.1550
  30 H6        5.4274    -8.5265    -3.1635  H       1  <O>11       0.0637
  31 H7        5.6913    -7.1694    -1.1634  H       1  <O>11       0.0619
  32 H8        3.7535    -6.5983     0.1893  H       1  <O>11       0.0636
  33 H9       -2.6489    -6.8506    -2.3889  H       1  <O>11       0.0831
  34 H10      -3.5215    -8.9582    -1.6024  H       1  <O>11       0.0654
  35 H11      -0.6258   -11.7352    -0.8712  H       1  <O>11       0.0624
  36 H12      -1.3906   -13.8782    -0.0250  H       1  <O>11       0.0618
  37 H13      -3.4045   -14.0063     1.3309  H       1  <O>11       0.0618
  38 H14      -4.6396   -11.9783     1.8478  H       1  <O>11       0.0618
  39 H15      -3.8816    -9.8336     1.0203  H       1  <O>11       0.0624
  40 H16       1.2781    -8.7428    -2.4670  H       1  <O>11       0.0656
@<TRIPOS>BOND
     1     1     2    1
     2     2     3    1
     3     3     4    2
     4     3     5    2
     5     3     6    1
     6     6     7   ar
     7     7     8   ar
     8     8     9   ar
     9     9    10   ar
    10    10    11    1
    11    11    12    1
    12    12    13   ar
    13    13    14   ar
    14    14    15   ar
    15    15    16   ar
    16    16    17    1
    17    17    18   ar
    18    18    19   ar
    19    19    20   ar
    20    20    21   ar
    21    21    22   ar
    22    17    22   ar
    23    16    23   ar
    24    12    23   ar
    25    10    24   ar
    26     6    24   ar
    27     1    25    1
    28     1    26    1
    29     1    27    1
    30     2    28    1
    31    11    29    1
    32     7    30    1
    33     8    31    1
    34     9    32    1
    35    14    33    1
    36    15    34    1
    37    18    35    1
    38    19    36    1
    39    20    37    1
    40    21    38    1
    41    22    39    1
    42    24    40    1
@<TRIPOS>MOLECULE
mol69_2_3
 40 42 0 0 0
SMALL
USER_CHARGES
****
VDW energy = -153.15
@<TRIPOS>ATOM
   1 C1        2.8936    -7.6802    -5.8629  C.3     1  <O>11       0.0059
   2 N1        3.6845    -8.8982    -5.7123  N.3     1  <O>11      -0.1930
   3 S1        3.1570    -9.7380    -4.3910  S.O2    1  <O>11       0.0582
   4 O1        4.0577   -11.1235    -4.2202  O.2     1  <O>11      -0.1531
   5 O2        3.3274    -8.7964    -3.0331  O.2     1  <O>11      -0.1531
   6 C2        1.4624   -10.1623    -4.6026  C.ar    1  <O>11       0.1070
   7 C3        1.0861   -10.9550    -5.6889  C.ar    1  <O>11      -0.0352
   8 C4       -0.2611   -11.2851    -5.8688  C.ar    1  <O>11      -0.0582
   9 C5       -1.2256   -10.8296    -4.9660  C.ar    1  <O>11      -0.0404
  10 C6       -0.8323   -10.0400    -3.8790  C.ar    1  <O>11       0.0354
  11 N2       -1.8294    -9.5738    -2.9514  N.pl3   1  <O>11      -0.2836
  12 C7       -2.8450    -8.6346    -3.3871  C.ar    1  <O>11       0.2200
  13 N3       -3.7719    -8.2111    -2.4949  N.ar    1  <O>11      -0.2226
  14 C8       -4.7040    -7.3384    -2.9225  C.ar    1  <O>11       0.0332
  15 C9       -4.7618    -6.8596    -4.2061  C.ar    1  <O>11      -0.0174
  16 C10      -3.7904    -7.3326    -5.0490  C.ar    1  <O>11       0.0760
  17 C11      -3.7626    -6.8950    -6.4053  C.ar    1  <O>11       0.0005
  18 C12      -2.6357    -6.2242    -6.9120  C.ar    1  <O>11      -0.0526
  19 C13      -2.6138    -5.7848    -8.2404  C.ar    1  <O>11      -0.0611
  20 C14      -3.7121    -6.0116    -9.0733  C.ar    1  <O>11      -0.0617
  21 C15      -4.8310    -6.6863    -8.5710  C.ar    1  <O>11      -0.0611
  22 C16      -4.8605    -7.1309    -7.2501  C.ar    1  <O>11      -0.0526
  23 N4       -2.8370    -8.2072    -4.6700  N.ar    1  <O>11      -0.2142
  24 C17       0.5103    -9.7072    -3.6890  C.ar    1  <O>11      -0.0141
  25 H1        3.0048    -7.0623    -4.9718  H       1  <O>11       0.0405
  26 H2        1.8439    -7.9425    -5.9945  H       1  <O>11       0.0405
  27 H3        3.2419    -7.1264    -6.7347  H       1  <O>11       0.0405
  28 H4        3.5805    -9.4763    -6.5461  H       1  <O>11       0.1477
  29 H5       -1.8212    -9.9042    -1.9855  H       1  <O>11       0.1550
  30 H6        1.7975   -11.2950    -6.3548  H       1  <O>11       0.0637
  31 H7       -0.5442   -11.8678    -6.6720  H       1  <O>11       0.0619
  32 H8       -2.2195   -11.0734    -5.0995  H       1  <O>11       0.0636
  33 H9       -5.4134    -7.0123    -2.2475  H       1  <O>11       0.0831
  34 H10      -5.4847    -6.1910    -4.5152  H       1  <O>11       0.0654
  35 H11      -1.8210    -6.0551    -6.3015  H       1  <O>11       0.0624
  36 H12      -1.7840    -5.2919    -8.6057  H       1  <O>11       0.0618
  37 H13      -3.6986    -5.6841   -10.0519  H       1  <O>11       0.0618
  38 H14      -5.6428    -6.8565    -9.1850  H       1  <O>11       0.0618
  39 H15      -5.6882    -7.6331    -6.8929  H       1  <O>11       0.0624
  40 H16       0.7956    -9.1309    -2.8818  H       1  <O>11       0.0656
@<TRIPOS>BOND
     1     1     2    1
     2     2     3    1
     3     3     4    2
     4     3     5    2
     5     3     6    1
     6     6     7   ar
     7     7     8   ar
     8     8     9   ar
     9     9    10   ar
    10    10    11    1
    11    11    12    1
    12    12    13   ar
    13    13    14   ar
    14    14    15   ar
    15    15    16   ar
    16    16    17    1
    17    17    18   ar
    18    18    19   ar
    19    19    20   ar
    20    20    21   ar
    21    21    22   ar
    22    17    22   ar
    23    16    23   ar
    24    12    23   ar
    25    10    24   ar
    26     6    24   ar
    27     1    25    1
    28     1    26    1
    29     1    27    1
    30     2    28    1
    31    11    29    1
    32     7    30    1
    33     8    31    1
    34     9    32    1
    35    14    33    1
    36    15    34    1
    37    18    35    1
    38    19    36    1
    39    20    37    1
    40    21    38    1
    41    22    39    1
    42    24    40    1
@<TRIPOS>MOLECULE
mol69_2_4
 40 42 0 0 0
SMALL
USER_CHARGES
****
VDW energy = -152.86
@<TRIPOS>ATOM
   1 C1        2.8936    -7.6802    -5.8629  C.3     1  <O>11       0.0059
   2 N1        3.6845    -8.8982    -5.7123  N.3     1  <O>11      -0.1930
   3 S1        3.1570    -9.7380    -4.3910  S.O2    1  <O>11       0.0582
   4 O1        4.0577   -11.1235    -4.2202  O.2     1  <O>11      -0.1531
   5 O2        3.3274    -8.7964    -3.0331  O.2     1  <O>11      -0.1531
   6 C2        1.4624   -10.1623    -4.6026  C.ar    1  <O>11       0.1070
   7 C3        1.0861   -10.9550    -5.6889  C.ar    1  <O>11      -0.0352
   8 C4       -0.2611   -11.2851    -5.8688  C.ar    1  <O>11      -0.0582
   9 C5       -1.2256   -10.8296    -4.9660  C.ar    1  <O>11      -0.0404
  10 C6       -0.8323   -10.0400    -3.8790  C.ar    1  <O>11       0.0354
  11 N2       -1.8294    -9.5738    -2.9514  N.pl3   1  <O>11      -0.2836
  12 C7       -2.8450    -8.6346    -3.3871  C.ar    1  <O>11       0.2200
  13 N3       -2.5988    -7.3070    -3.2802  N.ar    1  <O>11      -0.2226
  14 C8       -3.5562    -6.4544    -3.6921  C.ar    1  <O>11       0.0332
  15 C9       -4.7592    -6.8592    -4.2112  C.ar    1  <O>11      -0.0174
  16 C10      -4.9337    -8.2160    -4.2887  C.ar    1  <O>11       0.0760
  17 C11      -6.1508    -8.7393    -4.8149  C.ar    1  <O>11       0.0005
  18 C12      -6.2757    -8.9994    -6.1909  C.ar    1  <O>11      -0.0526
  19 C13      -7.4747    -9.5023    -6.7083  C.ar    1  <O>11      -0.0611
  20 C14      -8.5561    -9.7512    -5.8598  C.ar    1  <O>11      -0.0617
  21 C15      -8.4290    -9.4996    -4.4886  C.ar    1  <O>11      -0.0611
  22 C16      -7.2374    -9.0020    -3.9636  C.ar    1  <O>11      -0.0526
  23 N4       -4.0072    -9.1101    -3.8888  N.ar    1  <O>11      -0.2142
  24 C17       0.5103    -9.7072    -3.6890  C.ar    1  <O>11      -0.0141
  25 H1        3.0048    -7.0623    -4.9718  H       1  <O>11       0.0405
  26 H2        1.8439    -7.9425    -5.9945  H       1  <O>11       0.0405
  27 H3        3.2419    -7.1264    -6.7347  H       1  <O>11       0.0405
  28 H4        3.5805    -9.4763    -6.5461  H       1  <O>11       0.1477
  29 H5       -1.8212    -9.9042    -1.9855  H       1  <O>11       0.1550
  30 H6        1.7975   -11.2950    -6.3548  H       1  <O>11       0.0637
  31 H7       -0.5442   -11.8678    -6.6720  H       1  <O>11       0.0619
  32 H8       -2.2195   -11.0734    -5.0995  H       1  <O>11       0.0636
  33 H9       -3.3748    -5.4415    -3.6128  H       1  <O>11       0.0831
  34 H10      -5.4811    -6.1900    -4.5213  H       1  <O>11       0.0654
  35 H11      -5.4796    -8.8185    -6.8221  H       1  <O>11       0.0624
  36 H12      -7.5602    -9.6898    -7.7195  H       1  <O>11       0.0618
  37 H13      -9.4421   -10.1180    -6.2410  H       1  <O>11       0.0618
  38 H14      -9.2261    -9.6844    -3.8596  H       1  <O>11       0.0618
  39 H15      -7.1533    -8.8268    -2.9501  H       1  <O>11       0.0624
  40 H16       0.7956    -9.1309    -2.8818  H       1  <O>11       0.0656
@<TRIPOS>BOND
     1     1     2    1
     2     2     3    1
     3     3     4    2
     4     3     5    2
     5     3     6    1
     6     6     7   ar
     7     7     8   ar
     8     8     9   ar
     9     9    10   ar
    10    10    11    1
    11    11    12    1
    12    12    13   ar
    13    13    14   ar
    14    14    15   ar
    15    15    16   ar
    16    16    17    1
    17    17    18   ar
    18    18    19   ar
    19    19    20   ar
    20    20    21   ar
    21    21    22   ar
    22    17    22   ar
    23    16    23   ar
    24    12    23   ar
    25    10    24   ar
    26     6    24   ar
    27     1    25    1
    28     1    26    1
    29     1    27    1
    30     2    28    1
    31    11    29    1
    32     7    30    1
    33     8    31    1
    34     9    32    1
    35    14    33    1
    36    15    34    1
    37    18    35    1
    38    19    36    1
    39    20    37    1
    40    21    38    1
    41    22    39    1
    42    24    40    1
@<TRIPOS>MOLECULE
mol69_2_5
 40 42 0 0 0
SMALL
USER_CHARGES
****
VDW energy = -152.15
@<TRIPOS>ATOM
   1 C1        2.8936    -7.6802    -5.8629  C.3     1  <O>11       0.0059
   2 N1        3.6845    -8.8982    -5.7123  N.3     1  <O>11      -0.1930
   3 S1        3.1570    -9.7380    -4.3910  S.O2    1  <O>11       0.0582
   4 O1        4.0577   -11.1235    -4.2202  O.2     1  <O>11      -0.1531
   5 O2        3.3274    -8.7964    -3.0331  O.2     1  <O>11      -0.1531
   6 C2        1.4624   -10.1623    -4.6026  C.ar    1  <O>11       0.1070
   7 C3        1.0861   -10.9550    -5.6889  C.ar    1  <O>11      -0.0352
   8 C4       -0.2611   -11.2851    -5.8688  C.ar    1  <O>11      -0.0582
   9 C5       -1.2256   -10.8296    -4.9660  C.ar    1  <O>11      -0.0404
  10 C6       -0.8323   -10.0400    -3.8790  C.ar    1  <O>11       0.0354
  11 N2       -1.8294    -9.5738    -2.9514  N.pl3   1  <O>11      -0.2836
  12 C7       -2.8450    -8.6346    -3.3871  C.ar    1  <O>11       0.2200
  13 N3       -2.4688    -7.3860    -3.7533  N.ar    1  <O>11      -0.2226
  14 C8       -3.4293    -6.5320    -4.1551  C.ar    1  <O>11       0.0332
  15 C9       -4.7596    -6.8602    -4.2125  C.ar    1  <O>11      -0.0174
  16 C10      -5.0613    -8.1403    -3.8280  C.ar    1  <O>11       0.0760
  17 C11      -6.4169    -8.5805    -3.8524  C.ar    1  <O>11       0.0005
  18 C12      -6.7944    -9.6728    -4.6530  C.ar    1  <O>11      -0.0526
  19 C13      -8.1275   -10.0971    -4.6852  C.ar    1  <O>11      -0.0611
  20 C14      -9.0928    -9.4386    -3.9197  C.ar    1  <O>11      -0.0617
  21 C15      -8.7153    -8.3559    -3.1166  C.ar    1  <O>11      -0.0611
  22 C16      -7.3892    -7.9284    -3.0753  C.ar    1  <O>11      -0.0526
  23 N4       -4.1372    -9.0318    -3.4171  N.ar    1  <O>11      -0.2142
  24 C17       0.5103    -9.7072    -3.6890  C.ar    1  <O>11      -0.0141
  25 H1        3.0048    -7.0623    -4.9718  H       1  <O>11       0.0405
  26 H2        1.8439    -7.9425    -5.9945  H       1  <O>11       0.0405
  27 H3        3.2419    -7.1264    -6.7347  H       1  <O>11       0.0405
  28 H4        3.5805    -9.4763    -6.5461  H       1  <O>11       0.1477
  29 H5       -1.8212    -9.9042    -1.9855  H       1  <O>11       0.1550
  30 H6        1.7975   -11.2950    -6.3548  H       1  <O>11       0.0637
  31 H7       -0.5442   -11.8678    -6.6720  H       1  <O>11       0.0619
  32 H8       -2.2195   -11.0734    -5.0995  H       1  <O>11       0.0636
  33 H9       -3.1492    -5.5790    -4.4350  H       1  <O>11       0.0831
  34 H10      -5.4815    -6.1911    -4.5230  H       1  <O>11       0.0654
  35 H11      -6.0852   -10.1638    -5.2195  H       1  <O>11       0.0624
  36 H12      -8.3982   -10.8987    -5.2760  H       1  <O>11       0.0618
  37 H13     -10.0769    -9.7480    -3.9461  H       1  <O>11       0.0618
  38 H14      -9.4265    -7.8690    -2.5489  H       1  <O>11       0.0618
  39 H15      -7.1217    -7.1333    -2.4744  H       1  <O>11       0.0624
  40 H16       0.7956    -9.1309    -2.8818  H       1  <O>11       0.0656
@<TRIPOS>BOND
     1     1     2    1
     2     2     3    1
     3     3     4    2
     4     3     5    2
     5     3     6    1
     6     6     7   ar
     7     7     8   ar
     8     8     9   ar
     9     9    10   ar
    10    10    11    1
    11    11    12    1
    12    12    13   ar
    13    13    14   ar
    14    14    15   ar
    15    15    16   ar
    16    16    17    1
    17    17    18   ar
    18    18    19   ar
    19    19    20   ar
    20    20    21   ar
    21    21    22   ar
    22    17    22   ar
    23    16    23   ar
    24    12    23   ar
    25    10    24   ar
    26     6    24   ar
    27     1    25    1
    28     1    26    1
    29     1    27    1
    30     2    28    1
    31    11    29    1
    32     7    30    1
    33     8    31    1
    34     9    32    1
    35    14    33    1
    36    15    34    1
    37    18    35    1
    38    19    36    1
    39    20    37    1
    40    21    38    1
    41    22    39    1
    42    24    40    1
@<TRIPOS>MOLECULE
mol69_2_6
 40 42 0 0 0
SMALL
USER_CHARGES
****
VDW energy = -146.01
@<TRIPOS>ATOM
   1 C1        2.8936    -7.6802    -5.8629  C.3     1  <O>11       0.0059
   2 N1        3.6845    -8.8982    -5.7123  N.3     1  <O>11      -0.1930
   3 S1        3.1570    -9.7380    -4.3910  S.O2    1  <O>11       0.0582
   4 O1        3.3260    -8.7960    -3.0330  O.2     1  <O>11      -0.1531
   5 O2        1.5570   -10.1370    -4.5920  O.2     1  <O>11      -0.1531
   6 C2        4.1100   -11.2060    -4.2090  C.ar    1  <O>11       0.1070
   7 C3        5.4910   -11.1070    -4.0270  C.ar    1  <O>11      -0.0352
   8 C4        6.2550   -12.2710    -3.8940  C.ar    1  <O>11      -0.0582
   9 C5        5.6420   -13.5260    -3.9380  C.ar    1  <O>11      -0.0404
  10 C6        4.2560   -13.6090    -4.1160  C.ar    1  <O>11       0.0354
  11 N2        3.6290   -14.9040    -4.1600  N.pl3   1  <O>11      -0.2836
  12 C7        3.9184   -15.8150    -5.2508  C.ar    1  <O>11       0.2200
  13 N3        3.5285   -15.4813    -6.5042  N.ar    1  <O>11      -0.2226
  14 C8        3.8093   -16.3424    -7.5006  C.ar    1  <O>11       0.0332
  15 C9        4.4657   -17.5316    -7.3122  C.ar    1  <O>11      -0.0174
  16 C10       4.8288   -17.7982    -6.0181  C.ar    1  <O>11       0.0760
  17 C11       5.5171   -19.0095    -5.7165  C.ar    1  <O>11       0.0005
  18 C12       5.8228   -19.9258    -6.7382  C.ar    1  <O>11      -0.0526
  19 C13       6.4884   -21.1199    -6.4396  C.ar    1  <O>11      -0.0611
  20 C14       6.8556   -21.4091    -5.1232  C.ar    1  <O>11      -0.0617
  21 C15       6.5581   -20.4932    -4.1072  C.ar    1  <O>11      -0.0611
  22 C16       5.8985   -19.2995    -4.3956  C.ar    1  <O>11      -0.0526
  23 N4        4.5701   -16.9700    -4.9863  N.ar    1  <O>11      -0.2142
  24 C17       3.4840   -12.4530    -4.2470  C.ar    1  <O>11      -0.0141
  25 H1        3.0048    -7.0623    -4.9718  H       1  <O>11       0.0405
  26 H2        1.8439    -7.9425    -5.9945  H       1  <O>11       0.0405
  27 H3        3.2419    -7.1264    -6.7347  H       1  <O>11       0.0405
  28 H4        3.5805    -9.4763    -6.5461  H       1  <O>11       0.1477
  29 H5        2.9794   -15.1812    -3.4229  H       1  <O>11       0.1550
  30 H6        5.9450   -10.1809    -3.9909  H       1  <O>11       0.0637
  31 H7        7.2763   -12.2027    -3.7627  H       1  <O>11       0.0619
  32 H8        6.2064   -14.3845    -3.8401  H       1  <O>11       0.0636
  33 H9        3.5144   -16.0940    -8.4579  H       1  <O>11       0.0831
  34 H10       4.6714   -18.1791    -8.0891  H       1  <O>11       0.0654
  35 H11       5.5551   -19.7167    -7.7126  H       1  <O>11       0.0624
  36 H12       6.7087   -21.7887    -7.1940  H       1  <O>11       0.0618
  37 H13       7.3426   -22.2914    -4.9013  H       1  <O>11       0.0618
  38 H14       6.8299   -20.7040    -3.1342  H       1  <O>11       0.0618
  39 H15       5.6905   -18.6289    -3.6392  H       1  <O>11       0.0624
  40 H16       2.4616   -12.5198    -4.3706  H       1  <O>11       0.0656
@<TRIPOS>BOND
     1     1     2    1
     2     2     3    1
     3     3     4    2
     4     3     5    2
     5     3     6    1
     6     6     7   ar
     7     7     8   ar
     8     8     9   ar
     9     9    10   ar
    10    10    11    1
    11    11    12    1
    12    12    13   ar
    13    13    14   ar
    14    14    15   ar
    15    15    16   ar
    16    16    17    1
    17    17    18   ar
    18    18    19   ar
    19    19    20   ar
    20    20    21   ar
    21    21    22   ar
    22    17    22   ar
    23    16    23   ar
    24    12    23   ar
    25    10    24   ar
    26     6    24   ar
    27     1    25    1
    28     1    26    1
    29     1    27    1
    30     2    28    1
    31    11    29    1
    32     7    30    1
    33     8    31    1
    34     9    32    1
    35    14    33    1
    36    15    34    1
    37    18    35    1
    38    19    36    1
    39    20    37    1
    40    21    38    1
    41    22    39    1
    42    24    40    1
@<TRIPOS>MOLECULE
mol69_2_7
 40 42 0 0 0
SMALL
USER_CHARGES
****
VDW energy = -145.43
@<TRIPOS>ATOM
   1 C1        2.8936    -7.6802    -5.8629  C.3     1  <O>11       0.0059
   2 N1        3.6845    -8.8982    -5.7123  N.3     1  <O>11      -0.1930
   3 S1        3.1570    -9.7380    -4.3910  S.O2    1  <O>11       0.0582
   4 O1        3.3260    -8.7960    -3.0330  O.2     1  <O>11      -0.1531
   5 O2        1.5570   -10.1370    -4.5920  O.2     1  <O>11      -0.1531
   6 C2        4.1100   -11.2060    -4.2090  C.ar    1  <O>11       0.1070
   7 C3        5.4910   -11.1070    -4.0270  C.ar    1  <O>11      -0.0352
   8 C4        6.2550   -12.2710    -3.8940  C.ar    1  <O>11      -0.0582
   9 C5        5.6420   -13.5260    -3.9380  C.ar    1  <O>11      -0.0404
  10 C6        4.2560   -13.6090    -4.1160  C.ar    1  <O>11       0.0354
  11 N2        3.6290   -14.9040    -4.1600  N.pl3   1  <O>11      -0.2836
  12 C7        3.6230   -15.7491    -2.9813  C.ar    1  <O>11       0.2200
  13 N3        2.9280   -15.3473    -1.8905  N.ar    1  <O>11      -0.2226
  14 C8        2.9364   -16.1490    -0.8086  C.ar    1  <O>11       0.0332
  15 C9        3.6078   -17.3436    -0.7558  C.ar    1  <O>11      -0.0174
  16 C10       4.2859   -17.6820    -1.8974  C.ar    1  <O>11       0.0760
  17 C11       5.0157   -18.9057    -1.9448  C.ar    1  <O>11       0.0005
  18 C12       5.0407   -19.7612    -0.8294  C.ar    1  <O>11      -0.0526
  19 C13       5.7666   -20.9567    -0.8728  C.ar    1  <O>11      -0.0611
  20 C14       6.4706   -21.3093    -2.0266  C.ar    1  <O>11      -0.0617
  21 C15       6.4393   -20.4612    -3.1399  C.ar    1  <O>11      -0.0611
  22 C16       5.7160   -19.2701    -3.1072  C.ar    1  <O>11      -0.0526
  23 N4        4.3094   -16.9139    -3.0051  N.ar    1  <O>11      -0.2142
  24 C17       3.4840   -12.4530    -4.2470  C.ar    1  <O>11      -0.0141
  25 H1        3.0048    -7.0623    -4.9718  H       1  <O>11       0.0405
  26 H2        1.8439    -7.9425    -5.9945  H       1  <O>11       0.0405
  27 H3        3.2419    -7.1264    -6.7347  H       1  <O>11       0.0405
  28 H4        3.5805    -9.4763    -6.5461  H       1  <O>11       0.1477
  29 H5        3.1887   -15.2282    -5.0220  H       1  <O>11       0.1550
  30 H6        5.9450   -10.1809    -3.9909  H       1  <O>11       0.0637
  31 H7        7.2763   -12.2027    -3.7627  H       1  <O>11       0.0619
  32 H8        6.2064   -14.3845    -3.8401  H       1  <O>11       0.0636
  33 H9        2.4091   -15.8482     0.0259  H       1  <O>11       0.0831
  34 H10       3.6028   -17.9443     0.0833  H       1  <O>11       0.0654
  35 H11       4.5213   -19.5063     0.0252  H       1  <O>11       0.0624
  36 H12       5.7819   -21.5796    -0.0501  H       1  <O>11       0.0618
  37 H13       7.0099   -22.1887    -2.0581  H       1  <O>11       0.0618
  38 H14       6.9573   -20.7206    -3.9940  H       1  <O>11       0.0618
  39 H15       5.6949   -18.6561    -3.9364  H       1  <O>11       0.0624
  40 H16       2.4616   -12.5198    -4.3706  H       1  <O>11       0.0656
@<TRIPOS>BOND
     1     1     2    1
     2     2     3    1
     3     3     4    2
     4     3     5    2
     5     3     6    1
     6     6     7   ar
     7     7     8   ar
     8     8     9   ar
     9     9    10   ar
    10    10    11    1
    11    11    12    1
    12    12    13   ar
    13    13    14   ar
    14    14    15   ar
    15    15    16   ar
    16    16    17    1
    17    17    18   ar
    18    18    19   ar
    19    19    20   ar
    20    20    21   ar
    21    21    22   ar
    22    17    22   ar
    23    16    23   ar
    24    12    23   ar
    25    10    24   ar
    26     6    24   ar
    27     1    25    1
    28     1    26    1
    29     1    27    1
    30     2    28    1
    31    11    29    1
    32     7    30    1
    33     8    31    1
    34     9    32    1
    35    14    33    1
    36    15    34    1
    37    18    35    1
    38    19    36    1
    39    20    37    1
    40    21    38    1
    41    22    39    1
    42    24    40    1
@<TRIPOS>MOLECULE
mol69_2_8
 40 42 0 0 0
SMALL
USER_CHARGES
****
VDW energy = -145.37
@<TRIPOS>ATOM
   1 C1        2.8936    -7.6802    -5.8629  C.3     1  <O>11       0.0059
   2 N1        3.6845    -8.8982    -5.7123  N.3     1  <O>11      -0.1930
   3 S1        3.1570    -9.7380    -4.3910  S.O2    1  <O>11       0.0582
   4 O1        1.5572   -10.1382    -4.5923  O.2     1  <O>11      -0.1531
   5 O2        4.0569   -11.1240    -4.2213  O.2     1  <O>11      -0.1531
   6 C2        3.3359    -8.7416    -2.9517  C.ar    1  <O>11       0.1070
   7 C3        2.6624    -7.5206    -2.8768  C.ar    1  <O>11      -0.0352
   8 C4        2.8106    -6.7190    -1.7403  C.ar    1  <O>11      -0.0582
   9 C5        3.6233    -7.1371    -0.6832  C.ar    1  <O>11      -0.0404
  10 C6        4.2881    -8.3660    -0.7708  C.ar    1  <O>11       0.0354
  11 N2        5.1237    -8.7927     0.3209  N.pl3   1  <O>11      -0.2836
  12 C7        6.5298    -8.4380     0.3419  C.ar    1  <O>11       0.2200
  13 N3        7.2950    -8.8534     1.3793  N.ar    1  <O>11      -0.2226
  14 C8        8.5978    -8.5127     1.3762  C.ar    1  <O>11       0.0332
  15 C9        9.1850    -7.7720     0.3827  C.ar    1  <O>11      -0.0174
  16 C10       8.3474    -7.3902    -0.6323  C.ar    1  <O>11       0.0760
  17 C11       8.8611    -6.6172    -1.7143  C.ar    1  <O>11       0.0005
  18 C12       8.7953    -7.1067    -3.0306  C.ar    1  <O>11      -0.0526
  19 C13       9.3101    -6.3523    -4.0908  C.ar    1  <O>11      -0.0611
  20 C14       9.8918    -5.1057    -3.8483  C.ar    1  <O>11      -0.0617
  21 C15       9.9503    -4.6149    -2.5385  C.ar    1  <O>11      -0.0611
  22 C16       9.4369    -5.3577    -1.4765  C.ar    1  <O>11      -0.0526
  23 N4        7.0371    -7.7046    -0.6747  N.ar    1  <O>11      -0.2142
  24 C17       4.1446    -9.1748    -1.8997  C.ar    1  <O>11      -0.0141
  25 H1        3.0048    -7.0623    -4.9718  H       1  <O>11       0.0405
  26 H2        1.8439    -7.9425    -5.9945  H       1  <O>11       0.0405
  27 H3        3.2419    -7.1264    -6.7347  H       1  <O>11       0.0405
  28 H4        3.5805    -9.4763    -6.5461  H       1  <O>11       0.1477
  29 H5        4.7261    -9.3463     1.0810  H       1  <O>11       0.1550
  30 H6        2.0591    -7.2117    -3.6551  H       1  <O>11       0.0637
  31 H7        2.3174    -5.8144    -1.6821  H       1  <O>11       0.0619
  32 H8        3.7325    -6.5450     0.1550  H       1  <O>11       0.0636
  33 H9        9.1860    -8.8259     2.1642  H       1  <O>11       0.0831
  34 H10      10.1858    -7.5203     0.3984  H       1  <O>11       0.0654
  35 H11       8.3655    -8.0264    -3.2158  H       1  <O>11       0.0624
  36 H12       9.2598    -6.7179    -5.0545  H       1  <O>11       0.0618
  37 H13      10.2757    -4.5505    -4.6289  H       1  <O>11       0.0618
  38 H14      10.3781    -3.6934    -2.3573  H       1  <O>11       0.0618
  39 H15       9.4796    -4.9826    -0.5161  H       1  <O>11       0.0624
  40 H16       4.6311   -10.0832    -1.9558  H       1  <O>11       0.0656
@<TRIPOS>BOND
     1     1     2    1
     2     2     3    1
     3     3     4    2
     4     3     5    2
     5     3     6    1
     6     6     7   ar
     7     7     8   ar
     8     8     9   ar
     9     9    10   ar
    10    10    11    1
    11    11    12    1
    12    12    13   ar
    13    13    14   ar
    14    14    15   ar
    15    15    16   ar
    16    16    17    1
    17    17    18   ar
    18    18    19   ar
    19    19    20   ar
    20    20    21   ar
    21    21    22   ar
    22    17    22   ar
    23    16    23   ar
    24    12    23   ar
    25    10    24   ar
    26     6    24   ar
    27     1    25    1
    28     1    26    1
    29     1    27    1
    30     2    28    1
    31    11    29    1
    32     7    30    1
    33     8    31    1
    34     9    32    1
    35    14    33    1
    36    15    34    1
    37    18    35    1
    38    19    36    1
    39    20    37    1
    40    21    38    1
    41    22    39    1
    42    24    40    1
@<TRIPOS>MOLECULE
mol69_2_9
 40 42 0 0 0
SMALL
USER_CHARGES
****
VDW energy = -145.22
@<TRIPOS>ATOM
   1 C1        2.8936    -7.6802    -5.8629  C.3     1  <O>11       0.0059
   2 N1        3.6845    -8.8982    -5.7123  N.3     1  <O>11      -0.1930
   3 S1        3.1570    -9.7380    -4.3910  S.O2    1  <O>11       0.0582
   4 O1        3.3260    -8.7960    -3.0330  O.2     1  <O>11      -0.1531
   5 O2        1.5570   -10.1370    -4.5920  O.2     1  <O>11      -0.1531
   6 C2        4.1100   -11.2060    -4.2090  C.ar    1  <O>11       0.1070
   7 C3        4.1160   -12.1498    -5.2382  C.ar    1  <O>11      -0.0352
   8 C4        4.8620   -13.3240    -5.0938  C.ar    1  <O>11      -0.0582
   9 C5        5.6011   -13.5515    -3.9299  C.ar    1  <O>11      -0.0404
  10 C6        5.5892   -12.5938    -2.9090  C.ar    1  <O>11       0.0354
  11 N2        6.3527   -12.8323    -1.7122  N.pl3   1  <O>11      -0.2836
  12 C7        7.7301   -12.3862    -1.6277  C.ar    1  <O>11       0.2200
  13 N3        8.7160   -13.2241    -2.0286  N.ar    1  <O>11      -0.2226
  14 C8        9.9868   -12.7874    -1.9418  C.ar    1  <O>11       0.0332
  15 C9       10.3311   -11.5459    -1.4719  C.ar    1  <O>11      -0.0174
  16 C10       9.2797   -10.7561    -1.0870  C.ar    1  <O>11       0.0760
  17 C11       9.5316    -9.4462    -0.5844  C.ar    1  <O>11       0.0005
  18 C12      10.8490    -8.9655    -0.4837  C.ar    1  <O>11      -0.0526
  19 C13      11.0962    -7.6838     0.0205  C.ar    1  <O>11      -0.0611
  20 C14      10.0343    -6.8717     0.4259  C.ar    1  <O>11      -0.0617
  21 C15       8.7221    -7.3474     0.3184  C.ar    1  <O>11      -0.0611
  22 C16       8.4659    -8.6214    -0.1860  C.ar    1  <O>11      -0.0526
  23 N4        7.9912   -11.1472    -1.1532  N.ar    1  <O>11      -0.2142
  24 C17       4.8500   -11.4171    -3.0445  C.ar    1  <O>11      -0.0141
  25 H1        3.0048    -7.0623    -4.9718  H       1  <O>11       0.0405
  26 H2        1.8439    -7.9425    -5.9945  H       1  <O>11       0.0405
  27 H3        3.2419    -7.1264    -6.7347  H       1  <O>11       0.0405
  28 H4        3.5805    -9.4763    -6.5461  H       1  <O>11       0.1477
  29 H5        5.9243   -13.3166    -0.9222  H       1  <O>11       0.1550
  30 H6        3.5734   -11.9820    -6.0999  H       1  <O>11       0.0637
  31 H7        4.8667   -14.0258    -5.8504  H       1  <O>11       0.0619
  32 H8        6.1512   -14.4183    -3.8238  H       1  <O>11       0.0636
  33 H9       10.7425   -13.4213    -2.2453  H       1  <O>11       0.0831
  34 H10      11.3116   -11.2293    -1.4124  H       1  <O>11       0.0654
  35 H11      11.6372    -9.5606    -0.7829  H       1  <O>11       0.0624
  36 H12      12.0656    -7.3375     0.0931  H       1  <O>11       0.0618
  37 H13      10.2158    -5.9280     0.8020  H       1  <O>11       0.0618
  38 H14       7.9360    -6.7485     0.6157  H       1  <O>11       0.0618
  39 H15       7.4940    -8.9587    -0.2669  H       1  <O>11       0.0624
  40 H16       4.8507   -10.7111    -2.2918  H       1  <O>11       0.0656
@<TRIPOS>BOND
     1     1     2    1
     2     2     3    1
     3     3     4    2
     4     3     5    2
     5     3     6    1
     6     6     7   ar
     7     7     8   ar
     8     8     9   ar
     9     9    10   ar
    10    10    11    1
    11    11    12    1
    12    12    13   ar
    13    13    14   ar
    14    14    15   ar
    15    15    16   ar
    16    16    17    1
    17    17    18   ar
    18    18    19   ar
    19    19    20   ar
    20    20    21   ar
    21    21    22   ar
    22    17    22   ar
    23    16    23   ar
    24    12    23   ar
    25    10    24   ar
    26     6    24   ar
    27     1    25    1
    28     1    26    1
    29     1    27    1
    30     2    28    1
    31    11    29    1
    32     7    30    1
    33     8    31    1
    34     9    32    1
    35    14    33    1
    36    15    34    1
    37    18    35    1
    38    19    36    1
    39    20    37    1
    40    21    38    1
    41    22    39    1
    42    24    40    1
@<TRIPOS>MOLECULE
mol69_2_10
 40 42 0 0 0
SMALL
USER_CHARGES
****
VDW energy = -145.07
@<TRIPOS>ATOM
   1 C1        2.8936    -7.6802    -5.8629  C.3     1  <O>11       0.0059
   2 N1        3.6845    -8.8982    -5.7123  N.3     1  <O>11      -0.1930
   3 S1        3.1570    -9.7380    -4.3910  S.O2    1  <O>11       0.0582
   4 O1        3.3260    -8.7960    -3.0330  O.2     1  <O>11      -0.1531
   5 O2        1.5570   -10.1370    -4.5920  O.2     1  <O>11      -0.1531
   6 C2        4.1100   -11.2060    -4.2090  C.ar    1  <O>11       0.1070
   7 C3        5.4910   -11.1070    -4.0270  C.ar    1  <O>11      -0.0352
   8 C4        6.2550   -12.2710    -3.8940  C.ar    1  <O>11      -0.0582
   9 C5        5.6420   -13.5260    -3.9380  C.ar    1  <O>11      -0.0404
  10 C6        4.2560   -13.6090    -4.1160  C.ar    1  <O>11       0.0354
  11 N2        3.6290   -14.9040    -4.1600  N.pl3   1  <O>11      -0.2836
  12 C7        3.1505   -15.5218    -2.9382  C.ar    1  <O>11       0.2200
  13 N3        3.9903   -16.3173    -2.2337  N.ar    1  <O>11      -0.2226
  14 C8        3.5238   -16.8789    -1.1022  C.ar    1  <O>11       0.0332
  15 C9        2.2507   -16.6872    -0.6300  C.ar    1  <O>11      -0.0174
  16 C10       1.4618   -15.8696    -1.3960  C.ar    1  <O>11       0.0760
  17 C11       0.1208   -15.6059    -0.9908  C.ar    1  <O>11       0.0005
  18 C12      -0.3910   -16.1792     0.1864  C.ar    1  <O>11      -0.0526
  19 C13      -1.7111   -15.9290     0.5774  C.ar    1  <O>11      -0.0611
  20 C14      -2.5295   -15.1055    -0.1994  C.ar    1  <O>11      -0.0617
  21 C15      -2.0174   -14.5284    -1.3674  C.ar    1  <O>11      -0.0611
  22 C16      -0.7026   -14.7690    -1.7629  C.ar    1  <O>11      -0.0526
  23 N4        1.8812   -15.2851    -2.5362  N.ar    1  <O>11      -0.2142
  24 C17       3.4840   -12.4530    -4.2470  C.ar    1  <O>11      -0.0141
  25 H1        3.0048    -7.0623    -4.9718  H       1  <O>11       0.0405
  26 H2        1.8439    -7.9425    -5.9945  H       1  <O>11       0.0405
  27 H3        3.2419    -7.1264    -6.7347  H       1  <O>11       0.0405
  28 H4        3.5805    -9.4763    -6.5461  H       1  <O>11       0.1477
  29 H5        3.5217   -15.3884    -5.0522  H       1  <O>11       0.1550
  30 H6        5.9450   -10.1809    -3.9909  H       1  <O>11       0.0637
  31 H7        7.2763   -12.2027    -3.7627  H       1  <O>11       0.0619
  32 H8        6.2064   -14.3845    -3.8401  H       1  <O>11       0.0636
  33 H9        4.1588   -17.4865    -0.5612  H       1  <O>11       0.0831
  34 H10       1.9112   -17.1271     0.2397  H       1  <O>11       0.0654
  35 H11       0.2095   -16.7874     0.7647  H       1  <O>11       0.0624
  36 H12      -2.0811   -16.3540     1.4419  H       1  <O>11       0.0618
  37 H13      -3.5045   -14.9238     0.0858  H       1  <O>11       0.0618
  38 H14      -2.6197   -13.9182    -1.9419  H       1  <O>11       0.0618
  39 H15      -0.3340   -14.3326    -2.6224  H       1  <O>11       0.0624
  40 H16       2.4616   -12.5198    -4.3706  H       1  <O>11       0.0656
@<TRIPOS>BOND
     1     1     2    1
     2     2     3    1
     3     3     4    2
     4     3     5    2
     5     3     6    1
     6     6     7   ar
     7     7     8   ar
     8     8     9   ar
     9     9    10   ar
    10    10    11    1
    11    11    12    1
    12    12    13   ar
    13    13    14   ar
    14    14    15   ar
    15    15    16   ar
    16    16    17    1
    17    17    18   ar
    18    18    19   ar
    19    19    20   ar
    20    20    21   ar
    21    21    22   ar
    22    17    22   ar
    23    16    23   ar
    24    12    23   ar
    25    10    24   ar
    26     6    24   ar
    27     1    25    1
    28     1    26    1
    29     1    27    1
    30     2    28    1
    31    11    29    1
    32     7    30    1
    33     8    31    1
    34     9    32    1
    35    14    33    1
    36    15    34    1
    37    18    35    1
    38    19    36    1
    39    20    37    1
    40    21    38    1
    41    22    39    1
    42    24    40    1
@<TRIPOS>MOLECULE
mol69_2_11
 40 42 0 0 0
SMALL
USER_CHARGES
****
VDW energy = -144.71
@<TRIPOS>ATOM
   1 C1        2.8936    -7.6802    -5.8629  C.3     1  <O>11       0.0059
   2 N1        3.6845    -8.8982    -5.7123  N.3     1  <O>11      -0.1930
   3 S1        3.1570    -9.7380    -4.3910  S.O2    1  <O>11       0.0582
   4 O1        3.3260    -8.7960    -3.0330  O.2     1  <O>11      -0.1531
   5 O2        1.5570   -10.1370    -4.5920  O.2     1  <O>11      -0.1531
   6 C2        4.1100   -11.2060    -4.2090  C.ar    1  <O>11       0.1070
   7 C3        5.4910   -11.1070    -4.0270  C.ar    1  <O>11      -0.0352
   8 C4        6.2550   -12.2710    -3.8940  C.ar    1  <O>11      -0.0582
   9 C5        5.6420   -13.5260    -3.9380  C.ar    1  <O>11      -0.0404
  10 C6        4.2560   -13.6090    -4.1160  C.ar    1  <O>11       0.0354
  11 N2        3.6290   -14.9040    -4.1600  N.pl3   1  <O>11      -0.2836
  12 C7        3.6230   -15.7491    -2.9813  C.ar    1  <O>11       0.2200
  13 N3        4.6462   -16.6160    -2.7914  N.ar    1  <O>11      -0.2226
  14 C8        4.6192   -17.3894    -1.6894  C.ar    1  <O>11       0.0332
  15 C9        3.6157   -17.3438    -0.7560  C.ar    1  <O>11      -0.0174
  16 C10       2.6175   -16.4420    -1.0168  C.ar    1  <O>11       0.0760
  17 C11       1.5277   -16.3171    -0.1065  C.ar    1  <O>11       0.0005
  18 C12       1.4752   -17.1122     1.0518  C.ar    1  <O>11      -0.0526
  19 C13       0.3993   -16.9971     1.9390  C.ar    1  <O>11      -0.0611
  20 C14      -0.6302   -16.0889     1.6804  C.ar    1  <O>11      -0.0617
  21 C15      -0.5740   -15.2917     0.5310  C.ar    1  <O>11      -0.0611
  22 C16       0.4956   -15.3969    -0.3566  C.ar    1  <O>11      -0.0526
  23 N4        2.5980   -15.6468    -2.1053  N.ar    1  <O>11      -0.2142
  24 C17       3.4840   -12.4530    -4.2470  C.ar    1  <O>11      -0.0141
  25 H1        3.0048    -7.0623    -4.9718  H       1  <O>11       0.0405
  26 H2        1.8439    -7.9425    -5.9945  H       1  <O>11       0.0405
  27 H3        3.2419    -7.1264    -6.7347  H       1  <O>11       0.0405
  28 H4        3.5805    -9.4763    -6.5461  H       1  <O>11       0.1477
  29 H5        3.1887   -15.2282    -5.0220  H       1  <O>11       0.1550
  30 H6        5.9450   -10.1809    -3.9909  H       1  <O>11       0.0637
  31 H7        7.2763   -12.2027    -3.7627  H       1  <O>11       0.0619
  32 H8        6.2064   -14.3845    -3.8401  H       1  <O>11       0.0636
  33 H9        5.3958   -18.0523    -1.5393  H       1  <O>11       0.0831
  34 H10       3.6125   -17.9455     0.0826  H       1  <O>11       0.0654
  35 H11       2.2337   -17.7838     1.2486  H       1  <O>11       0.0624
  36 H12       0.3662   -17.5846     2.7868  H       1  <O>11       0.0618
  37 H13      -1.4263   -16.0064     2.3318  H       1  <O>11       0.0618
  38 H14      -1.3326   -14.6189     0.3389  H       1  <O>11       0.0618
  39 H15       0.5295   -14.7991    -1.1972  H       1  <O>11       0.0624
  40 H16       2.4616   -12.5198    -4.3706  H       1  <O>11       0.0656
@<TRIPOS>BOND
     1     1     2    1
     2     2     3    1
     3     3     4    2
     4     3     5    2
     5     3     6    1
     6     6     7   ar
     7     7     8   ar
     8     8     9   ar
     9     9    10   ar
    10    10    11    1
    11    11    12    1
    12    12    13   ar
    13    13    14   ar
    14    14    15   ar
    15    15    16   ar
    16    16    17    1
    17    17    18   ar
    18    18    19   ar
    19    19    20   ar
    20    20    21   ar
    21    21    22   ar
    22    17    22   ar
    23    16    23   ar
    24    12    23   ar
    25    10    24   ar
    26     6    24   ar
    27     1    25    1
    28     1    26    1
    29     1    27    1
    30     2    28    1
    31    11    29    1
    32     7    30    1
    33     8    31    1
    34     9    32    1
    35    14    33    1
    36    15    34    1
    37    18    35    1
    38    19    36    1
    39    20    37    1
    40    21    38    1
    41    22    39    1
    42    24    40    1
@<TRIPOS>MOLECULE
mol69_2_12
 40 42 0 0 0
SMALL
USER_CHARGES
****
VDW energy = -144.19
@<TRIPOS>ATOM
   1 C1        2.8936    -7.6802    -5.8629  C.3     1  <O>11       0.0059
   2 N1        3.6845    -8.8982    -5.7123  N.3     1  <O>11      -0.1930
   3 S1        3.1570    -9.7380    -4.3910  S.O2    1  <O>11       0.0582
   4 O1        3.3260    -8.7960    -3.0330  O.2     1  <O>11      -0.1531
   5 O2        1.5570   -10.1370    -4.5920  O.2     1  <O>11      -0.1531
   6 C2        4.1100   -11.2060    -4.2090  C.ar    1  <O>11       0.1070
   7 C3        5.4910   -11.1070    -4.0270  C.ar    1  <O>11      -0.0352
   8 C4        6.2550   -12.2710    -3.8940  C.ar    1  <O>11      -0.0582
   9 C5        5.6420   -13.5260    -3.9380  C.ar    1  <O>11      -0.0404
  10 C6        4.2560   -13.6090    -4.1160  C.ar    1  <O>11       0.0354
  11 N2        3.6290   -14.9040    -4.1600  N.pl3   1  <O>11      -0.2836
  12 C7        3.6230   -15.7491    -2.9813  C.ar    1  <O>11       0.2200
  13 N3        4.7995   -16.2322    -2.5154  N.ar    1  <O>11      -0.2226
  14 C8        4.7688   -17.0137    -1.4193  C.ar    1  <O>11       0.0332
  15 C9        3.6151   -17.3426    -0.7550  C.ar    1  <O>11      -0.0174
  16 C10       2.4668   -16.8154    -1.2852  C.ar    1  <O>11       0.0760
  17 C11       1.2134   -17.0974    -0.6675  C.ar    1  <O>11       0.0005
  18 C12       1.1533   -17.9101     0.4781  C.ar    1  <O>11      -0.0526
  19 C13      -0.0787   -18.1957     1.0772  C.ar    1  <O>11      -0.0611
  20 C14      -1.2581   -17.6731     0.5413  C.ar    1  <O>11      -0.0617
  21 C15      -1.1974   -16.8576    -0.5948  C.ar    1  <O>11      -0.0611
  22 C16       0.0255   -16.5646    -1.1963  C.ar    1  <O>11      -0.0526
  23 N4        2.4445   -16.0294    -2.3803  N.ar    1  <O>11      -0.2142
  24 C17       3.4840   -12.4530    -4.2470  C.ar    1  <O>11      -0.0141
  25 H1        3.0048    -7.0623    -4.9718  H       1  <O>11       0.0405
  26 H2        1.8439    -7.9425    -5.9945  H       1  <O>11       0.0405
  27 H3        3.2419    -7.1264    -6.7347  H       1  <O>11       0.0405
  28 H4        3.5805    -9.4763    -6.5461  H       1  <O>11       0.1477
  29 H5        3.1887   -15.2282    -5.0220  H       1  <O>11       0.1550
  30 H6        5.9450   -10.1809    -3.9909  H       1  <O>11       0.0637
  31 H7        7.2763   -12.2027    -3.7627  H       1  <O>11       0.0619
  32 H8        6.2064   -14.3845    -3.8401  H       1  <O>11       0.0636
  33 H9        5.6620   -17.3852    -1.0596  H       1  <O>11       0.0831
  34 H10       3.6119   -17.9438     0.0838  H       1  <O>11       0.0654
  35 H11       2.0216   -18.2978     0.8790  H       1  <O>11       0.0624
  36 H12      -0.1160   -18.7940     1.9172  H       1  <O>11       0.0618
  37 H13      -2.1675   -17.8867     0.9798  H       1  <O>11       0.0618
  38 H14      -2.0674   -16.4690    -0.9914  H       1  <O>11       0.0618
  39 H15       0.0584   -15.9567    -2.0295  H       1  <O>11       0.0624
  40 H16       2.4616   -12.5198    -4.3706  H       1  <O>11       0.0656
@<TRIPOS>BOND
     1     1     2    1
     2     2     3    1
     3     3     4    2
     4     3     5    2
     5     3     6    1
     6     6     7   ar
     7     7     8   ar
     8     8     9   ar
     9     9    10   ar
    10    10    11    1
    11    11    12    1
    12    12    13   ar
    13    13    14   ar
    14    14    15   ar
    15    15    16   ar
    16    16    17    1
    17    17    18   ar
    18    18    19   ar
    19    19    20   ar
    20    20    21   ar
    21    21    22   ar
    22    17    22   ar
    23    16    23   ar
    24    12    23   ar
    25    10    24   ar
    26     6    24   ar
    27     1    25    1
    28     1    26    1
    29     1    27    1
    30     2    28    1
    31    11    29    1
    32     7    30    1
    33     8    31    1
    34     9    32    1
    35    14    33    1
    36    15    34    1
    37    18    35    1
    38    19    36    1
    39    20    37    1
    40    21    38    1
    41    22    39    1
    42    24    40    1
@<TRIPOS>MOLECULE
mol69_2_13
 40 42 0 0 0
SMALL
USER_CHARGES
****
VDW energy = -144.07
@<TRIPOS>ATOM
   1 C1        2.8936    -7.6802    -5.8629  C.3     1  <O>11       0.0059
   2 N1        3.6845    -8.8982    -5.7123  N.3     1  <O>11      -0.1930
   3 S1        3.1570    -9.7380    -4.3910  S.O2    1  <O>11       0.0582
   4 O1        3.3260    -8.7960    -3.0330  O.2     1  <O>11      -0.1531
   5 O2        1.5570   -10.1370    -4.5920  O.2     1  <O>11      -0.1531
   6 C2        4.1100   -11.2060    -4.2090  C.ar    1  <O>11       0.1070
   7 C3        4.1160   -12.1498    -5.2382  C.ar    1  <O>11      -0.0352
   8 C4        4.8620   -13.3240    -5.0938  C.ar    1  <O>11      -0.0582
   9 C5        5.6011   -13.5515    -3.9299  C.ar    1  <O>11      -0.0404
  10 C6        5.5892   -12.5938    -2.9090  C.ar    1  <O>11       0.0354
  11 N2        6.3527   -12.8323    -1.7122  N.pl3   1  <O>11      -0.2836
  12 C7        6.3554   -11.8511    -0.6441  C.ar    1  <O>11       0.2200
  13 N3        7.2943   -10.8749    -0.6536  N.ar    1  <O>11      -0.2226
  14 C8        7.2762    -9.9749     0.3479  C.ar    1  <O>11       0.0332
  15 C9        6.3615    -9.9960     1.3693  C.ar    1  <O>11      -0.0174
  16 C10       5.4438   -11.0117     1.3091  C.ar    1  <O>11       0.0760
  17 C11       4.4489   -11.1214     2.3241  C.ar    1  <O>11       0.0005
  18 C12       4.4074   -10.1947     3.3806  C.ar    1  <O>11      -0.0526
  19 C13       3.4376   -10.3097     4.3828  C.ar    1  <O>11      -0.0611
  20 C14       2.5021   -11.3462     4.3392  C.ar    1  <O>11      -0.0617
  21 C15       2.5387   -12.2643     3.2831  C.ar    1  <O>11      -0.0611
  22 C16       3.4988   -12.1556     2.2783  C.ar    1  <O>11      -0.0526
  23 N4        5.4206   -11.9374     0.3291  N.ar    1  <O>11      -0.2142
  24 C17       4.8500   -11.4171    -3.0445  C.ar    1  <O>11      -0.0141
  25 H1        3.0048    -7.0623    -4.9718  H       1  <O>11       0.0405
  26 H2        1.8439    -7.9425    -5.9945  H       1  <O>11       0.0405
  27 H3        3.2419    -7.1264    -6.7347  H       1  <O>11       0.0405
  28 H4        3.5805    -9.4763    -6.5461  H       1  <O>11       0.1477
  29 H5        6.8934   -13.6928    -1.6154  H       1  <O>11       0.1550
  30 H6        3.5734   -11.9820    -6.0999  H       1  <O>11       0.0637
  31 H7        4.8667   -14.0258    -5.8504  H       1  <O>11       0.0619
  32 H8        6.1512   -14.4183    -3.8238  H       1  <O>11       0.0636
  33 H9        7.9893    -9.2289     0.3466  H       1  <O>11       0.0831
  34 H10       6.3641    -9.2971     2.1288  H       1  <O>11       0.0654
  35 H11       5.0952    -9.4262     3.4172  H       1  <O>11       0.0624
  36 H12       3.4134    -9.6270     5.1562  H       1  <O>11       0.0618
  37 H13       1.7892   -11.4345     5.0801  H       1  <O>11       0.0618
  38 H14       1.8475   -13.0299     3.2479  H       1  <O>11       0.0618
  39 H15       3.5117   -12.8344     1.5011  H       1  <O>11       0.0624
  40 H16       4.8507   -10.7111    -2.2918  H       1  <O>11       0.0656
@<TRIPOS>BOND
     1     1     2    1
     2     2     3    1
     3     3     4    2
     4     3     5    2
     5     3     6    1
     6     6     7   ar
     7     7     8   ar
     8     8     9   ar
     9     9    10   ar
    10    10    11    1
    11    11    12    1
    12    12    13   ar
    13    13    14   ar
    14    14    15   ar
    15    15    16   ar
    16    16    17    1
    17    17    18   ar
    18    18    19   ar
    19    19    20   ar
    20    20    21   ar
    21    21    22   ar
    22    17    22   ar
    23    16    23   ar
    24    12    23   ar
    25    10    24   ar
    26     6    24   ar
    27     1    25    1
    28     1    26    1
    29     1    27    1
    30     2    28    1
    31    11    29    1
    32     7    30    1
    33     8    31    1
    34     9    32    1
    35    14    33    1
    36    15    34    1
    37    18    35    1
    38    19    36    1
    39    20    37    1
    40    21    38    1
    41    22    39    1
    42    24    40    1
@<TRIPOS>MOLECULE
mol69_2_14
 40 42 0 0 0
SMALL
USER_CHARGES
****
VDW energy = -143.90
@<TRIPOS>ATOM
   1 C1        2.8936    -7.6802    -5.8629  C.3     1  <O>11       0.0059
   2 N1        3.6845    -8.8982    -5.7123  N.3     1  <O>11      -0.1930
   3 S1        3.1570    -9.7380    -4.3910  S.O2    1  <O>11       0.0582
   4 O1        3.3260    -8.7960    -3.0330  O.2     1  <O>11      -0.1531
   5 O2        1.5570   -10.1370    -4.5920  O.2     1  <O>11      -0.1531
   6 C2        4.1100   -11.2060    -4.2090  C.ar    1  <O>11       0.1070
   7 C3        5.4910   -11.1070    -4.0270  C.ar    1  <O>11      -0.0352
   8 C4        6.2550   -12.2710    -3.8940  C.ar    1  <O>11      -0.0582
   9 C5        5.6420   -13.5260    -3.9380  C.ar    1  <O>11      -0.0404
  10 C6        4.2560   -13.6090    -4.1160  C.ar    1  <O>11       0.0354
  11 N2        3.6290   -14.9040    -4.1600  N.pl3   1  <O>11      -0.2836
  12 C7        2.1940   -15.0110    -4.3410  C.ar    1  <O>11       0.2200
  13 N3        1.3950   -15.0263    -3.2475  N.ar    1  <O>11      -0.2226
  14 C8        0.0660   -15.1253    -3.4407  C.ar    1  <O>11       0.0332
  15 C9       -0.5155   -15.2103    -4.6797  C.ar    1  <O>11      -0.0174
  16 C10       0.3572   -15.1873    -5.7359  C.ar    1  <O>11       0.0760
  17 C11      -0.1475   -15.2695    -7.0665  C.ar    1  <O>11       0.0005
  18 C12      -1.5306   -15.3732    -7.2962  C.ar    1  <O>11      -0.0526
  19 C13      -2.0244   -15.4654    -8.6023  C.ar    1  <O>11      -0.0611
  20 C14      -1.1454   -15.4532    -9.6879  C.ar    1  <O>11      -0.0617
  21 C15       0.2312   -15.3421    -9.4595  C.ar    1  <O>11      -0.0611
  22 C16       0.7321   -15.2461    -8.1622  C.ar    1  <O>11      -0.0526
  23 N4        1.6945   -15.0908    -5.5951  N.ar    1  <O>11      -0.2142
  24 C17       3.4840   -12.4530    -4.2470  C.ar    1  <O>11      -0.0141
  25 H1        3.0048    -7.0623    -4.9718  H       1  <O>11       0.0405
  26 H2        1.8439    -7.9425    -5.9945  H       1  <O>11       0.0405
  27 H3        3.2419    -7.1264    -6.7347  H       1  <O>11       0.0405
  28 H4        3.5805    -9.4763    -6.5461  H       1  <O>11       0.1477
  29 H5        4.1950   -15.7480    -4.0630  H       1  <O>11       0.1550
  30 H6        5.9450   -10.1809    -3.9909  H       1  <O>11       0.0637
  31 H7        7.2763   -12.2027    -3.7627  H       1  <O>11       0.0619
  32 H8        6.2064   -14.3845    -3.8401  H       1  <O>11       0.0636
  33 H9       -0.5482   -15.1379    -2.6114  H       1  <O>11       0.0831
  34 H10      -1.5368   -15.2862    -4.8074  H       1  <O>11       0.0654
  35 H11      -2.1847   -15.3814    -6.4980  H       1  <O>11       0.0624
  36 H12      -3.0407   -15.5426    -8.7639  H       1  <O>11       0.0618
  37 H13      -1.5083   -15.5256   -10.6513  H       1  <O>11       0.0618
  38 H14       0.8823   -15.3312   -10.2601  H       1  <O>11       0.0618
  39 H15       1.7484   -15.1579    -8.0065  H       1  <O>11       0.0624
  40 H16       2.4616   -12.5198    -4.3706  H       1  <O>11       0.0656
@<TRIPOS>BOND
     1     1     2    1
     2     2     3    1
     3     3     4    2
     4     3     5    2
     5     3     6    1
     6     6     7   ar
     7     7     8   ar
     8     8     9   ar
     9     9    10   ar
    10    10    11    1
    11    11    12    1
    12    12    13   ar
    13    13    14   ar
    14    14    15   ar
    15    15    16   ar
    16    16    17    1
    17    17    18   ar
    18    18    19   ar
    19    19    20   ar
    20    20    21   ar
    21    21    22   ar
    22    17    22   ar
    23    16    23   ar
    24    12    23   ar
    25    10    24   ar
    26     6    24   ar
    27     1    25    1
    28     1    26    1
    29     1    27    1
    30     2    28    1
    31    11    29    1
    32     7    30    1
    33     8    31    1
    34     9    32    1
    35    14    33    1
    36    15    34    1
    37    18    35    1
    38    19    36    1
    39    20    37    1
    40    21    38    1
    41    22    39    1
    42    24    40    1
@<TRIPOS>MOLECULE
mol69_2_15
 40 42 0 0 0
SMALL
USER_CHARGES
****
VDW energy = -142.94
@<TRIPOS>ATOM
   1 C1        2.8936    -7.6802    -5.8629  C.3     1  <O>11       0.0059
   2 N1        3.6845    -8.8982    -5.7123  N.3     1  <O>11      -0.1930
   3 S1        3.1570    -9.7380    -4.3910  S.O2    1  <O>11       0.0582
   4 O1        3.3260    -8.7960    -3.0330  O.2     1  <O>11      -0.1531
   5 O2        1.5570   -10.1370    -4.5920  O.2     1  <O>11      -0.1531
   6 C2        4.1100   -11.2060    -4.2090  C.ar    1  <O>11       0.1070
   7 C3        5.4910   -11.1070    -4.0270  C.ar    1  <O>11      -0.0352
   8 C4        6.2550   -12.2710    -3.8940  C.ar    1  <O>11      -0.0582
   9 C5        5.6420   -13.5260    -3.9380  C.ar    1  <O>11      -0.0404
  10 C6        4.2560   -13.6090    -4.1160  C.ar    1  <O>11       0.0354
  11 N2        3.6290   -14.9040    -4.1600  N.pl3   1  <O>11      -0.2836
  12 C7        2.1940   -15.0110    -4.3410  C.ar    1  <O>11       0.2200
  13 N3        1.6493   -14.6051    -5.5128  N.ar    1  <O>11      -0.2226
  14 C8        0.3151   -14.7150    -5.6578  C.ar    1  <O>11       0.0332
  15 C9       -0.5143   -15.2142    -4.6865  C.ar    1  <O>11      -0.0174
  16 C10       0.1102   -15.6048    -3.5311  C.ar    1  <O>11       0.0760
  17 C11      -0.6638   -16.1384    -2.4595  C.ar    1  <O>11       0.0005
  18 C12      -2.0584   -16.2644    -2.5850  C.ar    1  <O>11      -0.0526
  19 C13      -2.8188   -16.7776    -1.5284  C.ar    1  <O>11      -0.0611
  20 C14      -2.1963   -17.1703    -0.3411  C.ar    1  <O>11      -0.0617
  21 C15      -0.8068   -17.0521    -0.2191  C.ar    1  <O>11      -0.0611
  22 C16      -0.0407   -16.5453    -1.2676  C.ar    1  <O>11      -0.0526
  23 N4        1.4412   -15.5140    -3.3366  N.ar    1  <O>11      -0.2142
  24 C17       3.4840   -12.4530    -4.2470  C.ar    1  <O>11      -0.0141
  25 H1        3.0048    -7.0623    -4.9718  H       1  <O>11       0.0405
  26 H2        1.8439    -7.9425    -5.9945  H       1  <O>11       0.0405
  27 H3        3.2419    -7.1264    -6.7347  H       1  <O>11       0.0405
  28 H4        3.5805    -9.4763    -6.5461  H       1  <O>11       0.1477
  29 H5        4.1950   -15.7480    -4.0630  H       1  <O>11       0.1550
  30 H6        5.9450   -10.1809    -3.9909  H       1  <O>11       0.0637
  31 H7        7.2763   -12.2027    -3.7627  H       1  <O>11       0.0619
  32 H8        6.2064   -14.3845    -3.8401  H       1  <O>11       0.0636
  33 H9       -0.1061   -14.4070    -6.5482  H       1  <O>11       0.0831
  34 H10      -1.5353   -15.2901    -4.8164  H       1  <O>11       0.0654
  35 H11      -2.5234   -15.9770    -3.4604  H       1  <O>11       0.0624
  36 H12      -3.8423   -16.8663    -1.6265  H       1  <O>11       0.0618
  37 H13      -2.7567   -17.5449     0.4403  H       1  <O>11       0.0618
  38 H14      -0.3446   -17.3433     0.6565  H       1  <O>11       0.0618
  39 H15       0.9837   -16.4691    -1.1685  H       1  <O>11       0.0624
  40 H16       2.4616   -12.5198    -4.3706  H       1  <O>11       0.0656
@<TRIPOS>BOND
     1     1     2    1
     2     2     3    1
     3     3     4    2
     4     3     5    2
     5     3     6    1
     6     6     7   ar
     7     7     8   ar
     8     8     9   ar
     9     9    10   ar
    10    10    11    1
    11    11    12    1
    12    12    13   ar
    13    13    14   ar
    14    14    15   ar
    15    15    16   ar
    16    16    17    1
    17    17    18   ar
    18    18    19   ar
    19    19    20   ar
    20    20    21   ar
    21    21    22   ar
    22    17    22   ar
    23    16    23   ar
    24    12    23   ar
    25    10    24   ar
    26     6    24   ar
    27     1    25    1
    28     1    26    1
    29     1    27    1
    30     2    28    1
    31    11    29    1
    32     7    30    1
    33     8    31    1
    34     9    32    1
    35    14    33    1
    36    15    34    1
    37    18    35    1
    38    19    36    1
    39    20    37    1
    40    21    38    1
    41    22    39    1
    42    24    40    1
@<TRIPOS>MOLECULE
mol69_2_16
 40 42 0 0 0
SMALL
USER_CHARGES
****
VDW energy = -142.34
@<TRIPOS>ATOM
   1 C1        2.8936    -7.6802    -5.8629  C.3     1  <O>11       0.0059
   2 N1        3.6845    -8.8982    -5.7123  N.3     1  <O>11      -0.1930
   3 S1        3.1570    -9.7380    -4.3910  S.O2    1  <O>11       0.0582
   4 O1        3.3260    -8.7960    -3.0330  O.2     1  <O>11      -0.1531
   5 O2        1.5570   -10.1370    -4.5920  O.2     1  <O>11      -0.1531
   6 C2        4.1100   -11.2060    -4.2090  C.ar    1  <O>11       0.1070
   7 C3        5.4910   -11.1070    -4.0270  C.ar    1  <O>11      -0.0352
   8 C4        6.2550   -12.2710    -3.8940  C.ar    1  <O>11      -0.0582
   9 C5        5.6420   -13.5260    -3.9380  C.ar    1  <O>11      -0.0404
  10 C6        4.2560   -13.6090    -4.1160  C.ar    1  <O>11       0.0354
  11 N2        3.6290   -14.9040    -4.1600  N.pl3   1  <O>11      -0.2836
  12 C7        2.1940   -15.0110    -4.3410  C.ar    1  <O>11       0.2200
  13 N3        1.3743   -14.5448    -3.3687  N.ar    1  <O>11      -0.2226
  14 C8        0.0459   -14.6542    -3.5597  C.ar    1  <O>11       0.0332
  15 C9       -0.5154   -15.2093    -4.6811  C.ar    1  <O>11      -0.0174
  16 C10       0.3775   -15.6566    -5.6194  C.ar    1  <O>11       0.0760
  17 C11      -0.1052   -16.2498    -6.8223  C.ar    1  <O>11       0.0005
  18 C12      -1.4873   -16.3759    -7.0470  C.ar    1  <O>11      -0.0526
  19 C13      -1.9602   -16.9688    -8.2231  C.ar    1  <O>11      -0.0611
  20 C14      -1.0610   -17.4381    -9.1836  C.ar    1  <O>11      -0.0617
  21 C15       0.3150   -17.3055    -8.9633  C.ar    1  <O>11      -0.0611
  22 C16       0.7953   -16.7131    -7.7965  C.ar    1  <O>11      -0.0526
  23 N4        1.7151   -15.5711    -5.4748  N.ar    1  <O>11      -0.2142
  24 C17       3.4840   -12.4530    -4.2470  C.ar    1  <O>11      -0.0141
  25 H1        3.0048    -7.0623    -4.9718  H       1  <O>11       0.0405
  26 H2        1.8439    -7.9425    -5.9945  H       1  <O>11       0.0405
  27 H3        3.2419    -7.1264    -6.7347  H       1  <O>11       0.0405
  28 H4        3.5805    -9.4763    -6.5461  H       1  <O>11       0.1477
  29 H5        4.1950   -15.7480    -4.0630  H       1  <O>11       0.1550
  30 H6        5.9450   -10.1809    -3.9909  H       1  <O>11       0.0637
  31 H7        7.2763   -12.2027    -3.7627  H       1  <O>11       0.0619
  32 H8        6.2064   -14.3845    -3.8401  H       1  <O>11       0.0636
  33 H9       -0.5839   -14.3012    -2.8223  H       1  <O>11       0.0831
  34 H10      -1.5367   -15.2848    -4.8090  H       1  <O>11       0.0654
  35 H11      -2.1561   -16.0297    -6.3414  H       1  <O>11       0.0624
  36 H12      -2.9759   -17.0594    -8.3812  H       1  <O>11       0.0618
  37 H13      -1.4087   -17.8794   -10.0492  H       1  <O>11       0.0618
  38 H14       0.9811   -17.6500    -9.6724  H       1  <O>11       0.0618
  39 H15       1.8118   -16.6148    -7.6482  H       1  <O>11       0.0624
  40 H16       2.4616   -12.5198    -4.3706  H       1  <O>11       0.0656
@<TRIPOS>BOND
     1     1     2    1
     2     2     3    1
     3     3     4    2
     4     3     5    2
     5     3     6    1
     6     6     7   ar
     7     7     8   ar
     8     8     9   ar
     9     9    10   ar
    10    10    11    1
    11    11    12    1
    12    12    13   ar
    13    13    14   ar
    14    14    15   ar
    15    15    16   ar
    16    16    17    1
    17    17    18   ar
    18    18    19   ar
    19    19    20   ar
    20    20    21   ar
    21    21    22   ar
    22    17    22   ar
    23    16    23   ar
    24    12    23   ar
    25    10    24   ar
    26     6    24   ar
    27     1    25    1
    28     1    26    1
    29     1    27    1
    30     2    28    1
    31    11    29    1
    32     7    30    1
    33     8    31    1
    34     9    32    1
    35    14    33    1
    36    15    34    1
    37    18    35    1
    38    19    36    1
    39    20    37    1
    40    21    38    1
    41    22    39    1
    42    24    40    1
@<TRIPOS>MOLECULE
mol69_2_17
 40 42 0 0 0
SMALL
USER_CHARGES
****
VDW energy = -141.70
@<TRIPOS>ATOM
   1 C1        2.8936    -7.6802    -5.8629  C.3     1  <O>11       0.0059
   2 N1        3.6845    -8.8982    -5.7123  N.3     1  <O>11      -0.1930
   3 S1        3.1570    -9.7380    -4.3910  S.O2    1  <O>11       0.0582
   4 O1        3.3260    -8.7960    -3.0330  O.2     1  <O>11      -0.1531
   5 O2        1.5570   -10.1370    -4.5920  O.2     1  <O>11      -0.1531
   6 C2        4.1100   -11.2060    -4.2090  C.ar    1  <O>11       0.1070
   7 C3        4.6430   -11.8208    -5.3439  C.ar    1  <O>11      -0.0352
   8 C4        5.3910   -12.9946    -5.2062  C.ar    1  <O>11      -0.0582
   9 C5        5.6089   -13.5479    -3.9417  C.ar    1  <O>11      -0.0404
  10 C6        5.0724   -12.9174    -2.8129  C.ar    1  <O>11       0.0354
  11 N2        5.3002   -13.4909    -1.5124  N.pl3   1  <O>11      -0.2836
  12 C7        4.7550   -12.8512    -0.3304  C.ar    1  <O>11       0.2200
  13 N3        5.2176   -11.6290     0.0256  N.ar    1  <O>11      -0.2226
  14 C8        4.6957   -11.0547     1.1261  C.ar    1  <O>11       0.0332
  15 C9        3.7259   -11.6402     1.8990  C.ar    1  <O>11      -0.0174
  16 C10       3.3085   -12.8743     1.4746  C.ar    1  <O>11       0.0760
  17 C11       2.3024   -13.5671     2.2093  C.ar    1  <O>11       0.0005
  18 C12       1.7406   -12.9900     3.3617  C.ar    1  <O>11      -0.0526
  19 C13       0.7612   -13.6757     4.0889  C.ar    1  <O>11      -0.0611
  20 C14       0.3335   -14.9389     3.6732  C.ar    1  <O>11      -0.0617
  21 C15       0.8874   -15.5101     2.5214  C.ar    1  <O>11      -0.0611
  22 C16       1.8609   -14.8330     1.7886  C.ar    1  <O>11      -0.0526
  23 N4        3.8001   -13.4916     0.3814  N.ar    1  <O>11      -0.2142
  24 C17       4.3266   -11.7439    -2.9393  C.ar    1  <O>11      -0.0141
  25 H1        3.0048    -7.0623    -4.9718  H       1  <O>11       0.0405
  26 H2        1.8439    -7.9425    -5.9945  H       1  <O>11       0.0405
  27 H3        3.2419    -7.1264    -6.7347  H       1  <O>11       0.0405
  28 H4        3.5805    -9.4763    -6.5461  H       1  <O>11       0.1477
  29 H5        5.8466   -14.3484    -1.4219  H       1  <O>11       0.1550
  30 H6        4.4859   -11.4117    -6.2783  H       1  <O>11       0.0637
  31 H7        5.7839   -13.4542    -6.0425  H       1  <O>11       0.0619
  32 H8        6.1607   -14.4143    -3.8409  H       1  <O>11       0.0636
  33 H9        5.0443   -10.1236     1.4028  H       1  <O>11       0.0831
  34 H10       3.3385   -11.1840     2.7398  H       1  <O>11       0.0654
  35 H11       2.0518   -12.0565     3.6726  H       1  <O>11       0.0624
  36 H12       0.3538   -13.2470     4.9346  H       1  <O>11       0.0618
  37 H13      -0.3855   -15.4472     4.2113  H       1  <O>11       0.0618
  38 H14       0.5717   -16.4425     2.2115  H       1  <O>11       0.0618
  39 H15       2.2571   -15.2613     0.9374  H       1  <O>11       0.0624
  40 H16       3.9397   -11.2791    -2.1030  H       1  <O>11       0.0656
@<TRIPOS>BOND
     1     1     2    1
     2     2     3    1
     3     3     4    2
     4     3     5    2
     5     3     6    1
     6     6     7   ar
     7     7     8   ar
     8     8     9   ar
     9     9    10   ar
    10    10    11    1
    11    11    12    1
    12    12    13   ar
    13    13    14   ar
    14    14    15   ar
    15    15    16   ar
    16    16    17    1
    17    17    18   ar
    18    18    19   ar
    19    19    20   ar
    20    20    21   ar
    21    21    22   ar
    22    17    22   ar
    23    16    23   ar
    24    12    23   ar
    25    10    24   ar
    26     6    24   ar
    27     1    25    1
    28     1    26    1
    29     1    27    1
    30     2    28    1
    31    11    29    1
    32     7    30    1
    33     8    31    1
    34     9    32    1
    35    14    33    1
    36    15    34    1
    37    18    35    1
    38    19    36    1
    39    20    37    1
    40    21    38    1
    41    22    39    1
    42    24    40    1
@<TRIPOS>MOLECULE
mol69_2_18
 40 42 0 0 0
SMALL
USER_CHARGES
****
VDW energy = -141.44
@<TRIPOS>ATOM
   1 C1        2.8936    -7.6802    -5.8629  C.3     1  <O>11       0.0059
   2 N1        3.6845    -8.8982    -5.7123  N.3     1  <O>11      -0.1930
   3 S1        3.1570    -9.7380    -4.3910  S.O2    1  <O>11       0.0582
   4 O1        1.5572   -10.1382    -4.5923  O.2     1  <O>11      -0.1531
   5 O2        4.0569   -11.1240    -4.2213  O.2     1  <O>11      -0.1531
   6 C2        3.3359    -8.7416    -2.9517  C.ar    1  <O>11       0.1070
   7 C3        2.6624    -7.5206    -2.8768  C.ar    1  <O>11      -0.0352
   8 C4        2.8106    -6.7190    -1.7403  C.ar    1  <O>11      -0.0582
   9 C5        3.6233    -7.1371    -0.6832  C.ar    1  <O>11      -0.0404
  10 C6        4.2881    -8.3660    -0.7708  C.ar    1  <O>11       0.0354
  11 N2        5.1237    -8.7927     0.3209  N.pl3   1  <O>11      -0.2836
  12 C7        5.8187   -10.0637     0.2505  C.ar    1  <O>11       0.2200
  13 N3        5.2026   -11.1744     0.7208  N.ar    1  <O>11      -0.2226
  14 C8        5.8673   -12.3430     0.6438  C.ar    1  <O>11       0.0332
  15 C9        7.1273   -12.4648     0.1165  C.ar    1  <O>11      -0.0174
  16 C10       7.6837   -11.2985    -0.3393  C.ar    1  <O>11       0.0760
  17 C11       8.9912   -11.3182    -0.9067  C.ar    1  <O>11       0.0005
  18 C12       9.1957   -10.9019    -2.2339  C.ar    1  <O>11      -0.0526
  19 C13      10.4777   -10.9323    -2.7939  C.ar    1  <O>11      -0.0611
  20 C14      11.5645   -11.3755    -2.0364  C.ar    1  <O>11      -0.0617
  21 C15      11.3622   -11.7827    -0.7124  C.ar    1  <O>11      -0.0611
  22 C16      10.0893   -11.7524    -0.1450  C.ar    1  <O>11      -0.0526
  23 N4        7.0603   -10.1044    -0.2836  N.ar    1  <O>11      -0.2142
  24 C17       4.1446    -9.1748    -1.8997  C.ar    1  <O>11      -0.0141
  25 H1        3.0048    -7.0623    -4.9718  H       1  <O>11       0.0405
  26 H2        1.8439    -7.9425    -5.9945  H       1  <O>11       0.0405
  27 H3        3.2419    -7.1264    -6.7347  H       1  <O>11       0.0405
  28 H4        3.5805    -9.4763    -6.5461  H       1  <O>11       0.1477
  29 H5        5.2265    -8.2004     1.1460  H       1  <O>11       0.1550
  30 H6        2.0591    -7.2117    -3.6551  H       1  <O>11       0.0637
  31 H7        2.3174    -5.8144    -1.6821  H       1  <O>11       0.0619
  32 H8        3.7325    -6.5450     0.1550  H       1  <O>11       0.0636
  33 H9        5.4033   -13.1928     1.0009  H       1  <O>11       0.0831
  34 H10       7.6210   -13.3697     0.0666  H       1  <O>11       0.0654
  35 H11       8.3966   -10.5723    -2.7977  H       1  <O>11       0.0624
  36 H12      10.6207   -10.6266    -3.7690  H       1  <O>11       0.0618
  37 H13      12.5097   -11.4025    -2.4498  H       1  <O>11       0.0618
  38 H14      12.1639   -12.1089    -0.1504  H       1  <O>11       0.0618
  39 H15       9.9535   -12.0487     0.8342  H       1  <O>11       0.0624
  40 H16       4.6311   -10.0832    -1.9558  H       1  <O>11       0.0656
@<TRIPOS>BOND
     1     1     2    1
     2     2     3    1
     3     3     4    2
     4     3     5    2
     5     3     6    1
     6     6     7   ar
     7     7     8   ar
     8     8     9   ar
     9     9    10   ar
    10    10    11    1
    11    11    12    1
    12    12    13   ar
    13    13    14   ar
    14    14    15   ar
    15    15    16   ar
    16    16    17    1
    17    17    18   ar
    18    18    19   ar
    19    19    20   ar
    20    20    21   ar
    21    21    22   ar
    22    17    22   ar
    23    16    23   ar
    24    12    23   ar
    25    10    24   ar
    26     6    24   ar
    27     1    25    1
    28     1    26    1
    29     1    27    1
    30     2    28    1
    31    11    29    1
    32     7    30    1
    33     8    31    1
    34     9    32    1
    35    14    33    1
    36    15    34    1
    37    18    35    1
    38    19    36    1
    39    20    37    1
    40    21    38    1
    41    22    39    1
    42    24    40    1
@<TRIPOS>MOLECULE
mol69_2_19
 40 42 0 0 0
SMALL
USER_CHARGES
****
VDW energy = -141.01
@<TRIPOS>ATOM
   1 C1        2.8936    -7.6802    -5.8629  C.3     1  <O>11       0.0059
   2 N1        3.6845    -8.8982    -5.7123  N.3     1  <O>11      -0.1930
   3 S1        3.1570    -9.7380    -4.3910  S.O2    1  <O>11       0.0582
   4 O1        4.0577   -11.1235    -4.2202  O.2     1  <O>11      -0.1531
   5 O2        3.3274    -8.7964    -3.0331  O.2     1  <O>11      -0.1531
   6 C2        1.4624   -10.1623    -4.6026  C.ar    1  <O>11       0.1070
   7 C3        1.0861   -10.9550    -5.6889  C.ar    1  <O>11      -0.0352
   8 C4       -0.2611   -11.2851    -5.8688  C.ar    1  <O>11      -0.0582
   9 C5       -1.2256   -10.8296    -4.9660  C.ar    1  <O>11      -0.0404
  10 C6       -0.8323   -10.0400    -3.8790  C.ar    1  <O>11       0.0354
  11 N2       -1.8294    -9.5738    -2.9514  N.pl3   1  <O>11      -0.2836
  12 C7       -2.8450    -8.6346    -3.3871  C.ar    1  <O>11       0.2200
  13 N3       -2.4688    -7.3860    -3.7533  N.ar    1  <O>11      -0.2226
  14 C8       -3.4293    -6.5320    -4.1551  C.ar    1  <O>11       0.0332
  15 C9       -4.7596    -6.8602    -4.2125  C.ar    1  <O>11      -0.0174
  16 C10      -5.0613    -8.1403    -3.8280  C.ar    1  <O>11       0.0760
  17 C11      -6.4169    -8.5805    -3.8524  C.ar    1  <O>11       0.0005
  18 C12      -7.4390    -7.7092    -4.2680  C.ar    1  <O>11      -0.0526
  19 C13      -8.7708    -8.1385    -4.2807  C.ar    1  <O>11      -0.0611
  20 C14      -9.0937    -9.4377    -3.8818  C.ar    1  <O>11      -0.0617
  21 C15      -8.0751   -10.3077    -3.4753  C.ar    1  <O>11      -0.0611
  22 C16      -6.7452    -9.8901    -3.4628  C.ar    1  <O>11      -0.0526
  23 N4       -4.1372    -9.0318    -3.4171  N.ar    1  <O>11      -0.2142
  24 C17       0.5103    -9.7072    -3.6890  C.ar    1  <O>11      -0.0141
  25 H1        3.0048    -7.0623    -4.9718  H       1  <O>11       0.0405
  26 H2        1.8439    -7.9425    -5.9945  H       1  <O>11       0.0405
  27 H3        3.2419    -7.1264    -6.7347  H       1  <O>11       0.0405
  28 H4        3.5805    -9.4763    -6.5461  H       1  <O>11       0.1477
  29 H5       -1.8212    -9.9042    -1.9855  H       1  <O>11       0.1550
  30 H6        1.7975   -11.2950    -6.3548  H       1  <O>11       0.0637
  31 H7       -0.5442   -11.8678    -6.6720  H       1  <O>11       0.0619
  32 H8       -2.2195   -11.0734    -5.0995  H       1  <O>11       0.0636
  33 H9       -3.1492    -5.5790    -4.4350  H       1  <O>11       0.0831
  34 H10      -5.4815    -6.1911    -4.5230  H       1  <O>11       0.0654
  35 H11      -7.2060    -6.7488    -4.5650  H       1  <O>11       0.0624
  36 H12      -9.5164    -7.4936    -4.5857  H       1  <O>11       0.0618
  37 H13     -10.0761    -9.7539    -3.8866  H       1  <O>11       0.0618
  38 H14      -8.3111   -11.2685    -3.1818  H       1  <O>11       0.0618
  39 H15      -6.0021   -10.5425    -3.1676  H       1  <O>11       0.0624
  40 H16       0.7956    -9.1309    -2.8818  H       1  <O>11       0.0656
@<TRIPOS>BOND
     1     1     2    1
     2     2     3    1
     3     3     4    2
     4     3     5    2
     5     3     6    1
     6     6     7   ar
     7     7     8   ar
     8     8     9   ar
     9     9    10   ar
    10    10    11    1
    11    11    12    1
    12    12    13   ar
    13    13    14   ar
    14    14    15   ar
    15    15    16   ar
    16    16    17    1
    17    17    18   ar
    18    18    19   ar
    19    19    20   ar
    20    20    21   ar
    21    21    22   ar
    22    17    22   ar
    23    16    23   ar
    24    12    23   ar
    25    10    24   ar
    26     6    24   ar
    27     1    25    1
    28     1    26    1
    29     1    27    1
    30     2    28    1
    31    11    29    1
    32     7    30    1
    33     8    31    1
    34     9    32    1
    35    14    33    1
    36    15    34    1
    37    18    35    1
    38    19    36    1
    39    20    37    1
    40    21    38    1
    41    22    39    1
    42    24    40    1
@<TRIPOS>MOLECULE
mol69_2_20
 40 42 0 0 0
SMALL
USER_CHARGES
****
VDW energy = -140.09
@<TRIPOS>ATOM
   1 C1        2.8936    -7.6802    -5.8629  C.3     1  <O>11       0.0059
   2 N1        3.6845    -8.8982    -5.7123  N.3     1  <O>11      -0.1930
   3 S1        3.1570    -9.7380    -4.3910  S.O2    1  <O>11       0.0582
   4 O1        4.0577   -11.1235    -4.2202  O.2     1  <O>11      -0.1531
   5 O2        3.3274    -8.7964    -3.0331  O.2     1  <O>11      -0.1531
   6 C2        1.4624   -10.1623    -4.6026  C.ar    1  <O>11       0.1070
   7 C3        1.0861   -10.9550    -5.6889  C.ar    1  <O>11      -0.0352
   8 C4       -0.2611   -11.2851    -5.8688  C.ar    1  <O>11      -0.0582
   9 C5       -1.2256   -10.8296    -4.9660  C.ar    1  <O>11      -0.0404
  10 C6       -0.8323   -10.0400    -3.8790  C.ar    1  <O>11       0.0354
  11 N2       -1.8294    -9.5738    -2.9514  N.pl3   1  <O>11      -0.2836
  12 C7       -2.8450    -8.6346    -3.3871  C.ar    1  <O>11       0.2200
  13 N3       -2.5988    -7.3070    -3.2802  N.ar    1  <O>11      -0.2226
  14 C8       -3.5562    -6.4544    -3.6921  C.ar    1  <O>11       0.0332
  15 C9       -4.7592    -6.8592    -4.2112  C.ar    1  <O>11      -0.0174
  16 C10      -4.9337    -8.2160    -4.2887  C.ar    1  <O>11       0.0760
  17 C11      -6.1508    -8.7393    -4.8149  C.ar    1  <O>11       0.0005
  18 C12      -7.1665    -7.8713    -5.2523  C.ar    1  <O>11      -0.0526
  19 C13      -8.3655    -8.3857    -5.7581  C.ar    1  <O>11      -0.0611
  20 C14      -8.5607    -9.7669    -5.8334  C.ar    1  <O>11      -0.0617
  21 C15      -7.5463   -10.6312    -5.4051  C.ar    1  <O>11      -0.0611
  22 C16      -6.3471   -10.1279    -4.9032  C.ar    1  <O>11      -0.0526
  23 N4       -4.0072    -9.1101    -3.8888  N.ar    1  <O>11      -0.2142
  24 C17       0.5103    -9.7072    -3.6890  C.ar    1  <O>11      -0.0141
  25 H1        3.0048    -7.0623    -4.9718  H       1  <O>11       0.0405
  26 H2        1.8439    -7.9425    -5.9945  H       1  <O>11       0.0405
  27 H3        3.2419    -7.1264    -6.7347  H       1  <O>11       0.0405
  28 H4        3.5805    -9.4763    -6.5461  H       1  <O>11       0.1477
  29 H5       -1.8212    -9.9042    -1.9855  H       1  <O>11       0.1550
  30 H6        1.7975   -11.2950    -6.3548  H       1  <O>11       0.0637
  31 H7       -0.5442   -11.8678    -6.6720  H       1  <O>11       0.0619
  32 H8       -2.2195   -11.0734    -5.0995  H       1  <O>11       0.0636
  33 H9       -3.3748    -5.4415    -3.6128  H       1  <O>11       0.0831
  34 H10      -5.4811    -6.1900    -4.5213  H       1  <O>11       0.0654
  35 H11      -7.0272    -6.8500    -5.2002  H       1  <O>11       0.0624
  36 H12      -9.1076    -7.7431    -6.0763  H       1  <O>11       0.0618
  37 H13      -9.4463   -10.1473    -6.2022  H       1  <O>11       0.0618
  38 H14      -7.6877   -11.6519    -5.4614  H       1  <O>11       0.0618
  39 H15      -5.6039   -10.7749    -4.5967  H       1  <O>11       0.0624
  40 H16       0.7956    -9.1309    -2.8818  H       1  <O>11       0.0656
@<TRIPOS>BOND
     1     1     2    1
     2     2     3    1
     3     3     4    2
     4     3     5    2
     5     3     6    1
     6     6     7   ar
     7     7     8   ar
     8     8     9   ar
     9     9    10   ar
    10    10    11    1
    11    11    12    1
    12    12    13   ar
    13    13    14   ar
    14    14    15   ar
    15    15    16   ar
    16    16    17    1
    17    17    18   ar
    18    18    19   ar
    19    19    20   ar
    20    20    21   ar
    21    21    22   ar
    22    17    22   ar
    23    16    23   ar
    24    12    23   ar
    25    10    24   ar
    26     6    24   ar
    27     1    25    1
    28     1    26    1
    29     1    27    1
    30     2    28    1
    31    11    29    1
    32     7    30    1
    33     8    31    1
    34     9    32    1
    35    14    33    1
    36    15    34    1
    37    18    35    1
    38    19    36    1
    39    20    37    1
    40    21    38    1
    41    22    39    1
    42    24    40    1
@<TRIPOS>MOLECULE
mol69_2_21
 40 42 0 0 0
SMALL
USER_CHARGES
****
VDW energy = -139.63
@<TRIPOS>ATOM
   1 C1        2.8936    -7.6802    -5.8629  C.3     1  <O>11       0.0059
   2 N1        3.6845    -8.8982    -5.7123  N.3     1  <O>11      -0.1930
   3 S1        3.1570    -9.7380    -4.3910  S.O2    1  <O>11       0.0582
   4 O1        4.0577   -11.1235    -4.2202  O.2     1  <O>11      -0.1531
   5 O2        3.3274    -8.7964    -3.0331  O.2     1  <O>11      -0.1531
   6 C2        1.4624   -10.1623    -4.6026  C.ar    1  <O>11       0.1070
   7 C3        1.0861   -10.9550    -5.6889  C.ar    1  <O>11      -0.0352
   8 C4       -0.2611   -11.2851    -5.8688  C.ar    1  <O>11      -0.0582
   9 C5       -1.2256   -10.8296    -4.9660  C.ar    1  <O>11      -0.0404
  10 C6       -0.8323   -10.0400    -3.8790  C.ar    1  <O>11       0.0354
  11 N2       -1.8294    -9.5738    -2.9514  N.pl3   1  <O>11      -0.2836
  12 C7       -2.5510   -10.5208    -2.1232  C.ar    1  <O>11       0.2200
  13 N3       -3.7069   -11.0512    -2.5893  N.ar    1  <O>11      -0.2226
  14 C8       -4.3585   -11.9289    -1.8030  C.ar    1  <O>11       0.0332
  15 C9       -3.9141   -12.3107    -0.5631  C.ar    1  <O>11      -0.0174
  16 C10      -2.7384   -11.7327    -0.1618  C.ar    1  <O>11       0.0760
  17 C11      -2.1911   -12.0641     1.1120  C.ar    1  <O>11       0.0005
  18 C12      -2.8510   -12.9777     1.9525  C.ar    1  <O>11      -0.0526
  19 C13      -2.3190   -13.2939     3.2075  C.ar    1  <O>11      -0.0611
  20 C14      -1.1264   -12.7044     3.6335  C.ar    1  <O>11      -0.0617
  21 C15      -0.4653   -11.8005     2.7934  C.ar    1  <O>11      -0.0611
  22 C16      -0.9857   -11.4823     1.5400  C.ar    1  <O>11      -0.0526
  23 N4       -2.0494   -10.8485    -0.9109  N.ar    1  <O>11      -0.2142
  24 C17       0.5103    -9.7072    -3.6890  C.ar    1  <O>11      -0.0141
  25 H1        3.0048    -7.0623    -4.9718  H       1  <O>11       0.0405
  26 H2        1.8439    -7.9425    -5.9945  H       1  <O>11       0.0405
  27 H3        3.2419    -7.1264    -6.7347  H       1  <O>11       0.0405
  28 H4        3.5805    -9.4763    -6.5461  H       1  <O>11       0.1477
  29 H5       -2.0292    -8.5755    -2.8768  H       1  <O>11       0.1550
  30 H6        1.7975   -11.2950    -6.3548  H       1  <O>11       0.0637
  31 H7       -0.5442   -11.8678    -6.6720  H       1  <O>11       0.0619
  32 H8       -2.2195   -11.0734    -5.0995  H       1  <O>11       0.0636
  33 H9       -5.2400   -12.3363    -2.1524  H       1  <O>11       0.0831
  34 H10      -4.4283   -12.9849     0.0253  H       1  <O>11       0.0654
  35 H11      -3.7317   -13.4172     1.6424  H       1  <O>11       0.0624
  36 H12      -2.8091   -13.9643     3.8201  H       1  <O>11       0.0618
  37 H13      -0.7355   -12.9335     4.5607  H       1  <O>11       0.0618
  38 H14       0.4169   -11.3651     3.1053  H       1  <O>11       0.0618
  39 H15      -0.4860   -10.8197     0.9267  H       1  <O>11       0.0624
  40 H16       0.7956    -9.1309    -2.8818  H       1  <O>11       0.0656
@<TRIPOS>BOND
     1     1     2    1
     2     2     3    1
     3     3     4    2
     4     3     5    2
     5     3     6    1
     6     6     7   ar
     7     7     8   ar
     8     8     9   ar
     9     9    10   ar
    10    10    11    1
    11    11    12    1
    12    12    13   ar
    13    13    14   ar
    14    14    15   ar
    15    15    16   ar
    16    16    17    1
    17    17    18   ar
    18    18    19   ar
    19    19    20   ar
    20    20    21   ar
    21    21    22   ar
    22    17    22   ar
    23    16    23   ar
    24    12    23   ar
    25    10    24   ar
    26     6    24   ar
    27     1    25    1
    28     1    26    1
    29     1    27    1
    30     2    28    1
    31    11    29    1
    32     7    30    1
    33     8    31    1
    34     9    32    1
    35    14    33    1
    36    15    34    1
    37    18    35    1
    38    19    36    1
    39    20    37    1
    40    21    38    1
    41    22    39    1
    42    24    40    1
@<TRIPOS>MOLECULE
mol69_2_22
 40 42 0 0 0
SMALL
USER_CHARGES
****
VDW energy = -137.42
@<TRIPOS>ATOM
   1 C1        2.8936    -7.6802    -5.8629  C.3     1  <O>11       0.0059
   2 N1        3.6845    -8.8982    -5.7123  N.3     1  <O>11      -0.1930
   3 S1        3.1570    -9.7380    -4.3910  S.O2    1  <O>11       0.0582
   4 O1        4.0577   -11.1235    -4.2202  O.2     1  <O>11      -0.1531
   5 O2        3.3274    -8.7964    -3.0331  O.2     1  <O>11      -0.1531
   6 C2        1.4624   -10.1623    -4.6026  C.ar    1  <O>11       0.1070
   7 C3        1.0861   -10.9550    -5.6889  C.ar    1  <O>11      -0.0352
   8 C4       -0.2611   -11.2851    -5.8688  C.ar    1  <O>11      -0.0582
   9 C5       -1.2256   -10.8296    -4.9660  C.ar    1  <O>11      -0.0404
  10 C6       -0.8323   -10.0400    -3.8790  C.ar    1  <O>11       0.0354
  11 N2       -1.8294    -9.5738    -2.9514  N.pl3   1  <O>11      -0.2836
  12 C7       -1.4418    -8.7569    -1.8175  C.ar    1  <O>11       0.2200
  13 N3       -0.6653    -9.3030    -0.8513  N.ar    1  <O>11      -0.2226
  14 C8       -0.3175    -8.5247     0.1911  C.ar    1  <O>11       0.0332
  15 C9       -0.7063    -7.2163     0.3230  C.ar    1  <O>11      -0.0174
  16 C10      -1.4885    -6.7353    -0.6941  C.ar    1  <O>11       0.0760
  17 C11      -1.9450    -5.3856    -0.6517  C.ar    1  <O>11       0.0005
  18 C12      -1.5961    -4.5515     0.4250  C.ar    1  <O>11      -0.0526
  19 C13      -2.0541    -3.2300     0.4716  C.ar    1  <O>11      -0.0611
  20 C14      -2.8605    -2.7297    -0.5535  C.ar    1  <O>11      -0.0617
  21 C15      -3.2015    -3.5579    -1.6294  C.ar    1  <O>11      -0.0611
  22 C16      -2.7470    -4.8745    -1.6862  C.ar    1  <O>11      -0.0526
  23 N4       -1.8646    -7.4738    -1.7574  N.ar    1  <O>11      -0.2142
  24 C17       0.5103    -9.7072    -3.6890  C.ar    1  <O>11      -0.0141
  25 H1        3.0048    -7.0623    -4.9718  H       1  <O>11       0.0405
  26 H2        1.8439    -7.9425    -5.9945  H       1  <O>11       0.0405
  27 H3        3.2419    -7.1264    -6.7347  H       1  <O>11       0.0405
  28 H4        3.5805    -9.4763    -6.5461  H       1  <O>11       0.1477
  29 H5       -2.8104    -9.8191    -3.0914  H       1  <O>11       0.1550
  30 H6        1.7975   -11.2950    -6.3548  H       1  <O>11       0.0637
  31 H7       -0.5442   -11.8678    -6.6720  H       1  <O>11       0.0619
  32 H8       -2.2195   -11.0734    -5.0995  H       1  <O>11       0.0636
  33 H9        0.2737    -8.9351     0.9307  H       1  <O>11       0.0831
  34 H10      -0.4297    -6.6357     1.1301  H       1  <O>11       0.0654
  35 H11      -0.9996    -4.9155     1.1844  H       1  <O>11       0.0624
  36 H12      -1.7955    -2.6235     1.2653  H       1  <O>11       0.0618
  37 H13      -3.2024    -1.7567    -0.5179  H       1  <O>11       0.0618
  38 H14      -3.7957    -3.1898    -2.3887  H       1  <O>11       0.0618
  39 H15      -2.9993    -5.4735    -2.4877  H       1  <O>11       0.0624
  40 H16       0.7956    -9.1309    -2.8818  H       1  <O>11       0.0656
@<TRIPOS>BOND
     1     1     2    1
     2     2     3    1
     3     3     4    2
     4     3     5    2
     5     3     6    1
     6     6     7   ar
     7     7     8   ar
     8     8     9   ar
     9     9    10   ar
    10    10    11    1
    11    11    12    1
    12    12    13   ar
    13    13    14   ar
    14    14    15   ar
    15    15    16   ar
    16    16    17    1
    17    17    18   ar
    18    18    19   ar
    19    19    20   ar
    20    20    21   ar
    21    21    22   ar
    22    17    22   ar
    23    16    23   ar
    24    12    23   ar
    25    10    24   ar
    26     6    24   ar
    27     1    25    1
    28     1    26    1
    29     1    27    1
    30     2    28    1
    31    11    29    1
    32     7    30    1
    33     8    31    1
    34     9    32    1
    35    14    33    1
    36    15    34    1
    37    18    35    1
    38    19    36    1
    39    20    37    1
    40    21    38    1
    41    22    39    1
    42    24    40    1
@<TRIPOS>MOLECULE
mol69_2_23
 40 42 0 0 0
SMALL
USER_CHARGES
****
VDW energy = -132.73
@<TRIPOS>ATOM
   1 C1        2.8936    -7.6802    -5.8629  C.3     1  <O>11       0.0059
   2 N1        3.6845    -8.8982    -5.7123  N.3     1  <O>11      -0.1930
   3 S1        3.1570    -9.7380    -4.3910  S.O2    1  <O>11       0.0582
   4 O1        4.0577   -11.1235    -4.2202  O.2     1  <O>11      -0.1531
   5 O2        3.3274    -8.7964    -3.0331  O.2     1  <O>11      -0.1531
   6 C2        1.4624   -10.1623    -4.6026  C.ar    1  <O>11       0.1070
   7 C3        0.8064   -10.8798    -3.6001  C.ar    1  <O>11      -0.0352
   8 C4       -0.5371   -11.2302    -3.7684  C.ar    1  <O>11      -0.0582
   9 C5       -1.2221   -10.8619    -4.9294  C.ar    1  <O>11      -0.0404
  10 C6       -0.5524   -10.1384    -5.9233  C.ar    1  <O>11       0.0354
  11 N2       -1.2624    -9.7607    -7.1171  N.pl3   1  <O>11      -0.2836
  12 C7       -1.7272   -10.7790    -8.0393  C.ar    1  <O>11       0.2200
  13 N3       -0.9108   -11.1735    -9.0456  N.ar    1  <O>11      -0.2226
  14 C8       -1.3638   -12.1209    -9.8885  C.ar    1  <O>11       0.0332
  15 C9       -2.6007   -12.7030    -9.7802  C.ar    1  <O>11      -0.0174
  16 C10      -3.3674   -12.2530    -8.7375  C.ar    1  <O>11       0.0760
  17 C11      -4.6703   -12.7958    -8.5377  C.ar    1  <O>11       0.0005
  18 C12      -4.8511   -13.9260    -7.7213  C.ar    1  <O>11      -0.0526
  19 C13      -6.1290   -14.4651    -7.5348  C.ar    1  <O>11      -0.0611
  20 C14      -7.2349   -13.8819    -8.1578  C.ar    1  <O>11      -0.0617
  21 C15      -7.0559   -12.7519    -8.9644  C.ar    1  <O>11      -0.0611
  22 C16      -5.7873   -12.2058    -9.1531  C.ar    1  <O>11      -0.0526
  23 N4       -2.9604   -11.3066    -7.8679  N.ar    1  <O>11      -0.2142
  24 C17       0.7879    -9.7813    -5.7637  C.ar    1  <O>11      -0.0141
  25 H1        3.0048    -7.0623    -4.9718  H       1  <O>11       0.0405
  26 H2        1.8439    -7.9425    -5.9945  H       1  <O>11       0.0405
  27 H3        3.2419    -7.1264    -6.7347  H       1  <O>11       0.0405
  28 H4        3.5805    -9.4763    -6.5461  H       1  <O>11       0.1477
  29 H5       -1.4385    -8.7748    -7.3152  H       1  <O>11       0.1550
  30 H6        1.3098   -11.1498    -2.7406  H       1  <O>11       0.0637
  31 H7       -1.0249   -11.7633    -3.0317  H       1  <O>11       0.0619
  32 H8       -2.2134   -11.1211    -5.0531  H       1  <O>11       0.0636
  33 H9       -0.7466   -12.4254   -10.6575  H       1  <O>11       0.0831
  34 H10      -2.9304   -13.4278   -10.4369  H       1  <O>11       0.0654
  35 H11      -4.0378   -14.3601    -7.2576  H       1  <O>11       0.0624
  36 H12      -6.2546   -15.2956    -6.9354  H       1  <O>11       0.0618
  37 H13      -8.1771   -14.2813    -8.0245  H       1  <O>11       0.0618
  38 H14      -7.8718   -12.3184    -9.4242  H       1  <O>11       0.0618
  39 H15      -5.6686   -11.3685    -9.7446  H       1  <O>11       0.0624
  40 H16       1.2746    -9.2415    -6.4963  H       1  <O>11       0.0656
@<TRIPOS>BOND
     1     1     2    1
     2     2     3    1
     3     3     4    2
     4     3     5    2
     5     3     6    1
     6     6     7   ar
     7     7     8   ar
     8     8     9   ar
     9     9    10   ar
    10    10    11    1
    11    11    12    1
    12    12    13   ar
    13    13    14   ar
    14    14    15   ar
    15    15    16   ar
    16    16    17    1
    17    17    18   ar
    18    18    19   ar
    19    19    20   ar
    20    20    21   ar
    21    21    22   ar
    22    17    22   ar
    23    16    23   ar
    24    12    23   ar
    25    10    24   ar
    26     6    24   ar
    27     1    25    1
    28     1    26    1
    29     1    27    1
    30     2    28    1
    31    11    29    1
    32     7    30    1
    33     8    31    1
    34     9    32    1
    35    14    33    1
    36    15    34    1
    37    18    35    1
    38    19    36    1
    39    20    37    1
    40    21    38    1
    41    22    39    1
    42    24    40    1
@<TRIPOS>MOLECULE
mol69_2_24
 40 42 0 0 0
SMALL
USER_CHARGES
****
VDW energy = -130.32
@<TRIPOS>ATOM
   1 C1        2.8936    -7.6802    -5.8629  C.3     1  <O>11       0.0059
   2 N1        3.6845    -8.8982    -5.7123  N.3     1  <O>11      -0.1930
   3 S1        3.1570    -9.7380    -4.3910  S.O2    1  <O>11       0.0582
   4 O1        1.5572   -10.1382    -4.5923  O.2     1  <O>11      -0.1531
   5 O2        4.0569   -11.1240    -4.2213  O.2     1  <O>11      -0.1531
   6 C2        3.3359    -8.7416    -2.9517  C.ar    1  <O>11       0.1070
   7 C3        2.6624    -7.5206    -2.8768  C.ar    1  <O>11      -0.0352
   8 C4        2.8106    -6.7190    -1.7403  C.ar    1  <O>11      -0.0582
   9 C5        3.6233    -7.1371    -0.6832  C.ar    1  <O>11      -0.0404
  10 C6        4.2881    -8.3660    -0.7708  C.ar    1  <O>11       0.0354
  11 N2        5.1237    -8.7927     0.3209  N.pl3   1  <O>11      -0.2836
  12 C7        5.8187   -10.0637     0.2505  C.ar    1  <O>11       0.2200
  13 N3        5.2026   -11.1744     0.7208  N.ar    1  <O>11      -0.2226
  14 C8        5.8673   -12.3430     0.6438  C.ar    1  <O>11       0.0332
  15 C9        7.1273   -12.4648     0.1165  C.ar    1  <O>11      -0.0174
  16 C10       7.6837   -11.2985    -0.3393  C.ar    1  <O>11       0.0760
  17 C11       8.9912   -11.3182    -0.9067  C.ar    1  <O>11       0.0005
  18 C12       9.7069   -12.5248    -0.9995  C.ar    1  <O>11      -0.0526
  19 C13      10.9949   -12.5414    -1.5461  C.ar    1  <O>11      -0.0611
  20 C14      11.5782   -11.3581    -2.0055  C.ar    1  <O>11      -0.0617
  21 C15      10.8625   -10.1580    -1.9202  C.ar    1  <O>11      -0.0611
  22 C16       9.5775   -10.1323    -1.3805  C.ar    1  <O>11      -0.0526
  23 N4        7.0603   -10.1044    -0.2836  N.ar    1  <O>11      -0.2142
  24 C17       4.1446    -9.1748    -1.8997  C.ar    1  <O>11      -0.0141
  25 H1        3.0048    -7.0623    -4.9718  H       1  <O>11       0.0405
  26 H2        1.8439    -7.9425    -5.9945  H       1  <O>11       0.0405
  27 H3        3.2419    -7.1264    -6.7347  H       1  <O>11       0.0405
  28 H4        3.5805    -9.4763    -6.5461  H       1  <O>11       0.1477
  29 H5        5.2265    -8.2004     1.1460  H       1  <O>11       0.1550
  30 H6        2.0591    -7.2117    -3.6551  H       1  <O>11       0.0637
  31 H7        2.3174    -5.8144    -1.6821  H       1  <O>11       0.0619
  32 H8        3.7325    -6.5450     0.1550  H       1  <O>11       0.0636
  33 H9        5.4033   -13.1928     1.0009  H       1  <O>11       0.0831
  34 H10       7.6210   -13.3697     0.0666  H       1  <O>11       0.0654
  35 H11       9.2804   -13.4022    -0.6628  H       1  <O>11       0.0624
  36 H12      11.5154   -13.4302    -1.6101  H       1  <O>11       0.0618
  37 H13      12.5297   -11.3686    -2.4048  H       1  <O>11       0.0618
  38 H14      11.2908    -9.2829    -2.2606  H       1  <O>11       0.0618
  39 H15       9.0570    -9.2427    -1.3291  H       1  <O>11       0.0624
  40 H16       4.6311   -10.0832    -1.9558  H       1  <O>11       0.0656
@<TRIPOS>BOND
     1     1     2    1
     2     2     3    1
     3     3     4    2
     4     3     5    2
     5     3     6    1
     6     6     7   ar
     7     7     8   ar
     8     8     9   ar
     9     9    10   ar
    10    10    11    1
    11    11    12    1
    12    12    13   ar
    13    13    14   ar
    14    14    15   ar
    15    15    16   ar
    16    16    17    1
    17    17    18   ar
    18    18    19   ar
    19    19    20   ar
    20    20    21   ar
    21    21    22   ar
    22    17    22   ar
    23    16    23   ar
    24    12    23   ar
    25    10    24   ar
    26     6    24   ar
    27     1    25    1
    28     1    26    1
    29     1    27    1
    30     2    28    1
    31    11    29    1
    32     7    30    1
    33     8    31    1
    34     9    32    1
    35    14    33    1
    36    15    34    1
    37    18    35    1
    38    19    36    1
    39    20    37    1
    40    21    38    1
    41    22    39    1
    42    24    40    1
@<TRIPOS>MOLECULE
mol69_2_25
 40 42 0 0 0
SMALL
USER_CHARGES
****
VDW energy = -130.22
@<TRIPOS>ATOM
   1 C1        2.8936    -7.6802    -5.8629  C.3     1  <O>11       0.0059
   2 N1        3.6845    -8.8982    -5.7123  N.3     1  <O>11      -0.1930
   3 S1        3.1570    -9.7380    -4.3910  S.O2    1  <O>11       0.0582
   4 O1        3.3260    -8.7960    -3.0330  O.2     1  <O>11      -0.1531
   5 O2        1.5570   -10.1370    -4.5920  O.2     1  <O>11      -0.1531
   6 C2        4.1100   -11.2060    -4.2090  C.ar    1  <O>11       0.1070
   7 C3        5.4910   -11.1070    -4.0270  C.ar    1  <O>11      -0.0352
   8 C4        6.2550   -12.2710    -3.8940  C.ar    1  <O>11      -0.0582
   9 C5        5.6420   -13.5260    -3.9380  C.ar    1  <O>11      -0.0404
  10 C6        4.2560   -13.6090    -4.1160  C.ar    1  <O>11       0.0354
  11 N2        3.6290   -14.9040    -4.1600  N.pl3   1  <O>11      -0.2836
  12 C7        2.1940   -15.0110    -4.3410  C.ar    1  <O>11       0.2200
  13 N3        1.6280   -16.2410    -4.3770  N.ar    1  <O>11      -0.2226
  14 C8        0.2940   -16.3150    -4.5450  C.ar    1  <O>11       0.0332
  15 C9       -0.5150   -15.2160    -4.6800  C.ar    1  <O>11      -0.0174
  16 C10       0.1300   -14.0080    -4.6320  C.ar    1  <O>11       0.0760
  17 C11      -0.6220   -12.8040    -4.7620  C.ar    1  <O>11       0.0005
  18 C12      -0.8442   -12.2390    -6.0301  C.ar    1  <O>11      -0.0526
  19 C13      -1.5728   -11.0510    -6.1558  C.ar    1  <O>11      -0.0611
  20 C14      -2.0862   -10.4186    -5.0210  C.ar    1  <O>11      -0.0617
  21 C15      -1.8716   -10.9853    -3.7591  C.ar    1  <O>11      -0.0611
  22 C16      -1.1501   -12.1705    -3.6244  C.ar    1  <O>11      -0.0526
  23 N4        1.4620   -13.8810    -4.4670  N.ar    1  <O>11      -0.2142
  24 C17       3.4840   -12.4530    -4.2470  C.ar    1  <O>11      -0.0141
  25 H1        3.0048    -7.0623    -4.9718  H       1  <O>11       0.0405
  26 H2        1.8439    -7.9425    -5.9945  H       1  <O>11       0.0405
  27 H3        3.2419    -7.1264    -6.7347  H       1  <O>11       0.0405
  28 H4        3.5805    -9.4763    -6.5461  H       1  <O>11       0.1477
  29 H5        4.1950   -15.7480    -4.0630  H       1  <O>11       0.1550
  30 H6        5.9450   -10.1809    -3.9909  H       1  <O>11       0.0637
  31 H7        7.2763   -12.2027    -3.7627  H       1  <O>11       0.0619
  32 H8        6.2064   -14.3845    -3.8401  H       1  <O>11       0.0636
  33 H9       -0.1432   -17.2494    -4.5737  H       1  <O>11       0.0831
  34 H10      -1.5361   -15.2932    -4.8085  H       1  <O>11       0.0654
  35 H11      -0.4683   -12.7026    -6.8720  H       1  <O>11       0.0624
  36 H12      -1.7312   -10.6408    -7.0894  H       1  <O>11       0.0618
  37 H13      -2.6199    -9.5401    -5.1122  H       1  <O>11       0.0618
  38 H14      -2.2515   -10.5208    -2.9195  H       1  <O>11       0.0618
  39 H15      -1.0041   -12.5824    -2.6895  H       1  <O>11       0.0624
  40 H16       2.4616   -12.5198    -4.3706  H       1  <O>11       0.0656
@<TRIPOS>BOND
     1     1     2    1
     2     2     3    1
     3     3     4    2
     4     3     5    2
     5     3     6    1
     6     6     7   ar
     7     7     8   ar
     8     8     9   ar
     9     9    10   ar
    10    10    11    1
    11    11    12    1
    12    12    13   ar
    13    13    14   ar
    14    14    15   ar
    15    15    16   ar
    16    16    17    1
    17    17    18   ar
    18    18    19   ar
    19    19    20   ar
    20    20    21   ar
    21    21    22   ar
    22    17    22   ar
    23    16    23   ar
    24    12    23   ar
    25    10    24   ar
    26     6    24   ar
    27     1    25    1
    28     1    26    1
    29     1    27    1
    30     2    28    1
    31    11    29    1
    32     7    30    1
    33     8    31    1
    34     9    32    1
    35    14    33    1
    36    15    34    1
    37    18    35    1
    38    19    36    1
    39    20    37    1
    40    21    38    1
    41    22    39    1
    42    24    40    1
@<TRIPOS>MOLECULE
mol69_2_26
 40 42 0 0 0
SMALL
USER_CHARGES
****
VDW energy = -129.69
@<TRIPOS>ATOM
   1 C1        2.8936    -7.6802    -5.8629  C.3     1  <O>11       0.0059
   2 N1        3.6845    -8.8982    -5.7123  N.3     1  <O>11      -0.1930
   3 S1        3.1570    -9.7380    -4.3910  S.O2    1  <O>11       0.0582
   4 O1        3.3260    -8.7960    -3.0330  O.2     1  <O>11      -0.1531
   5 O2        1.5570   -10.1370    -4.5920  O.2     1  <O>11      -0.1531
   6 C2        4.1100   -11.2060    -4.2090  C.ar    1  <O>11       0.1070
   7 C3        4.3181   -11.7327    -2.9326  C.ar    1  <O>11      -0.0352
   8 C4        5.0850   -12.8926    -2.7809  C.ar    1  <O>11      -0.0582
   9 C5        5.6366   -13.5246    -3.8985  C.ar    1  <O>11      -0.0404
  10 C6        5.4151   -12.9875    -5.1721  C.ar    1  <O>11       0.0354
  11 N2        5.9848   -13.6425    -6.3203  N.pl3   1  <O>11      -0.2836
  12 C7        5.7646   -13.1031    -7.6485  C.ar    1  <O>11       0.2200
  13 N3        6.3099   -13.7391    -8.7127  N.ar    1  <O>11      -0.2226
  14 C8        6.0908   -13.2202    -9.9358  C.ar    1  <O>11       0.0332
  15 C9        5.3484   -12.0886   -10.1571  C.ar    1  <O>11      -0.0174
  16 C10       4.8291   -11.5030    -9.0324  C.ar    1  <O>11       0.0760
  17 C11       4.0412   -10.3214    -9.1551  C.ar    1  <O>11       0.0005
  18 C12       4.6491    -9.0546    -9.1088  C.ar    1  <O>11      -0.0526
  19 C13       3.8735    -7.8949    -9.2179  C.ar    1  <O>11      -0.0611
  20 C14       2.4887    -7.9885    -9.3754  C.ar    1  <O>11      -0.0617
  21 C15       1.8844    -9.2500    -9.4292  C.ar    1  <O>11      -0.0611
  22 C16       2.6492   -10.4108    -9.3251  C.ar    1  <O>11      -0.0526
  23 N4        5.0205   -11.9825    -7.7870  N.ar    1  <O>11      -0.2142
  24 C17       4.6487   -11.8317    -5.3344  C.ar    1  <O>11      -0.0141
  25 H1        3.0048    -7.0623    -4.9718  H       1  <O>11       0.0405
  26 H2        1.8439    -7.9425    -5.9945  H       1  <O>11       0.0405
  27 H3        3.2419    -7.1264    -6.7347  H       1  <O>11       0.0405
  28 H4        3.5805    -9.4763    -6.5461  H       1  <O>11       0.1477
  29 H5        6.5440   -14.4880    -6.1996  H       1  <O>11       0.1550
  30 H6        3.9087   -11.2692    -2.1064  H       1  <O>11       0.0637
  31 H7        5.2442   -13.2835    -1.8392  H       1  <O>11       0.0619
  32 H8        6.2027   -14.3802    -3.7858  H       1  <O>11       0.0636
  33 H9        6.5040   -13.7000   -10.7507  H       1  <O>11       0.0831
  34 H10       5.1920   -11.7058   -11.1027  H       1  <O>11       0.0654
  35 H11       5.6719    -8.9796    -8.9939  H       1  <O>11       0.0624
  36 H12       4.3259    -6.9681    -9.1818  H       1  <O>11       0.0618
  37 H13       1.9154    -7.1338    -9.4515  H       1  <O>11       0.0618
  38 H14       0.8616    -9.3215    -9.5473  H       1  <O>11       0.0618
  39 H15       2.1933   -11.3353    -9.3729  H       1  <O>11       0.0624
  40 H16       4.4824   -11.4442    -6.2764  H       1  <O>11       0.0656
@<TRIPOS>BOND
     1     1     2    1
     2     2     3    1
     3     3     4    2
     4     3     5    2
     5     3     6    1
     6     6     7   ar
     7     7     8   ar
     8     8     9   ar
     9     9    10   ar
    10    10    11    1
    11    11    12    1
    12    12    13   ar
    13    13    14   ar
    14    14    15   ar
    15    15    16   ar
    16    16    17    1
    17    17    18   ar
    18    18    19   ar
    19    19    20   ar
    20    20    21   ar
    21    21    22   ar
    22    17    22   ar
    23    16    23   ar
    24    12    23   ar
    25    10    24   ar
    26     6    24   ar
    27     1    25    1
    28     1    26    1
    29     1    27    1
    30     2    28    1
    31    11    29    1
    32     7    30    1
    33     8    31    1
    34     9    32    1
    35    14    33    1
    36    15    34    1
    37    18    35    1
    38    19    36    1
    39    20    37    1
    40    21    38    1
    41    22    39    1
    42    24    40    1
@<TRIPOS>MOLECULE
mol69_2_27
 40 42 0 0 0
SMALL
USER_CHARGES
****
VDW energy = -126.61
@<TRIPOS>ATOM
   1 C1        2.8936    -7.6802    -5.8629  C.3     1  <O>11       0.0059
   2 N1        3.6845    -8.8982    -5.7123  N.3     1  <O>11      -0.1930
   3 S1        3.1570    -9.7380    -4.3910  S.O2    1  <O>11       0.0582
   4 O1        3.3260    -8.7960    -3.0330  O.2     1  <O>11      -0.1531
   5 O2        1.5570   -10.1370    -4.5920  O.2     1  <O>11      -0.1531
   6 C2        4.1100   -11.2060    -4.2090  C.ar    1  <O>11       0.1070
   7 C3        5.4910   -11.1070    -4.0270  C.ar    1  <O>11      -0.0352
   8 C4        6.2550   -12.2710    -3.8940  C.ar    1  <O>11      -0.0582
   9 C5        5.6420   -13.5260    -3.9380  C.ar    1  <O>11      -0.0404
  10 C6        4.2560   -13.6090    -4.1160  C.ar    1  <O>11       0.0354
  11 N2        3.6290   -14.9040    -4.1600  N.pl3   1  <O>11      -0.2836
  12 C7        2.1940   -15.0110    -4.3410  C.ar    1  <O>11       0.2200
  13 N3        1.6280   -16.2410    -4.3770  N.ar    1  <O>11      -0.2226
  14 C8        0.2940   -16.3150    -4.5450  C.ar    1  <O>11       0.0332
  15 C9       -0.5150   -15.2160    -4.6800  C.ar    1  <O>11      -0.0174
  16 C10       0.1300   -14.0080    -4.6320  C.ar    1  <O>11       0.0760
  17 C11      -0.6220   -12.8040    -4.7620  C.ar    1  <O>11       0.0005
  18 C12      -0.6188   -11.8498    -3.7295  C.ar    1  <O>11      -0.0526
  19 C13      -1.3664   -10.6734    -3.8530  C.ar    1  <O>11      -0.0611
  20 C14      -2.1203   -10.4382    -5.0052  C.ar    1  <O>11      -0.0617
  21 C15      -2.1173   -11.3847    -6.0366  C.ar    1  <O>11      -0.0611
  22 C16      -1.3728   -12.5578    -5.9240  C.ar    1  <O>11      -0.0526
  23 N4        1.4620   -13.8810    -4.4670  N.ar    1  <O>11      -0.2142
  24 C17       3.4840   -12.4530    -4.2470  C.ar    1  <O>11      -0.0141
  25 H1        3.0048    -7.0623    -4.9718  H       1  <O>11       0.0405
  26 H2        1.8439    -7.9425    -5.9945  H       1  <O>11       0.0405
  27 H3        3.2419    -7.1264    -6.7347  H       1  <O>11       0.0405
  28 H4        3.5805    -9.4763    -6.5461  H       1  <O>11       0.1477
  29 H5        4.1950   -15.7480    -4.0630  H       1  <O>11       0.1550
  30 H6        5.9450   -10.1809    -3.9909  H       1  <O>11       0.0637
  31 H7        7.2763   -12.2027    -3.7627  H       1  <O>11       0.0619
  32 H8        6.2064   -14.3845    -3.8401  H       1  <O>11       0.0636
  33 H9       -0.1432   -17.2494    -4.5737  H       1  <O>11       0.0831
  34 H10      -1.5361   -15.2932    -4.8085  H       1  <O>11       0.0654
  35 H11      -0.0626   -12.0178    -2.8766  H       1  <O>11       0.0624
  36 H12      -1.3607    -9.9777    -3.0909  H       1  <O>11       0.0618
  37 H13      -2.6754    -9.5729    -5.0955  H       1  <O>11       0.0618
  38 H14      -2.6722   -11.2122    -6.8894  H       1  <O>11       0.0618
  39 H15      -1.3731   -13.2452    -6.6937  H       1  <O>11       0.0624
  40 H16       2.4616   -12.5198    -4.3706  H       1  <O>11       0.0656
@<TRIPOS>BOND
     1     1     2    1
     2     2     3    1
     3     3     4    2
     4     3     5    2
     5     3     6    1
     6     6     7   ar
     7     7     8   ar
     8     8     9   ar
     9     9    10   ar
    10    10    11    1
    11    11    12    1
    12    12    13   ar
    13    13    14   ar
    14    14    15   ar
    15    15    16   ar
    16    16    17    1
    17    17    18   ar
    18    18    19   ar
    19    19    20   ar
    20    20    21   ar
    21    21    22   ar
    22    17    22   ar
    23    16    23   ar
    24    12    23   ar
    25    10    24   ar
    26     6    24   ar
    27     1    25    1
    28     1    26    1
    29     1    27    1
    30     2    28    1
    31    11    29    1
    32     7    30    1
    33     8    31    1
    34     9    32    1
    35    14    33    1
    36    15    34    1
    37    18    35    1
    38    19    36    1
    39    20    37    1
    40    21    38    1
    41    22    39    1
    42    24    40    1
@<TRIPOS>MOLECULE
mol69_2_28
 40 42 0 0 0
SMALL
USER_CHARGES
****
VDW energy = -124.12
@<TRIPOS>ATOM
   1 C1        2.8936    -7.6802    -5.8629  C.3     1  <O>11       0.0059
   2 N1        3.6845    -8.8982    -5.7123  N.3     1  <O>11      -0.1930
   3 S1        3.1570    -9.7380    -4.3910  S.O2    1  <O>11       0.0582
   4 O1        4.0577   -11.1235    -4.2202  O.2     1  <O>11      -0.1531
   5 O2        3.3274    -8.7964    -3.0331  O.2     1  <O>11      -0.1531
   6 C2        1.4624   -10.1623    -4.6026  C.ar    1  <O>11       0.1070
   7 C3        0.5181    -9.1466    -4.7658  C.ar    1  <O>11      -0.0352
   8 C4       -0.8318    -9.4776    -4.9222  C.ar    1  <O>11      -0.0582
   9 C5       -1.2348   -10.8156    -4.9201  C.ar    1  <O>11      -0.0404
  10 C6       -0.2759   -11.8229    -4.7605  C.ar    1  <O>11       0.0354
  11 N2       -0.6958   -13.1998    -4.7596  N.pl3   1  <O>11      -0.2836
  12 C7        0.2828   -14.2580    -4.5983  C.ar    1  <O>11       0.2200
  13 N3        0.8701   -14.7811    -5.7010  N.ar    1  <O>11      -0.2226
  14 C8        1.7761   -15.7618    -5.5259  C.ar    1  <O>11       0.0332
  15 C9        2.1323   -16.2540    -4.2966  C.ar    1  <O>11      -0.0174
  16 C10       1.4966   -15.6742    -3.2301  C.ar    1  <O>11       0.0760
  17 C11       1.7973   -16.1147    -1.9082  C.ar    1  <O>11       0.0005
  18 C12       2.7395   -17.1367    -1.6975  C.ar    1  <O>11      -0.0526
  19 C13       3.0258   -17.5765    -0.4002  C.ar    1  <O>11      -0.0611
  20 C14       2.3778   -17.0011     0.6954  C.ar    1  <O>11      -0.0617
  21 C15       1.4453   -15.9782     0.4860  C.ar    1  <O>11      -0.0611
  22 C16       1.1564   -15.5311    -0.8023  C.ar    1  <O>11      -0.0526
  23 N4        0.5822   -14.6911    -3.3527  N.ar    1  <O>11      -0.2142
  24 C17       1.0745   -11.5031    -4.6064  C.ar    1  <O>11      -0.0141
  25 H1        3.0048    -7.0623    -4.9718  H       1  <O>11       0.0405
  26 H2        1.8439    -7.9425    -5.9945  H       1  <O>11       0.0405
  27 H3        3.2419    -7.1264    -6.7347  H       1  <O>11       0.0405
  28 H4        3.5805    -9.4763    -6.5461  H       1  <O>11       0.1477
  29 H5       -1.6834   -13.4316    -4.8735  H       1  <O>11       0.1550
  30 H6        0.8143    -8.1580    -4.7710  H       1  <O>11       0.0637
  31 H7       -1.5336    -8.7302    -5.0397  H       1  <O>11       0.0619
  32 H8       -2.2311   -11.0592    -5.0352  H       1  <O>11       0.0636
  33 H9        2.2268   -16.1648    -6.3623  H       1  <O>11       0.0831
  34 H10       2.8289   -17.0068    -4.1828  H       1  <O>11       0.0654
  35 H11       3.2222   -17.5644    -2.5031  H       1  <O>11       0.0624
  36 H12       3.7175   -18.3279    -0.2526  H       1  <O>11       0.0618
  37 H13       2.5849   -17.3278     1.6521  H       1  <O>11       0.0618
  38 H14       0.9666   -15.5505     1.2941  H       1  <O>11       0.0618
  39 H15       0.4720   -14.7717    -0.9437  H       1  <O>11       0.0624
  40 H16       1.7781   -12.2500    -4.4965  H       1  <O>11       0.0656
@<TRIPOS>BOND
     1     1     2    1
     2     2     3    1
     3     3     4    2
     4     3     5    2
     5     3     6    1
     6     6     7   ar
     7     7     8   ar
     8     8     9   ar
     9     9    10   ar
    10    10    11    1
    11    11    12    1
    12    12    13   ar
    13    13    14   ar
    14    14    15   ar
    15    15    16   ar
    16    16    17    1
    17    17    18   ar
    18    18    19   ar
    19    19    20   ar
    20    20    21   ar
    21    21    22   ar
    22    17    22   ar
    23    16    23   ar
    24    12    23   ar
    25    10    24   ar
    26     6    24   ar
    27     1    25    1
    28     1    26    1
    29     1    27    1
    30     2    28    1
    31    11    29    1
    32     7    30    1
    33     8    31    1
    34     9    32    1
    35    14    33    1
    36    15    34    1
    37    18    35    1
    38    19    36    1
    39    20    37    1
    40    21    38    1
    41    22    39    1
    42    24    40    1
@<TRIPOS>MOLECULE
mol69_2_29
 40 42 0 0 0
SMALL
USER_CHARGES
****
VDW energy = -121.62
@<TRIPOS>ATOM
   1 C1        2.8936    -7.6802    -5.8629  C.3     1  <O>11       0.0059
   2 N1        3.6845    -8.8982    -5.7123  N.3     1  <O>11      -0.1930
   3 S1        3.1570    -9.7380    -4.3910  S.O2    1  <O>11       0.0582
   4 O1        4.0577   -11.1235    -4.2202  O.2     1  <O>11      -0.1531
   5 O2        3.3274    -8.7964    -3.0331  O.2     1  <O>11      -0.1531
   6 C2        1.4624   -10.1623    -4.6026  C.ar    1  <O>11       0.1070
   7 C3        1.0861   -10.9550    -5.6889  C.ar    1  <O>11      -0.0352
   8 C4       -0.2611   -11.2851    -5.8688  C.ar    1  <O>11      -0.0582
   9 C5       -1.2256   -10.8296    -4.9660  C.ar    1  <O>11      -0.0404
  10 C6       -0.8323   -10.0400    -3.8790  C.ar    1  <O>11       0.0354
  11 N2       -1.8294    -9.5738    -2.9514  N.pl3   1  <O>11      -0.2836
  12 C7       -1.4418    -8.7569    -1.8175  C.ar    1  <O>11       0.2200
  13 N3       -2.3987    -8.3324    -0.9580  N.ar    1  <O>11      -0.2226
  14 C8       -2.0145    -7.5761     0.0877  C.ar    1  <O>11       0.0332
  15 C9       -0.7126    -7.2166     0.3254  C.ar    1  <O>11      -0.0174
  16 C10       0.1970    -7.6847    -0.5863  C.ar    1  <O>11       0.0760
  17 C11       1.5776    -7.3671    -0.4282  C.ar    1  <O>11       0.0005
  18 C12       2.5287    -8.3911    -0.2746  C.ar    1  <O>11      -0.0526
  19 C13       3.8824    -8.0781    -0.1080  C.ar    1  <O>11      -0.0611
  20 C14       4.2984    -6.7447    -0.0951  C.ar    1  <O>11      -0.0617
  21 C15       3.3524    -5.7254    -0.2559  C.ar    1  <O>11      -0.0611
  22 C16       2.0023    -6.0277    -0.4260  C.ar    1  <O>11      -0.0526
  23 N4       -0.1371    -8.4435    -1.6494  N.ar    1  <O>11      -0.2142
  24 C17       0.5103    -9.7072    -3.6890  C.ar    1  <O>11      -0.0141
  25 H1        3.0048    -7.0623    -4.9718  H       1  <O>11       0.0405
  26 H2        1.8439    -7.9425    -5.9945  H       1  <O>11       0.0405
  27 H3        3.2419    -7.1264    -6.7347  H       1  <O>11       0.0405
  28 H4        3.5805    -9.4763    -6.5461  H       1  <O>11       0.1477
  29 H5       -2.8104    -9.8191    -3.0914  H       1  <O>11       0.1550
  30 H6        1.7975   -11.2950    -6.3548  H       1  <O>11       0.0637
  31 H7       -0.5442   -11.8678    -6.6720  H       1  <O>11       0.0619
  32 H8       -2.2195   -11.0734    -5.0995  H       1  <O>11       0.0636
  33 H9       -2.7390    -7.2492     0.7460  H       1  <O>11       0.0831
  34 H10      -0.4378    -6.6355     1.1327  H       1  <O>11       0.0654
  35 H11       2.2271    -9.3780    -0.2846  H       1  <O>11       0.0624
  36 H12       4.5752    -8.8344     0.0055  H       1  <O>11       0.0618
  37 H13       5.2959    -6.5126     0.0320  H       1  <O>11       0.0618
  38 H14       3.6578    -4.7396    -0.2484  H       1  <O>11       0.0618
  39 H15       1.3150    -5.2680    -0.5504  H       1  <O>11       0.0624
  40 H16       0.7956    -9.1309    -2.8818  H       1  <O>11       0.0656
@<TRIPOS>BOND
     1     1     2    1
     2     2     3    1
     3     3     4    2
     4     3     5    2
     5     3     6    1
     6     6     7   ar
     7     7     8   ar
     8     8     9   ar
     9     9    10   ar
    10    10    11    1
    11    11    12    1
    12    12    13   ar
    13    13    14   ar
    14    14    15   ar
    15    15    16   ar
    16    16    17    1
    17    17    18   ar
    18    18    19   ar
    19    19    20   ar
    20    20    21   ar
    21    21    22   ar
    22    17    22   ar
    23    16    23   ar
    24    12    23   ar
    25    10    24   ar
    26     6    24   ar
    27     1    25    1
    28     1    26    1
    29     1    27    1
    30     2    28    1
    31    11    29    1
    32     7    30    1
    33     8    31    1
    34     9    32    1
    35    14    33    1
    36    15    34    1
    37    18    35    1
    38    19    36    1
    39    20    37    1
    40    21    38    1
    41    22    39    1
    42    24    40    1
@<TRIPOS>MOLECULE
mol69_2_30
 40 42 0 0 0
SMALL
USER_CHARGES
****
VDW energy = -112.80
@<TRIPOS>ATOM
   1 C1        2.8936    -7.6802    -5.8629  C.3     1  <O>11       0.0059
   2 N1        3.6845    -8.8982    -5.7123  N.3     1  <O>11      -0.1930
   3 S1        3.1570    -9.7380    -4.3910  S.O2    1  <O>11       0.0582
   4 O1        1.5572   -10.1382    -4.5923  O.2     1  <O>11      -0.1531
   5 O2        4.0569   -11.1240    -4.2213  O.2     1  <O>11      -0.1531
   6 C2        3.3359    -8.7416    -2.9517  C.ar    1  <O>11       0.1070
   7 C3        2.6624    -7.5206    -2.8768  C.ar    1  <O>11      -0.0352
   8 C4        2.8106    -6.7190    -1.7403  C.ar    1  <O>11      -0.0582
   9 C5        3.6233    -7.1371    -0.6832  C.ar    1  <O>11      -0.0404
  10 C6        4.2881    -8.3660    -0.7708  C.ar    1  <O>11       0.0354
  11 N2        5.1237    -8.7927     0.3209  N.pl3   1  <O>11      -0.2836
  12 C7        5.8187   -10.0637     0.2505  C.ar    1  <O>11       0.2200
  13 N3        6.5973   -10.4434     1.2918  N.ar    1  <O>11      -0.2226
  14 C8        7.2318   -11.6278     1.2038  C.ar    1  <O>11       0.0332
  15 C9        7.1300   -12.4636     0.1214  C.ar    1  <O>11      -0.0174
  16 C10       6.3240   -12.0116    -0.8903  C.ar    1  <O>11       0.0760
  17 C11       6.1511   -12.8075    -2.0602  C.ar    1  <O>11       0.0005
  18 C12       4.8713   -13.2558    -2.4313  C.ar    1  <O>11      -0.0526
  19 C13       4.7040   -14.0466    -3.5735  C.ar    1  <O>11      -0.0611
  20 C14       5.8085   -14.3948    -4.3546  C.ar    1  <O>11      -0.0617
  21 C15       7.0818   -13.9419    -3.9893  C.ar    1  <O>11      -0.0611
  22 C16       7.2577   -13.1507    -2.8553  C.ar    1  <O>11      -0.0526
  23 N4        5.6688   -10.8339    -0.8508  N.ar    1  <O>11      -0.2142
  24 C17       4.1446    -9.1748    -1.8997  C.ar    1  <O>11      -0.0141
  25 H1        3.0048    -7.0623    -4.9718  H       1  <O>11       0.0405
  26 H2        1.8439    -7.9425    -5.9945  H       1  <O>11       0.0405
  27 H3        3.2419    -7.1264    -6.7347  H       1  <O>11       0.0405
  28 H4        3.5805    -9.4763    -6.5461  H       1  <O>11       0.1477
  29 H5        5.2265    -8.2004     1.1460  H       1  <O>11       0.1550
  30 H6        2.0591    -7.2117    -3.6551  H       1  <O>11       0.0637
  31 H7        2.3174    -5.8144    -1.6821  H       1  <O>11       0.0619
  32 H8        3.7325    -6.5450     0.1550  H       1  <O>11       0.0636
  33 H9        7.8268   -11.9226     1.9938  H       1  <O>11       0.0831
  34 H10       7.6248   -13.3680     0.0724  H       1  <O>11       0.0654
  35 H11       4.0516   -13.0004    -1.8586  H       1  <O>11       0.0624
  36 H12       3.7620   -14.3734    -3.8396  H       1  <O>11       0.0618
  37 H13       5.6868   -14.9816    -5.1947  H       1  <O>11       0.0618
  38 H14       7.8990   -14.1965    -4.5659  H       1  <O>11       0.0618
  39 H15       8.2003   -12.8172    -2.5997  H       1  <O>11       0.0624
  40 H16       4.6311   -10.0832    -1.9558  H       1  <O>11       0.0656
@<TRIPOS>BOND
     1     1     2    1
     2     2     3    1
     3     3     4    2
     4     3     5    2
     5     3     6    1
     6     6     7   ar
     7     7     8   ar
     8     8     9   ar
     9     9    10   ar
    10    10    11    1
    11    11    12    1
    12    12    13   ar
    13    13    14   ar
    14    14    15   ar
    15    15    16   ar
    16    16    17    1
    17    17    18   ar
    18    18    19   ar
    19    19    20   ar
    20    20    21   ar
    21    21    22   ar
    22    17    22   ar
    23    16    23   ar
    24    12    23   ar
    25    10    24   ar
    26     6    24   ar
    27     1    25    1
    28     1    26    1
    29     1    27    1
    30     2    28    1
    31    11    29    1
    32     7    30    1
    33     8    31    1
    34     9    32    1
    35    14    33    1
    36    15    34    1
    37    18    35    1
    38    19    36    1
    39    20    37    1
    40    21    38    1
    41    22    39    1
    42    24    40    1
@<TRIPOS>MOLECULE
mol69_3_1
 40 42 0 0 0
SMALL
USER_CHARGES
****
VDW energy = -160.23
@<TRIPOS>ATOM
   1 C1        2.8936    -7.6802    -5.8629  C.3     1  <O>11       0.0059
   2 N1        3.6845    -8.8982    -5.7123  N.3     1  <O>11      -0.1930
   3 S1        3.1570    -9.7380    -4.3910  S.O2    1  <O>11       0.0582
   4 O1        3.3260    -8.7960    -3.0330  O.2     1  <O>11      -0.1531
   5 O2        1.5570   -10.1370    -4.5920  O.2     1  <O>11      -0.1531
   6 C2        4.1100   -11.2060    -4.2090  C.ar    1  <O>11       0.1070
   7 C3        5.4910   -11.1070    -4.0270  C.ar    1  <O>11      -0.0352
   8 C4        6.2550   -12.2710    -3.8940  C.ar    1  <O>11      -0.0582
   9 C5        5.6420   -13.5260    -3.9380  C.ar    1  <O>11      -0.0404
  10 C6        4.2560   -13.6090    -4.1160  C.ar    1  <O>11       0.0354
  11 N2        3.6290   -14.9040    -4.1600  N.pl3   1  <O>11      -0.2836
  12 C7        3.1508   -15.5205    -2.9363  C.ar    1  <O>11       0.2200
  13 N3        2.5638   -16.7409    -2.9993  N.ar    1  <O>11      -0.2226
  14 C8        2.1301   -17.2925    -1.8525  C.ar    1  <O>11       0.0332
  15 C9        2.2507   -16.6873    -0.6291  C.ar    1  <O>11      -0.0174
  16 C10       2.8527   -15.4559    -0.6444  C.ar    1  <O>11       0.0760
  17 C11       3.0229   -14.7420     0.5793  C.ar    1  <O>11       0.0005
  18 C12       2.0251   -13.8601     1.0288  C.ar    1  <O>11      -0.0526
  19 C13       2.1971   -13.1498     2.2236  C.ar    1  <O>11      -0.0611
  20 C14       3.3642   -13.3154     2.9782  C.ar    1  <O>11      -0.0617
  21 C15       4.3516   -14.1987     2.5313  C.ar    1  <O>11      -0.0611
  22 C16       4.1884   -14.9123     1.3422  C.ar    1  <O>11      -0.0526
  23 N4        3.3049   -14.8626    -1.7641  N.ar    1  <O>11      -0.2142
  24 C17       3.4840   -12.4530    -4.2470  C.ar    1  <O>11      -0.0141
  25 H1        1.8439    -7.9425    -5.9946  H       1  <O>11       0.0405
  26 H2        3.2419    -7.1263    -6.7347  H       1  <O>11       0.0405
  27 H3        3.0047    -7.0624    -4.9718  H       1  <O>11       0.0405
  28 H4        4.6668    -8.6527    -5.5891  H       1  <O>11       0.1477
  29 H5        3.5208   -15.3890    -5.0505  H       1  <O>11       0.1550
  30 H6        5.9450   -10.1809    -3.9909  H       1  <O>11       0.0637
  31 H7        7.2763   -12.2027    -3.7627  H       1  <O>11       0.0619
  32 H8        6.2064   -14.3845    -3.8401  H       1  <O>11       0.0636
  33 H9        1.6826   -18.2214    -1.8959  H       1  <O>11       0.0831
  34 H10       1.9126   -17.1269     0.2412  H       1  <O>11       0.0654
  35 H11       1.1624   -13.7355     0.4764  H       1  <O>11       0.0624
  36 H12       1.4617   -12.5028     2.5483  H       1  <O>11       0.0618
  37 H13       3.4948   -12.7901     3.8569  H       1  <O>11       0.0618
  38 H14       5.2119   -14.3248     3.0872  H       1  <O>11       0.0618
  39 H15       4.9234   -15.5637     1.0250  H       1  <O>11       0.0624
  40 H16       2.4616   -12.5198    -4.3706  H       1  <O>11       0.0656
@<TRIPOS>BOND
     1     1     2    1
     2     2     3    1
     3     3     4    2
     4     3     5    2
     5     3     6    1
     6     6     7   ar
     7     7     8   ar
     8     8     9   ar
     9     9    10   ar
    10    10    11    1
    11    11    12    1
    12    12    13   ar
    13    13    14   ar
    14    14    15   ar
    15    15    16   ar
    16    16    17    1
    17    17    18   ar
    18    18    19   ar
    19    19    20   ar
    20    20    21   ar
    21    21    22   ar
    22    17    22   ar
    23    16    23   ar
    24    12    23   ar
    25    10    24   ar
    26     6    24   ar
    27     1    25    1
    28     1    26    1
    29     1    27    1
    30     2    28    1
    31    11    29    1
    32     7    30    1
    33     8    31    1
    34     9    32    1
    35    14    33    1
    36    15    34    1
    37    18    35    1
    38    19    36    1
    39    20    37    1
    40    21    38    1
    41    22    39    1
    42    24    40    1
@<TRIPOS>MOLECULE
mol69_3_2
 40 42 0 0 0
SMALL
USER_CHARGES
****
VDW energy = -159.22
@<TRIPOS>ATOM
   1 C1        2.8936    -7.6802    -5.8629  C.3     1  <O>11       0.0059
   2 N1        3.6845    -8.8982    -5.7123  N.3     1  <O>11      -0.1930
   3 S1        3.1570    -9.7380    -4.3910  S.O2    1  <O>11       0.0582
   4 O1        3.3260    -8.7960    -3.0330  O.2     1  <O>11      -0.1531
   5 O2        1.5570   -10.1370    -4.5920  O.2     1  <O>11      -0.1531
   6 C2        4.1100   -11.2060    -4.2090  C.ar    1  <O>11       0.1070
   7 C3        5.4910   -11.1070    -4.0270  C.ar    1  <O>11      -0.0352
   8 C4        6.2550   -12.2710    -3.8940  C.ar    1  <O>11      -0.0582
   9 C5        5.6420   -13.5260    -3.9380  C.ar    1  <O>11      -0.0404
  10 C6        4.2560   -13.6090    -4.1160  C.ar    1  <O>11       0.0354
  11 N2        3.6290   -14.9040    -4.1600  N.pl3   1  <O>11      -0.2836
  12 C7        3.6241   -15.7482    -2.9795  C.ar    1  <O>11       0.2200
  13 N3        3.0288   -16.9646    -3.0421  N.ar    1  <O>11      -0.2226
  14 C8        3.0382   -17.7293    -1.9363  C.ar    1  <O>11       0.0332
  15 C9        3.6161   -17.3440    -0.7551  C.ar    1  <O>11      -0.0174
  16 C10       4.1965   -16.1023    -0.7676  C.ar    1  <O>11       0.0760
  17 C11       4.8229   -15.6079     0.4153  C.ar    1  <O>11       0.0005
  18 C12       6.1854   -15.8587     0.6522  C.ar    1  <O>11      -0.0526
  19 C13       6.7979   -15.3843     1.8190  C.ar    1  <O>11      -0.0611
  20 C14       6.0561   -14.6559     2.7561  C.ar    1  <O>11      -0.0617
  21 C15       4.7025   -14.4026     2.5138  C.ar    1  <O>11      -0.0611
  22 C16       4.0837   -14.8702     1.3527  C.ar    1  <O>11      -0.0526
  23 N4        4.2153   -15.3005    -1.8478  N.ar    1  <O>11      -0.2142
  24 C17       3.4840   -12.4530    -4.2470  C.ar    1  <O>11      -0.0141
  25 H1        1.8439    -7.9425    -5.9946  H       1  <O>11       0.0405
  26 H2        3.2419    -7.1263    -6.7347  H       1  <O>11       0.0405
  27 H3        3.0047    -7.0624    -4.9718  H       1  <O>11       0.0405
  28 H4        4.6668    -8.6527    -5.5891  H       1  <O>11       0.1477
  29 H5        3.1884   -15.2291    -5.0203  H       1  <O>11       0.1550
  30 H6        5.9450   -10.1809    -3.9909  H       1  <O>11       0.0637
  31 H7        7.2763   -12.2027    -3.7627  H       1  <O>11       0.0619
  32 H8        6.2064   -14.3845    -3.8401  H       1  <O>11       0.0636
  33 H9        2.5861   -18.6560    -1.9795  H       1  <O>11       0.0831
  34 H10       3.6143   -17.9455     0.0835  H       1  <O>11       0.0654
  35 H11       6.7368   -16.3944    -0.0363  H       1  <O>11       0.0624
  36 H12       7.7984   -15.5722     1.9883  H       1  <O>11       0.0618
  37 H13       6.5043   -14.3087     3.6184  H       1  <O>11       0.0618
  38 H14       4.1540   -13.8634     3.2017  H       1  <O>11       0.0618
  39 H15       3.0847   -14.6737     1.1841  H       1  <O>11       0.0624
  40 H16       2.4616   -12.5198    -4.3706  H       1  <O>11       0.0656
@<TRIPOS>BOND
     1     1     2    1
     2     2     3    1
     3     3     4    2
     4     3     5    2
     5     3     6    1
     6     6     7   ar
     7     7     8   ar
     8     8     9   ar
     9     9    10   ar
    10    10    11    1
    11    11    12    1
    12    12    13   ar
    13    13    14   ar
    14    14    15   ar
    15    15    16   ar
    16    16    17    1
    17    17    18   ar
    18    18    19   ar
    19    19    20   ar
    20    20    21   ar
    21    21    22   ar
    22    17    22   ar
    23    16    23   ar
    24    12    23   ar
    25    10    24   ar
    26     6    24   ar
    27     1    25    1
    28     1    26    1
    29     1    27    1
    30     2    28    1
    31    11    29    1
    32     7    30    1
    33     8    31    1
    34     9    32    1
    35    14    33    1
    36    15    34    1
    37    18    35    1
    38    19    36    1
    39    20    37    1
    40    21    38    1
    41    22    39    1
    42    24    40    1
@<TRIPOS>MOLECULE
mol69_3_3
 40 42 0 0 0
SMALL
USER_CHARGES
****
VDW energy = -159.22
@<TRIPOS>ATOM
   1 C1        2.8936    -7.6802    -5.8629  C.3     1  <O>11       0.0059
   2 N1        3.6845    -8.8982    -5.7123  N.3     1  <O>11      -0.1930
   3 S1        3.1570    -9.7380    -4.3910  S.O2    1  <O>11       0.0582
   4 O1        3.3260    -8.7960    -3.0330  O.2     1  <O>11      -0.1531
   5 O2        1.5570   -10.1370    -4.5920  O.2     1  <O>11      -0.1531
   6 C2        4.1100   -11.2060    -4.2090  C.ar    1  <O>11       0.1070
   7 C3        5.4910   -11.1070    -4.0270  C.ar    1  <O>11      -0.0352
   8 C4        6.2550   -12.2710    -3.8940  C.ar    1  <O>11      -0.0582
   9 C5        5.6420   -13.5260    -3.9380  C.ar    1  <O>11      -0.0404
  10 C6        4.2560   -13.6090    -4.1160  C.ar    1  <O>11       0.0354
  11 N2        3.6290   -14.9040    -4.1600  N.pl3   1  <O>11      -0.2836
  12 C7        3.6241   -15.7482    -2.9795  C.ar    1  <O>11       0.2200
  13 N3        3.0288   -16.9646    -3.0421  N.ar    1  <O>11      -0.2226
  14 C8        3.0382   -17.7293    -1.9363  C.ar    1  <O>11       0.0332
  15 C9        3.6161   -17.3440    -0.7551  C.ar    1  <O>11      -0.0174
  16 C10       4.1965   -16.1023    -0.7676  C.ar    1  <O>11       0.0760
  17 C11       4.8229   -15.6079     0.4153  C.ar    1  <O>11       0.0005
  18 C12       4.0818   -14.8669     1.3518  C.ar    1  <O>11      -0.0526
  19 C13       4.6992   -14.3708     2.5070  C.ar    1  <O>11      -0.0611
  20 C14       6.0586   -14.6118     2.7363  C.ar    1  <O>11      -0.0617
  21 C15       6.7911   -15.3551     1.8058  C.ar    1  <O>11      -0.0611
  22 C16       6.1840   -15.8550     0.6519  C.ar    1  <O>11      -0.0526
  23 N4        4.2153   -15.3005    -1.8478  N.ar    1  <O>11      -0.2142
  24 C17       3.4840   -12.4530    -4.2470  C.ar    1  <O>11      -0.0141
  25 H1        1.8439    -7.9425    -5.9946  H       1  <O>11       0.0405
  26 H2        3.2419    -7.1263    -6.7347  H       1  <O>11       0.0405
  27 H3        3.0047    -7.0624    -4.9718  H       1  <O>11       0.0405
  28 H4        4.6668    -8.6527    -5.5891  H       1  <O>11       0.1477
  29 H5        3.1884   -15.2291    -5.0203  H       1  <O>11       0.1550
  30 H6        5.9450   -10.1809    -3.9909  H       1  <O>11       0.0637
  31 H7        7.2763   -12.2027    -3.7627  H       1  <O>11       0.0619
  32 H8        6.2064   -14.3845    -3.8401  H       1  <O>11       0.0636
  33 H9        2.5861   -18.6560    -1.9795  H       1  <O>11       0.0831
  34 H10       3.6143   -17.9455     0.0835  H       1  <O>11       0.0654
  35 H11       3.0789   -14.6875     1.1875  H       1  <O>11       0.0624
  36 H12       4.1504   -13.8264     3.1906  H       1  <O>11       0.0618
  37 H13       6.5165   -14.2439     3.5849  H       1  <O>11       0.0618
  38 H14       7.7930   -15.5366     1.9739  H       1  <O>11       0.0618
  39 H15       6.7350   -16.4051    -0.0254  H       1  <O>11       0.0624
  40 H16       2.4616   -12.5198    -4.3706  H       1  <O>11       0.0656
@<TRIPOS>BOND
     1     1     2    1
     2     2     3    1
     3     3     4    2
     4     3     5    2
     5     3     6    1
     6     6     7   ar
     7     7     8   ar
     8     8     9   ar
     9     9    10   ar
    10    10    11    1
    11    11    12    1
    12    12    13   ar
    13    13    14   ar
    14    14    15   ar
    15    15    16   ar
    16    16    17    1
    17    17    18   ar
    18    18    19   ar
    19    19    20   ar
    20    20    21   ar
    21    21    22   ar
    22    17    22   ar
    23    16    23   ar
    24    12    23   ar
    25    10    24   ar
    26     6    24   ar
    27     1    25    1
    28     1    26    1
    29     1    27    1
    30     2    28    1
    31    11    29    1
    32     7    30    1
    33     8    31    1
    34     9    32    1
    35    14    33    1
    36    15    34    1
    37    18    35    1
    38    19    36    1
    39    20    37    1
    40    21    38    1
    41    22    39    1
    42    24    40    1
@<TRIPOS>MOLECULE
mol69_3_4
 40 42 0 0 0
SMALL
USER_CHARGES
****
VDW energy = -157.75
@<TRIPOS>ATOM
   1 C1        2.8936    -7.6802    -5.8629  C.3     1  <O>11       0.0059
   2 N1        3.6845    -8.8982    -5.7123  N.3     1  <O>11      -0.1930
   3 S1        3.1570    -9.7380    -4.3910  S.O2    1  <O>11       0.0582
   4 O1        3.3260    -8.7960    -3.0330  O.2     1  <O>11      -0.1531
   5 O2        1.5570   -10.1370    -4.5920  O.2     1  <O>11      -0.1531
   6 C2        4.1100   -11.2060    -4.2090  C.ar    1  <O>11       0.1070
   7 C3        4.1160   -12.1498    -5.2382  C.ar    1  <O>11      -0.0352
   8 C4        4.8620   -13.3240    -5.0938  C.ar    1  <O>11      -0.0582
   9 C5        5.6011   -13.5515    -3.9299  C.ar    1  <O>11      -0.0404
  10 C6        5.5892   -12.5938    -2.9090  C.ar    1  <O>11       0.0354
  11 N2        6.3527   -12.8323    -1.7122  N.pl3   1  <O>11      -0.2836
  12 C7        5.7441   -13.5199    -0.5883  C.ar    1  <O>11       0.2200
  13 N3        5.8312   -14.8709    -0.5171  N.ar    1  <O>11      -0.2226
  14 C8        5.2611   -15.4855     0.5340  C.ar    1  <O>11       0.0332
  15 C9        4.5997   -14.8193     1.5322  C.ar    1  <O>11      -0.0174
  16 C10       4.5514   -13.4567     1.3914  C.ar    1  <O>11       0.0760
  17 C11       3.8823   -12.6719     2.3776  C.ar    1  <O>11       0.0005
  18 C12       2.5134   -12.3833     2.2431  C.ar    1  <O>11      -0.0526
  19 C13       1.8590   -11.6027     3.2044  C.ar    1  <O>11      -0.0611
  20 C14       2.5650   -11.1063     4.3063  C.ar    1  <O>11      -0.0617
  21 C15       3.9251   -11.4012     4.4402  C.ar    1  <O>11      -0.0611
  22 C16       4.5858   -12.1799     3.4878  C.ar    1  <O>11      -0.0526
  23 N4        5.1073   -12.7950     0.3602  N.ar    1  <O>11      -0.2142
  24 C17       4.8500   -11.4171    -3.0445  C.ar    1  <O>11      -0.0141
  25 H1        1.8439    -7.9425    -5.9946  H       1  <O>11       0.0405
  26 H2        3.2419    -7.1263    -6.7347  H       1  <O>11       0.0405
  27 H3        3.0047    -7.0624    -4.9718  H       1  <O>11       0.0405
  28 H4        4.6668    -8.6527    -5.5891  H       1  <O>11       0.1477
  29 H5        7.3210   -12.5182    -1.6531  H       1  <O>11       0.1550
  30 H6        3.5734   -11.9820    -6.0999  H       1  <O>11       0.0637
  31 H7        4.8667   -14.0258    -5.8504  H       1  <O>11       0.0619
  32 H8        6.1512   -14.4183    -3.8238  H       1  <O>11       0.0636
  33 H9        5.3249   -16.5139     0.5922  H       1  <O>11       0.0831
  34 H10       4.1689   -15.3083     2.3324  H       1  <O>11       0.0654
  35 H11       1.9884   -12.7479     1.4329  H       1  <O>11       0.0624
  36 H12       0.8540   -11.3930     3.1000  H       1  <O>11       0.0618
  37 H13       2.0857   -10.5277     5.0138  H       1  <O>11       0.0618
  38 H14       4.4473   -11.0389     5.2532  H       1  <O>11       0.0618
  39 H15       5.5892   -12.3931     3.6000  H       1  <O>11       0.0624
  40 H16       4.8507   -10.7111    -2.2918  H       1  <O>11       0.0656
@<TRIPOS>BOND
     1     1     2    1
     2     2     3    1
     3     3     4    2
     4     3     5    2
     5     3     6    1
     6     6     7   ar
     7     7     8   ar
     8     8     9   ar
     9     9    10   ar
    10    10    11    1
    11    11    12    1
    12    12    13   ar
    13    13    14   ar
    14    14    15   ar
    15    15    16   ar
    16    16    17    1
    17    17    18   ar
    18    18    19   ar
    19    19    20   ar
    20    20    21   ar
    21    21    22   ar
    22    17    22   ar
    23    16    23   ar
    24    12    23   ar
    25    10    24   ar
    26     6    24   ar
    27     1    25    1
    28     1    26    1
    29     1    27    1
    30     2    28    1
    31    11    29    1
    32     7    30    1
    33     8    31    1
    34     9    32    1
    35    14    33    1
    36    15    34    1
    37    18    35    1
    38    19    36    1
    39    20    37    1
    40    21    38    1
    41    22    39    1
    42    24    40    1
@<TRIPOS>MOLECULE
mol69_3_5
 40 42 0 0 0
SMALL
USER_CHARGES
****
VDW energy = -157.67
@<TRIPOS>ATOM
   1 C1        2.8936    -7.6802    -5.8629  C.3     1  <O>11       0.0059
   2 N1        3.6845    -8.8982    -5.7123  N.3     1  <O>11      -0.1930
   3 S1        3.1570    -9.7380    -4.3910  S.O2    1  <O>11       0.0582
   4 O1        3.3260    -8.7960    -3.0330  O.2     1  <O>11      -0.1531
   5 O2        1.5570   -10.1370    -4.5920  O.2     1  <O>11      -0.1531
   6 C2        4.1100   -11.2060    -4.2090  C.ar    1  <O>11       0.1070
   7 C3        5.4910   -11.1070    -4.0270  C.ar    1  <O>11      -0.0352
   8 C4        6.2550   -12.2710    -3.8940  C.ar    1  <O>11      -0.0582
   9 C5        5.6420   -13.5260    -3.9380  C.ar    1  <O>11      -0.0404
  10 C6        4.2560   -13.6090    -4.1160  C.ar    1  <O>11       0.0354
  11 N2        3.6290   -14.9040    -4.1600  N.pl3   1  <O>11      -0.2836
  12 C7        3.6241   -15.7482    -2.9795  C.ar    1  <O>11       0.2200
  13 N3        3.0288   -16.9646    -3.0421  N.ar    1  <O>11      -0.2226
  14 C8        3.0382   -17.7293    -1.9363  C.ar    1  <O>11       0.0332
  15 C9        3.6161   -17.3440    -0.7551  C.ar    1  <O>11      -0.0174
  16 C10       4.1965   -16.1023    -0.7676  C.ar    1  <O>11       0.0760
  17 C11       4.8229   -15.6079     0.4153  C.ar    1  <O>11       0.0005
  18 C12       6.1895   -15.2795     0.4080  C.ar    1  <O>11      -0.0526
  19 C13       6.8077   -14.8059     1.5721  C.ar    1  <O>11      -0.0611
  20 C14       6.0671   -14.6556     2.7501  C.ar    1  <O>11      -0.0617
  21 C15       4.7064   -14.9770     2.7518  C.ar    1  <O>11      -0.0611
  22 C16       4.0809   -15.4484     1.5957  C.ar    1  <O>11      -0.0526
  23 N4        4.2153   -15.3005    -1.8478  N.ar    1  <O>11      -0.2142
  24 C17       3.4840   -12.4530    -4.2470  C.ar    1  <O>11      -0.0141
  25 H1        1.8439    -7.9425    -5.9946  H       1  <O>11       0.0405
  26 H2        3.2419    -7.1263    -6.7347  H       1  <O>11       0.0405
  27 H3        3.0047    -7.0624    -4.9718  H       1  <O>11       0.0405
  28 H4        4.6668    -8.6527    -5.5891  H       1  <O>11       0.1477
  29 H5        3.1884   -15.2291    -5.0203  H       1  <O>11       0.1550
  30 H6        5.9450   -10.1809    -3.9909  H       1  <O>11       0.0637
  31 H7        7.2763   -12.2027    -3.7627  H       1  <O>11       0.0619
  32 H8        6.2064   -14.3845    -3.8401  H       1  <O>11       0.0636
  33 H9        2.5861   -18.6560    -1.9795  H       1  <O>11       0.0831
  34 H10       3.6143   -17.9455     0.0835  H       1  <O>11       0.0654
  35 H11       6.7395   -15.3876    -0.4585  H       1  <O>11       0.0624
  36 H12       7.8117   -14.5673     1.5613  H       1  <O>11       0.0618
  37 H13       6.5215   -14.3106     3.6101  H       1  <O>11       0.0618
  38 H14       4.1573   -14.8644     3.6183  H       1  <O>11       0.0618
  39 H15       3.0752   -15.6789     1.6093  H       1  <O>11       0.0624
  40 H16       2.4616   -12.5198    -4.3706  H       1  <O>11       0.0656
@<TRIPOS>BOND
     1     1     2    1
     2     2     3    1
     3     3     4    2
     4     3     5    2
     5     3     6    1
     6     6     7   ar
     7     7     8   ar
     8     8     9   ar
     9     9    10   ar
    10    10    11    1
    11    11    12    1
    12    12    13   ar
    13    13    14   ar
    14    14    15   ar
    15    15    16   ar
    16    16    17    1
    17    17    18   ar
    18    18    19   ar
    19    19    20   ar
    20    20    21   ar
    21    21    22   ar
    22    17    22   ar
    23    16    23   ar
    24    12    23   ar
    25    10    24   ar
    26     6    24   ar
    27     1    25    1
    28     1    26    1
    29     1    27    1
    30     2    28    1
    31    11    29    1
    32     7    30    1
    33     8    31    1
    34     9    32    1
    35    14    33    1
    36    15    34    1
    37    18    35    1
    38    19    36    1
    39    20    37    1
    40    21    38    1
    41    22    39    1
    42    24    40    1
@<TRIPOS>MOLECULE
mol69_3_6
 40 42 0 0 0
SMALL
USER_CHARGES
****
VDW energy = -157.14
@<TRIPOS>ATOM
   1 C1        2.8936    -7.6802    -5.8629  C.3     1  <O>11       0.0059
   2 N1        3.6845    -8.8982    -5.7123  N.3     1  <O>11      -0.1930
   3 S1        3.1570    -9.7380    -4.3910  S.O2    1  <O>11       0.0582
   4 O1        3.3260    -8.7960    -3.0330  O.2     1  <O>11      -0.1531
   5 O2        1.5570   -10.1370    -4.5920  O.2     1  <O>11      -0.1531
   6 C2        4.1100   -11.2060    -4.2090  C.ar    1  <O>11       0.1070
   7 C3        3.8346   -12.0735    -3.1499  C.ar    1  <O>11      -0.0352
   8 C4        4.5970   -13.2357    -2.9934  C.ar    1  <O>11      -0.0582
   9 C5        5.6252   -13.5313    -3.8924  C.ar    1  <O>11      -0.0404
  10 C6        5.8860   -12.6545    -4.9521  C.ar    1  <O>11       0.0354
  11 N2        6.9457   -12.9636    -5.8760  N.pl3   1  <O>11      -0.2836
  12 C7        6.8403   -14.1263    -6.7382  C.ar    1  <O>11       0.2200
  13 N3        6.2636   -13.9918    -7.9577  N.ar    1  <O>11      -0.2226
  14 C8        6.1786   -15.0825    -8.7393  C.ar    1  <O>11       0.0332
  15 C9        6.6431   -16.3170    -8.3680  C.ar    1  <O>11      -0.0174
  16 C10       7.2116   -16.3758    -7.1222  C.ar    1  <O>11       0.0760
  17 C11       7.7234   -17.6180    -6.6416  C.ar    1  <O>11       0.0005
  18 C12       6.8937   -18.4937    -5.9203  C.ar    1  <O>11      -0.0526
  19 C13       7.3989   -19.7075    -5.4377  C.ar    1  <O>11      -0.0611
  20 C14       8.7338   -20.0565    -5.6724  C.ar    1  <O>11      -0.0617
  21 C15       9.5543   -19.1859    -6.3961  C.ar    1  <O>11      -0.0611
  22 C16       9.0592   -17.9743    -6.8826  C.ar    1  <O>11      -0.0526
  23 N4        7.3220   -15.3136    -6.3038  N.ar    1  <O>11      -0.2142
  24 C17       5.1290   -11.4932    -5.1187  C.ar    1  <O>11      -0.0141
  25 H1        1.8439    -7.9425    -5.9946  H       1  <O>11       0.0405
  26 H2        3.2419    -7.1263    -6.7347  H       1  <O>11       0.0405
  27 H3        3.0047    -7.0624    -4.9718  H       1  <O>11       0.0405
  28 H4        4.6668    -8.6527    -5.5891  H       1  <O>11       0.1477
  29 H5        7.7708   -12.3665    -5.9250  H       1  <O>11       0.1550
  30 H6        3.0735   -11.8585    -2.4869  H       1  <O>11       0.0637
  31 H7        4.3993   -13.8780    -2.2102  H       1  <O>11       0.0619
  32 H8        6.1875   -14.3888    -3.7762  H       1  <O>11       0.0636
  33 H9        5.7402   -14.9846    -9.6684  H       1  <O>11       0.0831
  34 H10       6.5700   -17.1431    -8.9823  H       1  <O>11       0.0654
  35 H11       5.9085   -18.2412    -5.7456  H       1  <O>11       0.0624
  36 H12       6.7855   -20.3461    -4.9077  H       1  <O>11       0.0618
  37 H13       9.1093   -20.9486    -5.3143  H       1  <O>11       0.0618
  38 H14      10.5382   -19.4421    -6.5731  H       1  <O>11       0.0618
  39 H15       9.6743   -17.3421    -7.4182  H       1  <O>11       0.0624
  40 H16       5.3207   -10.8541    -5.9060  H       1  <O>11       0.0656
@<TRIPOS>BOND
     1     1     2    1
     2     2     3    1
     3     3     4    2
     4     3     5    2
     5     3     6    1
     6     6     7   ar
     7     7     8   ar
     8     8     9   ar
     9     9    10   ar
    10    10    11    1
    11    11    12    1
    12    12    13   ar
    13    13    14   ar
    14    14    15   ar
    15    15    16   ar
    16    16    17    1
    17    17    18   ar
    18    18    19   ar
    19    19    20   ar
    20    20    21   ar
    21    21    22   ar
    22    17    22   ar
    23    16    23   ar
    24    12    23   ar
    25    10    24   ar
    26     6    24   ar
    27     1    25    1
    28     1    26    1
    29     1    27    1
    30     2    28    1
    31    11    29    1
    32     7    30    1
    33     8    31    1
    34     9    32    1
    35    14    33    1
    36    15    34    1
    37    18    35    1
    38    19    36    1
    39    20    37    1
    40    21    38    1
    41    22    39    1
    42    24    40    1
@<TRIPOS>MOLECULE
mol69_3_7
 40 42 0 0 0
SMALL
USER_CHARGES
****
VDW energy = -156.61
@<TRIPOS>ATOM
   1 C1        2.8936    -7.6802    -5.8629  C.3     1  <O>11       0.0059
   2 N1        3.6845    -8.8982    -5.7123  N.3     1  <O>11      -0.1930
   3 S1        3.1570    -9.7380    -4.3910  S.O2    1  <O>11       0.0582
   4 O1        3.3260    -8.7960    -3.0330  O.2     1  <O>11      -0.1531
   5 O2        1.5570   -10.1370    -4.5920  O.2     1  <O>11      -0.1531
   6 C2        4.1100   -11.2060    -4.2090  C.ar    1  <O>11       0.1070
   7 C3        5.4910   -11.1070    -4.0270  C.ar    1  <O>11      -0.0352
   8 C4        6.2550   -12.2710    -3.8940  C.ar    1  <O>11      -0.0582
   9 C5        5.6420   -13.5260    -3.9380  C.ar    1  <O>11      -0.0404
  10 C6        4.2560   -13.6090    -4.1160  C.ar    1  <O>11       0.0354
  11 N2        3.6290   -14.9040    -4.1600  N.pl3   1  <O>11      -0.2836
  12 C7        2.1930   -15.0090    -4.3420  C.ar    1  <O>11       0.2200
  13 N3        1.6926   -15.0900    -5.5994  N.ar    1  <O>11      -0.2226
  14 C8        0.3594   -15.1881    -5.7428  C.ar    1  <O>11       0.0332
  15 C9       -0.5152   -15.2104    -4.6882  C.ar    1  <O>11      -0.0174
  16 C10       0.0635   -15.1231    -3.4487  C.ar    1  <O>11       0.0760
  17 C11      -0.7627   -15.1350    -2.2854  C.ar    1  <O>11       0.0005
  18 C12      -1.2548   -13.9303    -1.7545  C.ar    1  <O>11      -0.0526
  19 C13      -2.0556   -13.9405    -0.6055  C.ar    1  <O>11      -0.0611
  20 C14      -2.3719   -15.1517     0.0204  C.ar    1  <O>11      -0.0617
  21 C15      -1.8861   -16.3487    -0.5145  C.ar    1  <O>11      -0.0611
  22 C16      -1.0882   -16.3487    -1.6605  C.ar    1  <O>11      -0.0526
  23 N4        1.3910   -15.0254    -3.2525  N.ar    1  <O>11      -0.2142
  24 C17       3.4840   -12.4530    -4.2470  C.ar    1  <O>11      -0.0141
  25 H1        1.8439    -7.9425    -5.9946  H       1  <O>11       0.0405
  26 H2        3.2419    -7.1263    -6.7347  H       1  <O>11       0.0405
  27 H3        3.0047    -7.0624    -4.9718  H       1  <O>11       0.0405
  28 H4        4.6668    -8.6527    -5.5891  H       1  <O>11       0.1477
  29 H5        4.1930   -15.7480    -4.0630  H       1  <O>11       0.1550
  30 H6        5.9450   -10.1809    -3.9909  H       1  <O>11       0.0637
  31 H7        7.2763   -12.2027    -3.7627  H       1  <O>11       0.0619
  32 H8        6.2064   -14.3845    -3.8401  H       1  <O>11       0.0636
  33 H9       -0.0258   -15.2499    -6.6982  H       1  <O>11       0.0831
  34 H10      -1.5361   -15.2873    -4.8178  H       1  <O>11       0.0654
  35 H11      -1.0252   -13.0348    -2.2131  H       1  <O>11       0.0624
  36 H12      -2.4133   -13.0528    -0.2194  H       1  <O>11       0.0618
  37 H13      -2.9585   -15.1612     0.8694  H       1  <O>11       0.0618
  38 H14      -2.1201   -17.2434    -0.0566  H       1  <O>11       0.0618
  39 H15      -0.7388   -17.2394    -2.0472  H       1  <O>11       0.0624
  40 H16       2.4616   -12.5198    -4.3706  H       1  <O>11       0.0656
@<TRIPOS>BOND
     1     1     2    1
     2     2     3    1
     3     3     4    2
     4     3     5    2
     5     3     6    1
     6     6     7   ar
     7     7     8   ar
     8     8     9   ar
     9     9    10   ar
    10    10    11    1
    11    11    12    1
    12    12    13   ar
    13    13    14   ar
    14    14    15   ar
    15    15    16   ar
    16    16    17    1
    17    17    18   ar
    18    18    19   ar
    19    19    20   ar
    20    20    21   ar
    21    21    22   ar
    22    17    22   ar
    23    16    23   ar
    24    12    23   ar
    25    10    24   ar
    26     6    24   ar
    27     1    25    1
    28     1    26    1
    29     1    27    1
    30     2    28    1
    31    11    29    1
    32     7    30    1
    33     8    31    1
    34     9    32    1
    35    14    33    1
    36    15    34    1
    37    18    35    1
    38    19    36    1
    39    20    37    1
    40    21    38    1
    41    22    39    1
    42    24    40    1
@<TRIPOS>MOLECULE
mol69_3_8
 40 42 0 0 0
SMALL
USER_CHARGES
****
VDW energy = -156.47
@<TRIPOS>ATOM
   1 C1        2.8936    -7.6802    -5.8629  C.3     1  <O>11       0.0059
   2 N1        3.6845    -8.8982    -5.7123  N.3     1  <O>11      -0.1930
   3 S1        3.1570    -9.7380    -4.3910  S.O2    1  <O>11       0.0582
   4 O1        3.3260    -8.7960    -3.0330  O.2     1  <O>11      -0.1531
   5 O2        1.5570   -10.1370    -4.5920  O.2     1  <O>11      -0.1531
   6 C2        4.1100   -11.2060    -4.2090  C.ar    1  <O>11       0.1070
   7 C3        4.1160   -12.1498    -5.2382  C.ar    1  <O>11      -0.0352
   8 C4        4.8620   -13.3240    -5.0938  C.ar    1  <O>11      -0.0582
   9 C5        5.6011   -13.5515    -3.9299  C.ar    1  <O>11      -0.0404
  10 C6        5.5892   -12.5938    -2.9090  C.ar    1  <O>11       0.0354
  11 N2        6.3527   -12.8323    -1.7122  N.pl3   1  <O>11      -0.2836
  12 C7        6.3535   -11.8496    -0.6442  C.ar    1  <O>11       0.2200
  13 N3        5.4168   -11.9369     0.3320  N.ar    1  <O>11      -0.2226
  14 C8        5.4385   -11.0162     1.3115  C.ar    1  <O>11       0.0332
  15 C9        6.3546    -9.9991     1.3733  C.ar    1  <O>11      -0.0174
  16 C10       7.2686    -9.9745     0.3520  C.ar    1  <O>11       0.0760
  17 C11       8.2634    -8.9520     0.3242  C.ar    1  <O>11       0.0005
  18 C12       8.0127    -7.7386    -0.3394  C.ar    1  <O>11      -0.0526
  19 C13       8.9933    -6.7394    -0.3776  C.ar    1  <O>11      -0.0611
  20 C14      10.2293    -6.9431     0.2467  C.ar    1  <O>11      -0.0617
  21 C15      10.4726    -8.1488     0.9116  C.ar    1  <O>11      -0.0611
  22 C16       9.5005    -9.1502     0.9563  C.ar    1  <O>11      -0.0526
  23 N4        7.2900   -10.8731    -0.6491  N.ar    1  <O>11      -0.2142
  24 C17       4.8500   -11.4171    -3.0445  C.ar    1  <O>11      -0.0141
  25 H1        1.8439    -7.9425    -5.9946  H       1  <O>11       0.0405
  26 H2        3.2419    -7.1263    -6.7347  H       1  <O>11       0.0405
  27 H3        3.0047    -7.0624    -4.9718  H       1  <O>11       0.0405
  28 H4        4.6668    -8.6527    -5.5891  H       1  <O>11       0.1477
  29 H5        6.8935   -13.6913    -1.6141  H       1  <O>11       0.1550
  30 H6        3.5734   -11.9820    -6.0999  H       1  <O>11       0.0637
  31 H7        4.8667   -14.0258    -5.8504  H       1  <O>11       0.0619
  32 H8        6.1512   -14.4183    -3.8238  H       1  <O>11       0.0636
  33 H9        4.7272   -11.0789     2.0566  H       1  <O>11       0.0831
  34 H10       6.3563    -9.3017     2.1340  H       1  <O>11       0.0654
  35 H11       7.1024    -7.5833    -0.8002  H       1  <O>11       0.0624
  36 H12       8.8042    -5.8509    -0.8672  H       1  <O>11       0.0618
  37 H13      10.9549    -6.2098     0.2164  H       1  <O>11       0.0618
  38 H14      11.3821    -8.3005     1.3751  H       1  <O>11       0.0618
  39 H15       9.6914   -10.0343     1.4532  H       1  <O>11       0.0624
  40 H16       4.8507   -10.7111    -2.2918  H       1  <O>11       0.0656
@<TRIPOS>BOND
     1     1     2    1
     2     2     3    1
     3     3     4    2
     4     3     5    2
     5     3     6    1
     6     6     7   ar
     7     7     8   ar
     8     8     9   ar
     9     9    10   ar
    10    10    11    1
    11    11    12    1
    12    12    13   ar
    13    13    14   ar
    14    14    15   ar
    15    15    16   ar
    16    16    17    1
    17    17    18   ar
    18    18    19   ar
    19    19    20   ar
    20    20    21   ar
    21    21    22   ar
    22    17    22   ar
    23    16    23   ar
    24    12    23   ar
    25    10    24   ar
    26     6    24   ar
    27     1    25    1
    28     1    26    1
    29     1    27    1
    30     2    28    1
    31    11    29    1
    32     7    30    1
    33     8    31    1
    34     9    32    1
    35    14    33    1
    36    15    34    1
    37    18    35    1
    38    19    36    1
    39    20    37    1
    40    21    38    1
    41    22    39    1
    42    24    40    1
@<TRIPOS>MOLECULE
mol69_3_9
 40 42 0 0 0
SMALL
USER_CHARGES
****
VDW energy = -155.48
@<TRIPOS>ATOM
   1 C1        2.8936    -7.6802    -5.8629  C.3     1  <O>11       0.0059
   2 N1        3.6845    -8.8982    -5.7123  N.3     1  <O>11      -0.1930
   3 S1        3.1570    -9.7380    -4.3910  S.O2    1  <O>11       0.0582
   4 O1        3.3260    -8.7960    -3.0330  O.2     1  <O>11      -0.1531
   5 O2        1.5570   -10.1370    -4.5920  O.2     1  <O>11      -0.1531
   6 C2        4.1100   -11.2060    -4.2090  C.ar    1  <O>11       0.1070
   7 C3        3.8346   -12.0735    -3.1499  C.ar    1  <O>11      -0.0352
   8 C4        4.5970   -13.2357    -2.9934  C.ar    1  <O>11      -0.0582
   9 C5        5.6252   -13.5313    -3.8924  C.ar    1  <O>11      -0.0404
  10 C6        5.8860   -12.6545    -4.9521  C.ar    1  <O>11       0.0354
  11 N2        6.9457   -12.9636    -5.8760  N.pl3   1  <O>11      -0.2836
  12 C7        6.8403   -14.1263    -6.7382  C.ar    1  <O>11       0.2200
  13 N3        6.2636   -13.9918    -7.9577  N.ar    1  <O>11      -0.2226
  14 C8        6.1786   -15.0825    -8.7393  C.ar    1  <O>11       0.0332
  15 C9        6.6431   -16.3170    -8.3680  C.ar    1  <O>11      -0.0174
  16 C10       7.2116   -16.3758    -7.1222  C.ar    1  <O>11       0.0760
  17 C11       7.7234   -17.6180    -6.6416  C.ar    1  <O>11       0.0005
  18 C12       9.0821   -17.7403    -6.3033  C.ar    1  <O>11      -0.0526
  19 C13       9.5876   -18.9628    -5.8433  C.ar    1  <O>11      -0.0611
  20 C14       8.7414   -20.0704    -5.7164  C.ar    1  <O>11      -0.0617
  21 C15       7.3889   -19.9431    -6.0474  C.ar    1  <O>11      -0.0611
  22 C16       6.8755   -18.7280    -6.5055  C.ar    1  <O>11      -0.0526
  23 N4        7.3220   -15.3136    -6.3038  N.ar    1  <O>11      -0.2142
  24 C17       5.1290   -11.4932    -5.1187  C.ar    1  <O>11      -0.0141
  25 H1        1.8439    -7.9425    -5.9946  H       1  <O>11       0.0405
  26 H2        3.2419    -7.1263    -6.7347  H       1  <O>11       0.0405
  27 H3        3.0047    -7.0624    -4.9718  H       1  <O>11       0.0405
  28 H4        4.6668    -8.6527    -5.5891  H       1  <O>11       0.1477
  29 H5        7.7708   -12.3665    -5.9250  H       1  <O>11       0.1550
  30 H6        3.0735   -11.8585    -2.4869  H       1  <O>11       0.0637
  31 H7        4.3993   -13.8780    -2.2102  H       1  <O>11       0.0619
  32 H8        6.1875   -14.3888    -3.7762  H       1  <O>11       0.0636
  33 H9        5.7402   -14.9846    -9.6684  H       1  <O>11       0.0831
  34 H10       6.5700   -17.1431    -8.9823  H       1  <O>11       0.0654
  35 H11       9.7097   -16.9261    -6.3942  H       1  <O>11       0.0624
  36 H12      10.5863   -19.0472    -5.5974  H       1  <O>11       0.0618
  37 H13       9.1125   -20.9732    -5.3814  H       1  <O>11       0.0618
  38 H14       6.7622   -20.7574    -5.9521  H       1  <O>11       0.0618
  39 H15       5.8747   -18.6463    -6.7433  H       1  <O>11       0.0624
  40 H16       5.3207   -10.8541    -5.9060  H       1  <O>11       0.0656
@<TRIPOS>BOND
     1     1     2    1
     2     2     3    1
     3     3     4    2
     4     3     5    2
     5     3     6    1
     6     6     7   ar
     7     7     8   ar
     8     8     9   ar
     9     9    10   ar
    10    10    11    1
    11    11    12    1
    12    12    13   ar
    13    13    14   ar
    14    14    15   ar
    15    15    16   ar
    16    16    17    1
    17    17    18   ar
    18    18    19   ar
    19    19    20   ar
    20    20    21   ar
    21    21    22   ar
    22    17    22   ar
    23    16    23   ar
    24    12    23   ar
    25    10    24   ar
    26     6    24   ar
    27     1    25    1
    28     1    26    1
    29     1    27    1
    30     2    28    1
    31    11    29    1
    32     7    30    1
    33     8    31    1
    34     9    32    1
    35    14    33    1
    36    15    34    1
    37    18    35    1
    38    19    36    1
    39    20    37    1
    40    21    38    1
    41    22    39    1
    42    24    40    1
@<TRIPOS>MOLECULE
mol69_3_10
 40 42 0 0 0
SMALL
USER_CHARGES
****
VDW energy = -155.41
@<TRIPOS>ATOM
   1 C1        2.8936    -7.6802    -5.8629  C.3     1  <O>11       0.0059
   2 N1        3.6845    -8.8982    -5.7123  N.3     1  <O>11      -0.1930
   3 S1        3.1570    -9.7380    -4.3910  S.O2    1  <O>11       0.0582
   4 O1        3.3260    -8.7960    -3.0330  O.2     1  <O>11      -0.1531
   5 O2        1.5570   -10.1370    -4.5920  O.2     1  <O>11      -0.1531
   6 C2        4.1100   -11.2060    -4.2090  C.ar    1  <O>11       0.1070
   7 C3        5.4910   -11.1070    -4.0270  C.ar    1  <O>11      -0.0352
   8 C4        6.2550   -12.2710    -3.8940  C.ar    1  <O>11      -0.0582
   9 C5        5.6420   -13.5260    -3.9380  C.ar    1  <O>11      -0.0404
  10 C6        4.2560   -13.6090    -4.1160  C.ar    1  <O>11       0.0354
  11 N2        3.6290   -14.9040    -4.1600  N.pl3   1  <O>11      -0.2836
  12 C7        2.1930   -15.0090    -4.3420  C.ar    1  <O>11       0.2200
  13 N3        1.6462   -14.6028    -5.5141  N.ar    1  <O>11      -0.2226
  14 C8        0.3140   -14.7112    -5.6600  C.ar    1  <O>11       0.0332
  15 C9       -0.5152   -15.2089    -4.6893  C.ar    1  <O>11      -0.0174
  16 C10       0.1089   -15.5976    -3.5324  C.ar    1  <O>11       0.0760
  17 C11      -0.6681   -16.1271    -2.4591  C.ar    1  <O>11       0.0005
  18 C12      -1.1921   -15.2710    -1.4753  C.ar    1  <O>11      -0.0526
  19 C13      -1.9444   -15.7916    -0.4148  C.ar    1  <O>11      -0.0611
  20 C14      -2.1801   -17.1685    -0.3293  C.ar    1  <O>11      -0.0617
  21 C15      -1.6629   -18.0163    -1.3136  C.ar    1  <O>11      -0.0611
  22 C16      -0.9130   -17.5064    -2.3754  C.ar    1  <O>11      -0.0526
  23 N4        1.4374   -15.5113    -3.3383  N.ar    1  <O>11      -0.2142
  24 C17       3.4840   -12.4530    -4.2470  C.ar    1  <O>11      -0.0141
  25 H1        1.8439    -7.9425    -5.9946  H       1  <O>11       0.0405
  26 H2        3.2419    -7.1263    -6.7347  H       1  <O>11       0.0405
  27 H3        3.0047    -7.0624    -4.9718  H       1  <O>11       0.0405
  28 H4        4.6668    -8.6527    -5.5891  H       1  <O>11       0.1477
  29 H5        4.1930   -15.7480    -4.0630  H       1  <O>11       0.1550
  30 H6        5.9450   -10.1809    -3.9909  H       1  <O>11       0.0637
  31 H7        7.2763   -12.2027    -3.7627  H       1  <O>11       0.0619
  32 H8        6.2064   -14.3845    -3.8401  H       1  <O>11       0.0636
  33 H9       -0.1064   -14.4030    -6.5507  H       1  <O>11       0.0831
  34 H10      -1.5360   -15.2855    -4.8198  H       1  <O>11       0.0654
  35 H11      -1.0219   -14.2549    -1.5346  H       1  <O>11       0.0624
  36 H12      -2.3259   -15.1584     0.3054  H       1  <O>11       0.0618
  37 H13      -2.7308   -17.5547     0.4534  H       1  <O>11       0.0618
  38 H14      -1.8376   -19.0317    -1.2545  H       1  <O>11       0.0618
  39 H15      -0.5396   -18.1425    -3.0972  H       1  <O>11       0.0624
  40 H16       2.4616   -12.5198    -4.3706  H       1  <O>11       0.0656
@<TRIPOS>BOND
     1     1     2    1
     2     2     3    1
     3     3     4    2
     4     3     5    2
     5     3     6    1
     6     6     7   ar
     7     7     8   ar
     8     8     9   ar
     9     9    10   ar
    10    10    11    1
    11    11    12    1
    12    12    13   ar
    13    13    14   ar
    14    14    15   ar
    15    15    16   ar
    16    16    17    1
    17    17    18   ar
    18    18    19   ar
    19    19    20   ar
    20    20    21   ar
    21    21    22   ar
    22    17    22   ar
    23    16    23   ar
    24    12    23   ar
    25    10    24   ar
    26     6    24   ar
    27     1    25    1
    28     1    26    1
    29     1    27    1
    30     2    28    1
    31    11    29    1
    32     7    30    1
    33     8    31    1
    34     9    32    1
    35    14    33    1
    36    15    34    1
    37    18    35    1
    38    19    36    1
    39    20    37    1
    40    21    38    1
    41    22    39    1
    42    24    40    1
@<TRIPOS>MOLECULE
mol69_3_11
 40 42 0 0 0
SMALL
USER_CHARGES
****
VDW energy = -155.22
@<TRIPOS>ATOM
   1 C1        2.8936    -7.6802    -5.8629  C.3     1  <O>11       0.0059
   2 N1        3.6845    -8.8982    -5.7123  N.3     1  <O>11      -0.1930
   3 S1        3.1570    -9.7380    -4.3910  S.O2    1  <O>11       0.0582
   4 O1        3.3260    -8.7960    -3.0330  O.2     1  <O>11      -0.1531
   5 O2        1.5570   -10.1370    -4.5920  O.2     1  <O>11      -0.1531
   6 C2        4.1100   -11.2060    -4.2090  C.ar    1  <O>11       0.1070
   7 C3        5.4910   -11.1070    -4.0270  C.ar    1  <O>11      -0.0352
   8 C4        6.2550   -12.2710    -3.8940  C.ar    1  <O>11      -0.0582
   9 C5        5.6420   -13.5260    -3.9380  C.ar    1  <O>11      -0.0404
  10 C6        4.2560   -13.6090    -4.1160  C.ar    1  <O>11       0.0354
  11 N2        3.6290   -14.9040    -4.1600  N.pl3   1  <O>11      -0.2836
  12 C7        2.1930   -15.0090    -4.3420  C.ar    1  <O>11       0.2200
  13 N3        1.3701   -14.5420    -3.3711  N.ar    1  <O>11      -0.2226
  14 C8        0.0437   -14.6488    -3.5628  C.ar    1  <O>11       0.0332
  15 C9       -0.5163   -15.2028    -4.6840  C.ar    1  <O>11      -0.0174
  16 C10       0.3776   -15.6538    -5.6203  C.ar    1  <O>11       0.0760
  17 C11      -0.1060   -16.2503    -6.8230  C.ar    1  <O>11       0.0005
  18 C12      -0.3337   -17.6359    -6.8839  C.ar    1  <O>11      -0.0526
  19 C13      -0.7966   -18.2236    -8.0679  C.ar    1  <O>11      -0.0611
  20 C14      -1.0367   -17.4335    -9.1979  C.ar    1  <O>11      -0.0617
  21 C15      -0.8155   -16.0545    -9.1315  C.ar    1  <O>11      -0.0611
  22 C16      -0.3555   -15.4594    -7.9550  C.ar    1  <O>11      -0.0526
  23 N4        1.7125   -15.5683    -5.4765  N.ar    1  <O>11      -0.2142
  24 C17       3.4840   -12.4530    -4.2470  C.ar    1  <O>11      -0.0141
  25 H1        1.8439    -7.9425    -5.9946  H       1  <O>11       0.0405
  26 H2        3.2419    -7.1263    -6.7347  H       1  <O>11       0.0405
  27 H3        3.0047    -7.0624    -4.9718  H       1  <O>11       0.0405
  28 H4        4.6668    -8.6527    -5.5891  H       1  <O>11       0.1477
  29 H5        4.1930   -15.7480    -4.0630  H       1  <O>11       0.1550
  30 H6        5.9450   -10.1809    -3.9909  H       1  <O>11       0.0637
  31 H7        7.2763   -12.2027    -3.7627  H       1  <O>11       0.0619
  32 H8        6.2064   -14.3845    -3.8401  H       1  <O>11       0.0636
  33 H9       -0.5864   -14.2946    -2.8262  H       1  <O>11       0.0831
  34 H10      -1.5375   -15.2754    -4.8142  H       1  <O>11       0.0654
  35 H11      -0.1592   -18.2225    -6.0529  H       1  <O>11       0.0624
  36 H12      -0.9611   -19.2417    -8.1072  H       1  <O>11       0.0618
  37 H13      -1.3741   -17.8650   -10.0726  H       1  <O>11       0.0618
  38 H14      -0.9944   -15.4692    -9.9624  H       1  <O>11       0.0618
  39 H15      -0.1994   -14.4399    -7.9181  H       1  <O>11       0.0624
  40 H16       2.4616   -12.5198    -4.3706  H       1  <O>11       0.0656
@<TRIPOS>BOND
     1     1     2    1
     2     2     3    1
     3     3     4    2
     4     3     5    2
     5     3     6    1
     6     6     7   ar
     7     7     8   ar
     8     8     9   ar
     9     9    10   ar
    10    10    11    1
    11    11    12    1
    12    12    13   ar
    13    13    14   ar
    14    14    15   ar
    15    15    16   ar
    16    16    17    1
    17    17    18   ar
    18    18    19   ar
    19    19    20   ar
    20    20    21   ar
    21    21    22   ar
    22    17    22   ar
    23    16    23   ar
    24    12    23   ar
    25    10    24   ar
    26     6    24   ar
    27     1    25    1
    28     1    26    1
    29     1    27    1
    30     2    28    1
    31    11    29    1
    32     7    30    1
    33     8    31    1
    34     9    32    1
    35    14    33    1
    36    15    34    1
    37    18    35    1
    38    19    36    1
    39    20    37    1
    40    21    38    1
    41    22    39    1
    42    24    40    1
@<TRIPOS>MOLECULE
mol69_3_12
 40 42 0 0 0
SMALL
USER_CHARGES
****
VDW energy = -154.96
@<TRIPOS>ATOM
   1 C1        2.8936    -7.6802    -5.8629  C.3     1  <O>11       0.0059
   2 N1        3.6845    -8.8982    -5.7123  N.3     1  <O>11      -0.1930
   3 S1        3.1570    -9.7380    -4.3910  S.O2    1  <O>11       0.0582
   4 O1        3.3260    -8.7960    -3.0330  O.2     1  <O>11      -0.1531
   5 O2        1.5570   -10.1370    -4.5920  O.2     1  <O>11      -0.1531
   6 C2        4.1100   -11.2060    -4.2090  C.ar    1  <O>11       0.1070
   7 C3        5.4909   -11.1070    -4.0266  C.ar    1  <O>11      -0.0352
   8 C4        6.2549   -12.2710    -3.8936  C.ar    1  <O>11      -0.0582
   9 C5        5.6420   -13.5260    -3.9380  C.ar    1  <O>11      -0.0404
  10 C6        4.2561   -13.6090    -4.1164  C.ar    1  <O>11       0.0354
  11 N2        3.6291   -14.9040    -4.1609  N.pl3   1  <O>11      -0.2836
  12 C7        2.1932   -15.0090    -4.3433  C.ar    1  <O>11       0.2200
  13 N3        1.6932   -15.0898    -5.6009  N.ar    1  <O>11      -0.2226
  14 C8        0.3600   -15.1879    -5.7447  C.ar    1  <O>11       0.0332
  15 C9       -0.5149   -15.2105    -4.6904  C.ar    1  <O>11      -0.0174
  16 C10       0.0635   -15.1234    -3.4507  C.ar    1  <O>11       0.0760
  17 C11      -0.7631   -15.1356    -2.2876  C.ar    1  <O>11       0.0005
  18 C12      -0.6085   -16.1433    -1.3201  C.ar    1  <O>11      -0.0526
  19 C13      -1.4279   -16.1628    -0.1844  C.ar    1  <O>11      -0.0611
  20 C14      -2.4054   -15.1772    -0.0056  C.ar    1  <O>11      -0.0617
  21 C15      -2.5517   -14.1725    -0.9669  C.ar    1  <O>11      -0.0611
  22 C16      -1.7384   -14.1439    -2.1017  C.ar    1  <O>11      -0.0526
  23 N4        1.3908   -15.0257    -3.2540  N.ar    1  <O>11      -0.2142
  24 C17       3.4841   -12.4530    -4.2474  C.ar    1  <O>11      -0.0141
  25 H1        1.8439    -7.9425    -5.9946  H       1  <O>11       0.0405
  26 H2        3.2419    -7.1263    -6.7347  H       1  <O>11       0.0405
  27 H3        3.0047    -7.0624    -4.9718  H       1  <O>11       0.0405
  28 H4        4.6668    -8.6527    -5.5891  H       1  <O>11       0.1477
  29 H5        4.1931   -15.7480    -4.0639  H       1  <O>11       0.1550
  30 H6        5.9449   -10.1809    -3.9901  H       1  <O>11       0.0637
  31 H7        7.2762   -12.2027    -3.7619  H       1  <O>11       0.0619
  32 H8        6.2064   -14.3845    -3.8401  H       1  <O>11       0.0636
  33 H9       -0.0249   -15.2496    -6.7003  H       1  <O>11       0.0831
  34 H10      -1.5358   -15.2874    -4.8204  H       1  <O>11       0.0654
  35 H11       0.1115   -16.8716    -1.4470  H       1  <O>11       0.0624
  36 H12      -1.3108   -16.9057     0.5223  H       1  <O>11       0.0618
  37 H13      -3.0129   -15.1919     0.8285  H       1  <O>11       0.0618
  38 H14      -3.2697   -13.4429    -0.8362  H       1  <O>11       0.0618
  39 H15      -1.8544   -13.3950    -2.8021  H       1  <O>11       0.0624
  40 H16       2.4617   -12.5198    -4.3714  H       1  <O>11       0.0656
@<TRIPOS>BOND
     1     1     2    1
     2     2     3    1
     3     3     4    2
     4     3     5    2
     5     3     6    1
     6     6     7   ar
     7     7     8   ar
     8     8     9   ar
     9     9    10   ar
    10    10    11    1
    11    11    12    1
    12    12    13   ar
    13    13    14   ar
    14    14    15   ar
    15    15    16   ar
    16    16    17    1
    17    17    18   ar
    18    18    19   ar
    19    19    20   ar
    20    20    21   ar
    21    21    22   ar
    22    17    22   ar
    23    16    23   ar
    24    12    23   ar
    25    10    24   ar
    26     6    24   ar
    27     1    25    1
    28     1    26    1
    29     1    27    1
    30     2    28    1
    31    11    29    1
    32     7    30    1
    33     8    31    1
    34     9    32    1
    35    14    33    1
    36    15    34    1
    37    18    35    1
    38    19    36    1
    39    20    37    1
    40    21    38    1
    41    22    39    1
    42    24    40    1
@<TRIPOS>MOLECULE
mol69_3_13
 40 42 0 0 0
SMALL
USER_CHARGES
****
VDW energy = -154.03
@<TRIPOS>ATOM
   1 C1        2.8936    -7.6802    -5.8629  C.3     1  <O>11       0.0059
   2 N1        3.6845    -8.8982    -5.7123  N.3     1  <O>11      -0.1930
   3 S1        3.1570    -9.7380    -4.3910  S.O2    1  <O>11       0.0582
   4 O1        3.3260    -8.7960    -3.0330  O.2     1  <O>11      -0.1531
   5 O2        1.5570   -10.1370    -4.5920  O.2     1  <O>11      -0.1531
   6 C2        4.1100   -11.2060    -4.2090  C.ar    1  <O>11       0.1070
   7 C3        3.8346   -12.0735    -3.1499  C.ar    1  <O>11      -0.0352
   8 C4        4.5970   -13.2357    -2.9934  C.ar    1  <O>11      -0.0582
   9 C5        5.6252   -13.5313    -3.8924  C.ar    1  <O>11      -0.0404
  10 C6        5.8860   -12.6545    -4.9521  C.ar    1  <O>11       0.0354
  11 N2        6.9457   -12.9636    -5.8760  N.pl3   1  <O>11      -0.2836
  12 C7        7.2289   -12.0670    -6.9814  C.ar    1  <O>11       0.2200
  13 N3        8.1238   -11.0643    -6.8035  N.ar    1  <O>11      -0.2226
  14 C8        8.3710   -10.2474    -7.8424  C.ar    1  <O>11       0.0332
  15 C9        7.7676   -10.3761    -9.0660  C.ar    1  <O>11      -0.0174
  16 C10       6.8746   -11.4108    -9.1699  C.ar    1  <O>11       0.0760
  17 C11       6.1910   -11.6273   -10.4036  C.ar    1  <O>11       0.0005
  18 C12       6.3372   -12.8454   -11.0893  C.ar    1  <O>11      -0.0526
  19 C13       5.6763   -13.0538   -12.3065  C.ar    1  <O>11      -0.0611
  20 C14       4.8645   -12.0497   -12.8466  C.ar    1  <O>11      -0.0617
  21 C15       4.7161   -10.8418   -12.1582  C.ar    1  <O>11      -0.0611
  22 C16       5.3699   -10.6254   -10.9434  C.ar    1  <O>11      -0.0526
  23 N4        6.5944   -12.2560    -8.1614  N.ar    1  <O>11      -0.2142
  24 C17       5.1290   -11.4932    -5.1187  C.ar    1  <O>11      -0.0141
  25 H1        1.8439    -7.9425    -5.9946  H       1  <O>11       0.0405
  26 H2        3.2419    -7.1263    -6.7347  H       1  <O>11       0.0405
  27 H3        3.0047    -7.0624    -4.9718  H       1  <O>11       0.0405
  28 H4        4.6668    -8.6527    -5.5891  H       1  <O>11       0.1477
  29 H5        7.4975   -13.8125    -5.7546  H       1  <O>11       0.1550
  30 H6        3.0735   -11.8585    -2.4869  H       1  <O>11       0.0637
  31 H7        4.3993   -13.8780    -2.2102  H       1  <O>11       0.0619
  32 H8        6.1875   -14.3888    -3.7762  H       1  <O>11       0.0636
  33 H9        9.0515    -9.4827    -7.7114  H       1  <O>11       0.0831
  34 H10       7.9709    -9.7397    -9.8525  H       1  <O>11       0.0654
  35 H11       6.9338   -13.5891   -10.6945  H       1  <O>11       0.0624
  36 H12       5.7881   -13.9497   -12.8062  H       1  <O>11       0.0618
  37 H13       4.3797   -12.1995   -13.7452  H       1  <O>11       0.0618
  38 H14       4.1159   -10.1008   -12.5528  H       1  <O>11       0.0618
  39 H15       5.2494    -9.7307   -10.4436  H       1  <O>11       0.0624
  40 H16       5.3207   -10.8541    -5.9060  H       1  <O>11       0.0656
@<TRIPOS>BOND
     1     1     2    1
     2     2     3    1
     3     3     4    2
     4     3     5    2
     5     3     6    1
     6     6     7   ar
     7     7     8   ar
     8     8     9   ar
     9     9    10   ar
    10    10    11    1
    11    11    12    1
    12    12    13   ar
    13    13    14   ar
    14    14    15   ar
    15    15    16   ar
    16    16    17    1
    17    17    18   ar
    18    18    19   ar
    19    19    20   ar
    20    20    21   ar
    21    21    22   ar
    22    17    22   ar
    23    16    23   ar
    24    12    23   ar
    25    10    24   ar
    26     6    24   ar
    27     1    25    1
    28     1    26    1
    29     1    27    1
    30     2    28    1
    31    11    29    1
    32     7    30    1
    33     8    31    1
    34     9    32    1
    35    14    33    1
    36    15    34    1
    37    18    35    1
    38    19    36    1
    39    20    37    1
    40    21    38    1
    41    22    39    1
    42    24    40    1
@<TRIPOS>MOLECULE
mol69_3_14
 40 42 0 0 0
SMALL
USER_CHARGES
****
VDW energy = -148.06
@<TRIPOS>ATOM
   1 C1        2.8936    -7.6802    -5.8629  C.3     1  <O>11       0.0059
   2 N1        3.6845    -8.8982    -5.7123  N.3     1  <O>11      -0.1930
   3 S1        3.1570    -9.7380    -4.3910  S.O2    1  <O>11       0.0582
   4 O1        3.3260    -8.7960    -3.0330  O.2     1  <O>11      -0.1531
   5 O2        1.5570   -10.1370    -4.5920  O.2     1  <O>11      -0.1531
   6 C2        4.1100   -11.2060    -4.2090  C.ar    1  <O>11       0.1070
   7 C3        5.4910   -11.1070    -4.0270  C.ar    1  <O>11      -0.0352
   8 C4        6.2550   -12.2710    -3.8940  C.ar    1  <O>11      -0.0582
   9 C5        5.6420   -13.5260    -3.9380  C.ar    1  <O>11      -0.0404
  10 C6        4.2560   -13.6090    -4.1160  C.ar    1  <O>11       0.0354
  11 N2        3.6290   -14.9040    -4.1600  N.pl3   1  <O>11      -0.2836
  12 C7        3.4752   -15.5929    -5.4281  C.ar    1  <O>11       0.2200
  13 N3        2.8813   -16.8114    -5.4479  N.ar    1  <O>11      -0.2226
  14 C8        2.7486   -17.4295    -6.6345  C.ar    1  <O>11       0.0332
  15 C9        3.1807   -16.8933    -7.8191  C.ar    1  <O>11      -0.0174
  16 C10       3.7718   -15.6605    -7.7200  C.ar    1  <O>11       0.0760
  17 C11       4.2583   -15.0181    -8.8977  C.ar    1  <O>11       0.0005
  18 C12       4.1340   -15.6460   -10.1489  C.ar    1  <O>11      -0.0526
  19 C13       4.6224   -15.0214   -11.3035  C.ar    1  <O>11      -0.0611
  20 C14       5.2363   -13.7666   -11.2179  C.ar    1  <O>11      -0.0617
  21 C15       5.3520   -13.1420    -9.9723  C.ar    1  <O>11      -0.0611
  22 C16       4.8668   -13.7562    -8.8159  C.ar    1  <O>11      -0.0526
  23 N4        3.9264   -15.0006    -6.5578  N.ar    1  <O>11      -0.2142
  24 C17       3.4840   -12.4530    -4.2470  C.ar    1  <O>11      -0.0141
  25 H1        1.8439    -7.9425    -5.9946  H       1  <O>11       0.0405
  26 H2        3.2419    -7.1263    -6.7347  H       1  <O>11       0.0405
  27 H3        3.0047    -7.0624    -4.9718  H       1  <O>11       0.0405
  28 H4        4.6668    -8.6527    -5.5891  H       1  <O>11       0.1477
  29 H5        3.2923   -15.3378    -3.3008  H       1  <O>11       0.1550
  30 H6        5.9450   -10.1809    -3.9909  H       1  <O>11       0.0637
  31 H7        7.2763   -12.2027    -3.7627  H       1  <O>11       0.0619
  32 H8        6.2064   -14.3845    -3.8401  H       1  <O>11       0.0636
  33 H9        2.2972   -18.3573    -6.6541  H       1  <O>11       0.0831
  34 H10       3.0692   -17.3824    -8.7210  H       1  <O>11       0.0654
  35 H11       3.6812   -16.5708   -10.2173  H       1  <O>11       0.0624
  36 H12       4.5294   -15.4876   -12.2195  H       1  <O>11       0.0618
  37 H13       5.6004   -13.3063   -12.0668  H       1  <O>11       0.0618
  38 H14       5.8017   -12.2155    -9.9068  H       1  <O>11       0.0618
  39 H15       4.9555   -13.2831    -7.9031  H       1  <O>11       0.0624
  40 H16       2.4616   -12.5198    -4.3706  H       1  <O>11       0.0656
@<TRIPOS>BOND
     1     1     2    1
     2     2     3    1
     3     3     4    2
     4     3     5    2
     5     3     6    1
     6     6     7   ar
     7     7     8   ar
     8     8     9   ar
     9     9    10   ar
    10    10    11    1
    11    11    12    1
    12    12    13   ar
    13    13    14   ar
    14    14    15   ar
    15    15    16   ar
    16    16    17    1
    17    17    18   ar
    18    18    19   ar
    19    19    20   ar
    20    20    21   ar
    21    21    22   ar
    22    17    22   ar
    23    16    23   ar
    24    12    23   ar
    25    10    24   ar
    26     6    24   ar
    27     1    25    1
    28     1    26    1
    29     1    27    1
    30     2    28    1
    31    11    29    1
    32     7    30    1
    33     8    31    1
    34     9    32    1
    35    14    33    1
    36    15    34    1
    37    18    35    1
    38    19    36    1
    39    20    37    1
    40    21    38    1
    41    22    39    1
    42    24    40    1
@<TRIPOS>MOLECULE
mol69_3_15
 40 42 0 0 0
SMALL
USER_CHARGES
****
VDW energy = -147.72
@<TRIPOS>ATOM
   1 C1        2.8936    -7.6802    -5.8629  C.3     1  <O>11       0.0059
   2 N1        3.6845    -8.8982    -5.7123  N.3     1  <O>11      -0.1930
   3 S1        3.1570    -9.7380    -4.3910  S.O2    1  <O>11       0.0582
   4 O1        3.3260    -8.7960    -3.0330  O.2     1  <O>11      -0.1531
   5 O2        1.5570   -10.1370    -4.5920  O.2     1  <O>11      -0.1531
   6 C2        4.1100   -11.2060    -4.2090  C.ar    1  <O>11       0.1070
   7 C3        5.4910   -11.1070    -4.0270  C.ar    1  <O>11      -0.0352
   8 C4        6.2550   -12.2710    -3.8940  C.ar    1  <O>11      -0.0582
   9 C5        5.6420   -13.5260    -3.9380  C.ar    1  <O>11      -0.0404
  10 C6        4.2560   -13.6090    -4.1160  C.ar    1  <O>11       0.0354
  11 N2        3.6290   -14.9040    -4.1600  N.pl3   1  <O>11      -0.2836
  12 C7        3.1508   -15.5205    -2.9363  C.ar    1  <O>11       0.2200
  13 N3        2.5638   -16.7409    -2.9993  N.ar    1  <O>11      -0.2226
  14 C8        2.1301   -17.2925    -1.8525  C.ar    1  <O>11       0.0332
  15 C9        2.2507   -16.6873    -0.6291  C.ar    1  <O>11      -0.0174
  16 C10       2.8527   -15.4559    -0.6444  C.ar    1  <O>11       0.0760
  17 C11       3.0229   -14.7420     0.5793  C.ar    1  <O>11       0.0005
  18 C12       2.5746   -15.2967     1.7904  C.ar    1  <O>11      -0.0526
  19 C13       2.7303   -14.5910     2.9902  C.ar    1  <O>11      -0.0611
  20 C14       3.3351   -13.3288     2.9901  C.ar    1  <O>11      -0.0617
  21 C15       3.7859   -12.7832     1.7842  C.ar    1  <O>11      -0.0611
  22 C16       3.6364   -13.4799     0.5833  C.ar    1  <O>11      -0.0526
  23 N4        3.3049   -14.8626    -1.7641  N.ar    1  <O>11      -0.2142
  24 C17       3.4840   -12.4530    -4.2470  C.ar    1  <O>11      -0.0141
  25 H1        1.8439    -7.9425    -5.9946  H       1  <O>11       0.0405
  26 H2        3.2419    -7.1263    -6.7347  H       1  <O>11       0.0405
  27 H3        3.0047    -7.0624    -4.9718  H       1  <O>11       0.0405
  28 H4        4.6668    -8.6527    -5.5891  H       1  <O>11       0.1477
  29 H5        3.5208   -15.3890    -5.0505  H       1  <O>11       0.1550
  30 H6        5.9450   -10.1809    -3.9909  H       1  <O>11       0.0637
  31 H7        7.2763   -12.2027    -3.7627  H       1  <O>11       0.0619
  32 H8        6.2064   -14.3845    -3.8401  H       1  <O>11       0.0636
  33 H9        1.6826   -18.2214    -1.8959  H       1  <O>11       0.0831
  34 H10       1.9126   -17.1269     0.2412  H       1  <O>11       0.0654
  35 H11       2.1290   -16.2275     1.7957  H       1  <O>11       0.0624
  36 H12       2.3982   -15.0026     3.8764  H       1  <O>11       0.0618
  37 H13       3.4472   -12.8054     3.8724  H       1  <O>11       0.0618
  38 H14       4.2347   -11.8540     1.7818  H       1  <O>11       0.0618
  39 H15       3.9765   -13.0675    -0.2994  H       1  <O>11       0.0624
  40 H16       2.4616   -12.5198    -4.3706  H       1  <O>11       0.0656
@<TRIPOS>BOND
     1     1     2    1
     2     2     3    1
     3     3     4    2
     4     3     5    2
     5     3     6    1
     6     6     7   ar
     7     7     8   ar
     8     8     9   ar
     9     9    10   ar
    10    10    11    1
    11    11    12    1
    12    12    13   ar
    13    13    14   ar
    14    14    15   ar
    15    15    16   ar
    16    16    17    1
    17    17    18   ar
    18    18    19   ar
    19    19    20   ar
    20    20    21   ar
    21    21    22   ar
    22    17    22   ar
    23    16    23   ar
    24    12    23   ar
    25    10    24   ar
    26     6    24   ar
    27     1    25    1
    28     1    26    1
    29     1    27    1
    30     2    28    1
    31    11    29    1
    32     7    30    1
    33     8    31    1
    34     9    32    1
    35    14    33    1
    36    15    34    1
    37    18    35    1
    38    19    36    1
    39    20    37    1
    40    21    38    1
    41    22    39    1
    42    24    40    1
@<TRIPOS>MOLECULE
mol69_3_16
 40 42 0 0 0
SMALL
USER_CHARGES
****
VDW energy = -145.64
@<TRIPOS>ATOM
   1 C1        2.8936    -7.6802    -5.8629  C.3     1  <O>11       0.0059
   2 N1        3.6845    -8.8982    -5.7123  N.3     1  <O>11      -0.1930
   3 S1        3.1570    -9.7380    -4.3910  S.O2    1  <O>11       0.0582
   4 O1        3.3260    -8.7960    -3.0330  O.2     1  <O>11      -0.1531
   5 O2        1.5570   -10.1370    -4.5920  O.2     1  <O>11      -0.1531
   6 C2        4.1100   -11.2060    -4.2090  C.ar    1  <O>11       0.1070
   7 C3        5.4910   -11.1070    -4.0270  C.ar    1  <O>11      -0.0352
   8 C4        6.2550   -12.2710    -3.8940  C.ar    1  <O>11      -0.0582
   9 C5        5.6420   -13.5260    -3.9380  C.ar    1  <O>11      -0.0404
  10 C6        4.2560   -13.6090    -4.1160  C.ar    1  <O>11       0.0354
  11 N2        3.6290   -14.9040    -4.1600  N.pl3   1  <O>11      -0.2836
  12 C7        3.9199   -15.8142    -5.2523  C.ar    1  <O>11       0.2200
  13 N3        3.5314   -15.4818    -6.5079  N.ar    1  <O>11      -0.2226
  14 C8        3.8133   -16.3401    -7.5037  C.ar    1  <O>11       0.0332
  15 C9        4.4702   -17.5277    -7.3152  C.ar    1  <O>11      -0.0174
  16 C10       4.8301   -17.7960    -6.0201  C.ar    1  <O>11       0.0760
  17 C11       5.5167   -19.0102    -5.7191  C.ar    1  <O>11       0.0005
  18 C12       5.8193   -19.9245    -6.7426  C.ar    1  <O>11      -0.0526
  19 C13       6.4822   -21.1221    -6.4459  C.ar    1  <O>11      -0.0611
  20 C14       6.8486   -21.4147    -5.1272  C.ar    1  <O>11      -0.0617
  21 C15       6.5519   -20.4996    -4.1126  C.ar    1  <O>11      -0.0611
  22 C16       5.8927   -19.3024    -4.3990  C.ar    1  <O>11      -0.0526
  23 N4        4.5730   -16.9697    -4.9899  N.ar    1  <O>11      -0.2142
  24 C17       3.4840   -12.4530    -4.2470  C.ar    1  <O>11      -0.0141
  25 H1        1.8439    -7.9425    -5.9946  H       1  <O>11       0.0405
  26 H2        3.2419    -7.1263    -6.7347  H       1  <O>11       0.0405
  27 H3        3.0047    -7.0624    -4.9718  H       1  <O>11       0.0405
  28 H4        4.6668    -8.6527    -5.5891  H       1  <O>11       0.1477
  29 H5        2.9801   -15.1824    -3.4243  H       1  <O>11       0.1550
  30 H6        5.9450   -10.1809    -3.9909  H       1  <O>11       0.0637
  31 H7        7.2763   -12.2027    -3.7627  H       1  <O>11       0.0619
  32 H8        6.2064   -14.3845    -3.8401  H       1  <O>11       0.0636
  33 H9        3.5192   -16.0910    -8.4610  H       1  <O>11       0.0831
  34 H10       4.6789   -18.1738    -8.0925  H       1  <O>11       0.0654
  35 H11       5.5520   -19.7127    -7.7167  H       1  <O>11       0.0624
  36 H12       6.7009   -21.7903    -7.2013  H       1  <O>11       0.0618
  37 H13       7.3336   -22.2983    -4.9057  H       1  <O>11       0.0618
  38 H14       6.8235   -20.7116    -3.1398  H       1  <O>11       0.0618
  39 H15       5.6824   -18.6339    -3.6415  H       1  <O>11       0.0624
  40 H16       2.4616   -12.5198    -4.3706  H       1  <O>11       0.0656
@<TRIPOS>BOND
     1     1     2    1
     2     2     3    1
     3     3     4    2
     4     3     5    2
     5     3     6    1
     6     6     7   ar
     7     7     8   ar
     8     8     9   ar
     9     9    10   ar
    10    10    11    1
    11    11    12    1
    12    12    13   ar
    13    13    14   ar
    14    14    15   ar
    15    15    16   ar
    16    16    17    1
    17    17    18   ar
    18    18    19   ar
    19    19    20   ar
    20    20    21   ar
    21    21    22   ar
    22    17    22   ar
    23    16    23   ar
    24    12    23   ar
    25    10    24   ar
    26     6    24   ar
    27     1    25    1
    28     1    26    1
    29     1    27    1
    30     2    28    1
    31    11    29    1
    32     7    30    1
    33     8    31    1
    34     9    32    1
    35    14    33    1
    36    15    34    1
    37    18    35    1
    38    19    36    1
    39    20    37    1
    40    21    38    1
    41    22    39    1
    42    24    40    1
@<TRIPOS>MOLECULE
mol69_3_17
 40 42 0 0 0
SMALL
USER_CHARGES
****
VDW energy = -143.73
@<TRIPOS>ATOM
   1 C1        2.8936    -7.6802    -5.8629  C.3     1  <O>11       0.0059
   2 N1        3.6845    -8.8982    -5.7123  N.3     1  <O>11      -0.1930
   3 S1        3.1570    -9.7380    -4.3910  S.O2    1  <O>11       0.0582
   4 O1        4.0577   -11.1235    -4.2202  O.2     1  <O>11      -0.1531
   5 O2        3.3274    -8.7964    -3.0331  O.2     1  <O>11      -0.1531
   6 C2        1.4624   -10.1623    -4.6026  C.ar    1  <O>11       0.1070
   7 C3        0.5181    -9.1466    -4.7658  C.ar    1  <O>11      -0.0352
   8 C4       -0.8318    -9.4776    -4.9222  C.ar    1  <O>11      -0.0582
   9 C5       -1.2348   -10.8156    -4.9201  C.ar    1  <O>11      -0.0404
  10 C6       -0.2759   -11.8229    -4.7605  C.ar    1  <O>11       0.0354
  11 N2       -0.6958   -13.1998    -4.7596  N.pl3   1  <O>11      -0.2836
  12 C7       -1.0639   -13.8452    -3.5130  C.ar    1  <O>11       0.2200
  13 N3       -2.3548   -13.7956    -3.1017  N.ar    1  <O>11      -0.2226
  14 C8       -2.6720   -14.4021    -1.9445  C.ar    1  <O>11       0.0332
  15 C9       -1.7618   -15.0647    -1.1634  C.ar    1  <O>11      -0.0174
  16 C10      -0.4776   -15.0714    -1.6426  C.ar    1  <O>11       0.0760
  17 C11       0.5456   -15.7333    -0.9003  C.ar    1  <O>11       0.0005
  18 C12       1.2833   -15.0317     0.0687  C.ar    1  <O>11      -0.0526
  19 C13       2.2961   -15.6776     0.7889  C.ar    1  <O>11      -0.0611
  20 C14       2.5786   -17.0272     0.5485  C.ar    1  <O>11      -0.0617
  21 C15       1.8381   -17.7236    -0.4114  C.ar    1  <O>11      -0.0611
  22 C16       0.8255   -17.0885    -1.1334  C.ar    1  <O>11      -0.0526
  23 N4       -0.1101   -14.4815    -2.7946  N.ar    1  <O>11      -0.2142
  24 C17       1.0745   -11.5031    -4.6064  C.ar    1  <O>11      -0.0141
  25 H1        1.8439    -7.9425    -5.9946  H       1  <O>11       0.0405
  26 H2        3.2419    -7.1263    -6.7347  H       1  <O>11       0.0405
  27 H3        3.0047    -7.0624    -4.9718  H       1  <O>11       0.0405
  28 H4        4.6668    -8.6527    -5.5891  H       1  <O>11       0.1477
  29 H5       -0.7345   -13.7224    -5.6344  H       1  <O>11       0.1550
  30 H6        0.8143    -8.1580    -4.7710  H       1  <O>11       0.0637
  31 H7       -1.5336    -8.7302    -5.0397  H       1  <O>11       0.0619
  32 H8       -2.2311   -11.0592    -5.0352  H       1  <O>11       0.0636
  33 H9       -3.6535   -14.3666    -1.6275  H       1  <O>11       0.0831
  34 H10      -2.0243   -15.5255    -0.2781  H       1  <O>11       0.0654
  35 H11       1.0780   -14.0368     0.2502  H       1  <O>11       0.0624
  36 H12       2.8353   -15.1573     1.4985  H       1  <O>11       0.0618
  37 H13       3.3271   -17.5041     1.0753  H       1  <O>11       0.0618
  38 H14       2.0424   -18.7195    -0.5886  H       1  <O>11       0.0618
  39 H15       0.2840   -17.6147    -1.8368  H       1  <O>11       0.0624
  40 H16       1.7781   -12.2500    -4.4965  H       1  <O>11       0.0656
@<TRIPOS>BOND
     1     1     2    1
     2     2     3    1
     3     3     4    2
     4     3     5    2
     5     3     6    1
     6     6     7   ar
     7     7     8   ar
     8     8     9   ar
     9     9    10   ar
    10    10    11    1
    11    11    12    1
    12    12    13   ar
    13    13    14   ar
    14    14    15   ar
    15    15    16   ar
    16    16    17    1
    17    17    18   ar
    18    18    19   ar
    19    19    20   ar
    20    20    21   ar
    21    21    22   ar
    22    17    22   ar
    23    16    23   ar
    24    12    23   ar
    25    10    24   ar
    26     6    24   ar
    27     1    25    1
    28     1    26    1
    29     1    27    1
    30     2    28    1
    31    11    29    1
    32     7    30    1
    33     8    31    1
    34     9    32    1
    35    14    33    1
    36    15    34    1
    37    18    35    1
    38    19    36    1
    39    20    37    1
    40    21    38    1
    41    22    39    1
    42    24    40    1
@<TRIPOS>MOLECULE
mol69_3_18
 40 42 0 0 0
SMALL
USER_CHARGES
****
VDW energy = -142.57
@<TRIPOS>ATOM
   1 C1        2.8936    -7.6802    -5.8629  C.3     1  <O>11       0.0059
   2 N1        3.6845    -8.8982    -5.7123  N.3     1  <O>11      -0.1930
   3 S1        3.1570    -9.7380    -4.3910  S.O2    1  <O>11       0.0582
   4 O1        3.3260    -8.7960    -3.0330  O.2     1  <O>11      -0.1531
   5 O2        1.5570   -10.1370    -4.5920  O.2     1  <O>11      -0.1531
   6 C2        4.1100   -11.2060    -4.2090  C.ar    1  <O>11       0.1070
   7 C3        5.4910   -11.1070    -4.0270  C.ar    1  <O>11      -0.0352
   8 C4        6.2550   -12.2710    -3.8940  C.ar    1  <O>11      -0.0582
   9 C5        5.6420   -13.5260    -3.9380  C.ar    1  <O>11      -0.0404
  10 C6        4.2560   -13.6090    -4.1160  C.ar    1  <O>11       0.0354
  11 N2        3.6290   -14.9040    -4.1600  N.pl3   1  <O>11      -0.2836
  12 C7        2.1930   -15.0090    -4.3420  C.ar    1  <O>11       0.2200
  13 N3        1.6462   -14.6028    -5.5141  N.ar    1  <O>11      -0.2226
  14 C8        0.3140   -14.7112    -5.6600  C.ar    1  <O>11       0.0332
  15 C9       -0.5152   -15.2089    -4.6893  C.ar    1  <O>11      -0.0174
  16 C10       0.1089   -15.5976    -3.5324  C.ar    1  <O>11       0.0760
  17 C11      -0.6681   -16.1271    -2.4591  C.ar    1  <O>11       0.0005
  18 C12      -2.0627   -16.2468    -2.5868  C.ar    1  <O>11      -0.0526
  19 C13      -2.8272   -16.7549    -1.5290  C.ar    1  <O>11      -0.0611
  20 C14      -2.2060   -17.1480    -0.3380  C.ar    1  <O>11      -0.0617
  21 C15      -0.8178   -17.0338    -0.2171  C.ar    1  <O>11      -0.0611
  22 C16      -0.0471   -16.5298    -1.2668  C.ar    1  <O>11      -0.0526
  23 N4        1.4374   -15.5113    -3.3383  N.ar    1  <O>11      -0.2142
  24 C17       3.4840   -12.4530    -4.2470  C.ar    1  <O>11      -0.0141
  25 H1        1.8439    -7.9425    -5.9946  H       1  <O>11       0.0405
  26 H2        3.2419    -7.1263    -6.7347  H       1  <O>11       0.0405
  27 H3        3.0047    -7.0624    -4.9718  H       1  <O>11       0.0405
  28 H4        4.6668    -8.6527    -5.5891  H       1  <O>11       0.1477
  29 H5        4.1930   -15.7480    -4.0630  H       1  <O>11       0.1550
  30 H6        5.9450   -10.1809    -3.9909  H       1  <O>11       0.0637
  31 H7        7.2763   -12.2027    -3.7627  H       1  <O>11       0.0619
  32 H8        6.2064   -14.3845    -3.8401  H       1  <O>11       0.0636
  33 H9       -0.1064   -14.4030    -6.5507  H       1  <O>11       0.0831
  34 H10      -1.5360   -15.2855    -4.8198  H       1  <O>11       0.0654
  35 H11      -2.5251   -15.9592    -3.4634  H       1  <O>11       0.0624
  36 H12      -3.8510   -16.8395    -1.6279  H       1  <O>11       0.0618
  37 H13      -2.7679   -17.5190     0.4442  H       1  <O>11       0.0618
  38 H14      -0.3570   -17.3256     0.6589  H       1  <O>11       0.0618
  39 H15       0.9771   -16.4537    -1.1661  H       1  <O>11       0.0624
  40 H16       2.4616   -12.5198    -4.3706  H       1  <O>11       0.0656
@<TRIPOS>BOND
     1     1     2    1
     2     2     3    1
     3     3     4    2
     4     3     5    2
     5     3     6    1
     6     6     7   ar
     7     7     8   ar
     8     8     9   ar
     9     9    10   ar
    10    10    11    1
    11    11    12    1
    12    12    13   ar
    13    13    14   ar
    14    14    15   ar
    15    15    16   ar
    16    16    17    1
    17    17    18   ar
    18    18    19   ar
    19    19    20   ar
    20    20    21   ar
    21    21    22   ar
    22    17    22   ar
    23    16    23   ar
    24    12    23   ar
    25    10    24   ar
    26     6    24   ar
    27     1    25    1
    28     1    26    1
    29     1    27    1
    30     2    28    1
    31    11    29    1
    32     7    30    1
    33     8    31    1
    34     9    32    1
    35    14    33    1
    36    15    34    1
    37    18    35    1
    38    19    36    1
    39    20    37    1
    40    21    38    1
    41    22    39    1
    42    24    40    1
@<TRIPOS>MOLECULE
mol69_3_19
 40 42 0 0 0
SMALL
USER_CHARGES
****
VDW energy = -142.36
@<TRIPOS>ATOM
   1 C1        2.8936    -7.6802    -5.8629  C.3     1  <O>11       0.0059
   2 N1        3.6845    -8.8982    -5.7123  N.3     1  <O>11      -0.1930
   3 S1        3.1570    -9.7380    -4.3910  S.O2    1  <O>11       0.0582
   4 O1        3.3260    -8.7960    -3.0330  O.2     1  <O>11      -0.1531
   5 O2        1.5570   -10.1370    -4.5920  O.2     1  <O>11      -0.1531
   6 C2        4.1100   -11.2060    -4.2090  C.ar    1  <O>11       0.1070
   7 C3        5.4910   -11.1070    -4.0270  C.ar    1  <O>11      -0.0352
   8 C4        6.2550   -12.2710    -3.8940  C.ar    1  <O>11      -0.0582
   9 C5        5.6420   -13.5260    -3.9380  C.ar    1  <O>11      -0.0404
  10 C6        4.2560   -13.6090    -4.1160  C.ar    1  <O>11       0.0354
  11 N2        3.6290   -14.9040    -4.1600  N.pl3   1  <O>11      -0.2836
  12 C7        2.1930   -15.0090    -4.3420  C.ar    1  <O>11       0.2200
  13 N3        1.3701   -14.5420    -3.3711  N.ar    1  <O>11      -0.2226
  14 C8        0.0437   -14.6488    -3.5628  C.ar    1  <O>11       0.0332
  15 C9       -0.5163   -15.2028    -4.6840  C.ar    1  <O>11      -0.0174
  16 C10       0.3776   -15.6538    -5.6203  C.ar    1  <O>11       0.0760
  17 C11      -0.1060   -16.2503    -6.8230  C.ar    1  <O>11       0.0005
  18 C12      -1.4883   -16.3762    -7.0443  C.ar    1  <O>11      -0.0526
  19 C13      -1.9634   -16.9728    -8.2191  C.ar    1  <O>11      -0.0611
  20 C14      -1.0635   -17.4462    -9.1808  C.ar    1  <O>11      -0.0617
  21 C15       0.3107   -17.3131    -8.9602  C.ar    1  <O>11      -0.0611
  22 C16       0.7938   -16.7184    -7.7928  C.ar    1  <O>11      -0.0526
  23 N4        1.7125   -15.5683    -5.4765  N.ar    1  <O>11      -0.2142
  24 C17       3.4840   -12.4530    -4.2470  C.ar    1  <O>11      -0.0141
  25 H1        1.8439    -7.9425    -5.9946  H       1  <O>11       0.0405
  26 H2        3.2419    -7.1263    -6.7347  H       1  <O>11       0.0405
  27 H3        3.0047    -7.0624    -4.9718  H       1  <O>11       0.0405
  28 H4        4.6668    -8.6527    -5.5891  H       1  <O>11       0.1477
  29 H5        4.1930   -15.7480    -4.0630  H       1  <O>11       0.1550
  30 H6        5.9450   -10.1809    -3.9909  H       1  <O>11       0.0637
  31 H7        7.2763   -12.2027    -3.7627  H       1  <O>11       0.0619
  32 H8        6.2064   -14.3845    -3.8401  H       1  <O>11       0.0636
  33 H9       -0.5864   -14.2946    -2.8262  H       1  <O>11       0.0831
  34 H10      -1.5375   -15.2754    -4.8142  H       1  <O>11       0.0654
  35 H11      -2.1557   -16.0277    -6.3386  H       1  <O>11       0.0624
  36 H12      -2.9793   -17.0635    -8.3759  H       1  <O>11       0.0618
  37 H13      -1.4113   -17.8897   -10.0454  H       1  <O>11       0.0618
  38 H14       0.9764   -17.6588    -9.6690  H       1  <O>11       0.0618
  39 H15       1.8105   -16.6232    -7.6435  H       1  <O>11       0.0624
  40 H16       2.4616   -12.5198    -4.3706  H       1  <O>11       0.0656
@<TRIPOS>BOND
     1     1     2    1
     2     2     3    1
     3     3     4    2
     4     3     5    2
     5     3     6    1
     6     6     7   ar
     7     7     8   ar
     8     8     9   ar
     9     9    10   ar
    10    10    11    1
    11    11    12    1
    12    12    13   ar
    13    13    14   ar
    14    14    15   ar
    15    15    16   ar
    16    16    17    1
    17    17    18   ar
    18    18    19   ar
    19    19    20   ar
    20    20    21   ar
    21    21    22   ar
    22    17    22   ar
    23    16    23   ar
    24    12    23   ar
    25    10    24   ar
    26     6    24   ar
    27     1    25    1
    28     1    26    1
    29     1    27    1
    30     2    28    1
    31    11    29    1
    32     7    30    1
    33     8    31    1
    34     9    32    1
    35    14    33    1
    36    15    34    1
    37    18    35    1
    38    19    36    1
    39    20    37    1
    40    21    38    1
    41    22    39    1
    42    24    40    1
@<TRIPOS>MOLECULE
mol69_3_20
 40 42 0 0 0
SMALL
USER_CHARGES
****
VDW energy = -140.01
@<TRIPOS>ATOM
   1 C1        2.8936    -7.6802    -5.8629  C.3     1  <O>11       0.0059
   2 N1        3.6845    -8.8982    -5.7123  N.3     1  <O>11      -0.1930
   3 S1        3.1570    -9.7380    -4.3910  S.O2    1  <O>11       0.0582
   4 O1        1.5572   -10.1382    -4.5923  O.2     1  <O>11      -0.1531
   5 O2        4.0569   -11.1240    -4.2213  O.2     1  <O>11      -0.1531
   6 C2        3.3359    -8.7416    -2.9517  C.ar    1  <O>11       0.1070
   7 C3        2.6624    -7.5206    -2.8768  C.ar    1  <O>11      -0.0352
   8 C4        2.8106    -6.7190    -1.7403  C.ar    1  <O>11      -0.0582
   9 C5        3.6233    -7.1371    -0.6832  C.ar    1  <O>11      -0.0404
  10 C6        4.2881    -8.3660    -0.7708  C.ar    1  <O>11       0.0354
  11 N2        5.1237    -8.7927     0.3209  N.pl3   1  <O>11      -0.2836
  12 C7        6.3309    -8.0541     0.6424  C.ar    1  <O>11       0.2200
  13 N3        7.1043    -8.4730     1.6740  N.ar    1  <O>11      -0.2226
  14 C8        8.2184    -7.7736     1.9519  C.ar    1  <O>11       0.0332
  15 C9        8.6103    -6.6646     1.2490  C.ar    1  <O>11      -0.0174
  16 C10       7.7783    -6.3008     0.2222  C.ar    1  <O>11       0.0760
  17 C11       8.0975    -5.1569    -0.5688  C.ar    1  <O>11       0.0005
  18 C12       7.6225    -3.8866    -0.1998  C.ar    1  <O>11      -0.0526
  19 C13       7.9252    -2.7653    -0.9826  C.ar    1  <O>11      -0.0611
  20 C14       8.7042    -2.9033    -2.1371  C.ar    1  <O>11      -0.0617
  21 C15       9.1806    -4.1676    -2.4972  C.ar    1  <O>11      -0.0611
  22 C16       8.8853    -5.2910    -1.7223  C.ar    1  <O>11      -0.0526
  23 N4        6.6543    -6.9680    -0.0967  N.ar    1  <O>11      -0.2142
  24 C17       4.1446    -9.1748    -1.8997  C.ar    1  <O>11      -0.0141
  25 H1        1.8439    -7.9425    -5.9946  H       1  <O>11       0.0405
  26 H2        3.2419    -7.1263    -6.7347  H       1  <O>11       0.0405
  27 H3        3.0047    -7.0624    -4.9718  H       1  <O>11       0.0405
  28 H4        4.6668    -8.6527    -5.5891  H       1  <O>11       0.1477
  29 H5        4.8683    -9.6141     0.8686  H       1  <O>11       0.1550
  30 H6        2.0591    -7.2117    -3.6551  H       1  <O>11       0.0637
  31 H7        2.3174    -5.8144    -1.6821  H       1  <O>11       0.0619
  32 H8        3.7325    -6.5450     0.1550  H       1  <O>11       0.0636
  33 H9        8.8101    -8.0890     2.7365  H       1  <O>11       0.0831
  34 H10       9.4700    -6.1408     1.4764  H       1  <O>11       0.0654
  35 H11       7.0486    -3.7796     0.6512  H       1  <O>11       0.0624
  36 H12       7.5728    -1.8351    -0.7075  H       1  <O>11       0.0618
  37 H13       8.9252    -2.0791    -2.7175  H       1  <O>11       0.0618
  38 H14       9.7576    -4.2717    -3.3464  H       1  <O>11       0.0618
  39 H15       9.2458    -6.2181    -1.9973  H       1  <O>11       0.0624
  40 H16       4.6311   -10.0832    -1.9558  H       1  <O>11       0.0656
@<TRIPOS>BOND
     1     1     2    1
     2     2     3    1
     3     3     4    2
     4     3     5    2
     5     3     6    1
     6     6     7   ar
     7     7     8   ar
     8     8     9   ar
     9     9    10   ar
    10    10    11    1
    11    11    12    1
    12    12    13   ar
    13    13    14   ar
    14    14    15   ar
    15    15    16   ar
    16    16    17    1
    17    17    18   ar
    18    18    19   ar
    19    19    20   ar
    20    20    21   ar
    21    21    22   ar
    22    17    22   ar
    23    16    23   ar
    24    12    23   ar
    25    10    24   ar
    26     6    24   ar
    27     1    25    1
    28     1    26    1
    29     1    27    1
    30     2    28    1
    31    11    29    1
    32     7    30    1
    33     8    31    1
    34     9    32    1
    35    14    33    1
    36    15    34    1
    37    18    35    1
    38    19    36    1
    39    20    37    1
    40    21    38    1
    41    22    39    1
    42    24    40    1
@<TRIPOS>MOLECULE
mol69_3_21
 40 42 0 0 0
SMALL
USER_CHARGES
****
VDW energy = -136.12
@<TRIPOS>ATOM
   1 C1        2.8936    -7.6802    -5.8629  C.3     1  <O>11       0.0059
   2 N1        3.6845    -8.8982    -5.7123  N.3     1  <O>11      -0.1930
   3 S1        3.1570    -9.7380    -4.3910  S.O2    1  <O>11       0.0582
   4 O1        1.5572   -10.1382    -4.5923  O.2     1  <O>11      -0.1531
   5 O2        4.0569   -11.1240    -4.2213  O.2     1  <O>11      -0.1531
   6 C2        3.3359    -8.7416    -2.9517  C.ar    1  <O>11       0.1070
   7 C3        2.6624    -7.5206    -2.8768  C.ar    1  <O>11      -0.0352
   8 C4        2.8106    -6.7190    -1.7403  C.ar    1  <O>11      -0.0582
   9 C5        3.6233    -7.1371    -0.6832  C.ar    1  <O>11      -0.0404
  10 C6        4.2881    -8.3660    -0.7708  C.ar    1  <O>11       0.0354
  11 N2        5.1237    -8.7927     0.3209  N.pl3   1  <O>11      -0.2836
  12 C7        5.8190   -10.0645     0.2482  C.ar    1  <O>11       0.2200
  13 N3        6.7913   -10.2314    -0.6817  N.ar    1  <O>11      -0.2226
  14 C8        7.4223   -11.4177    -0.7289  C.ar    1  <O>11       0.0332
  15 C9        7.1345   -12.4615     0.1108  C.ar    1  <O>11      -0.0174
  16 C10       6.1401   -12.2192     1.0227  C.ar    1  <O>11       0.0760
  17 C11       5.7639   -13.2448     1.9408  C.ar    1  <O>11       0.0005
  18 C12       4.7512   -14.1594     1.6040  C.ar    1  <O>11      -0.0526
  19 C13       4.3731   -15.1586     2.5097  C.ar    1  <O>11      -0.0611
  20 C14       5.0031   -15.2529     3.7559  C.ar    1  <O>11      -0.0617
  21 C15       6.0147   -14.3455     4.0847  C.ar    1  <O>11      -0.0611
  22 C16       6.3996   -13.3469     3.1877  C.ar    1  <O>11      -0.0526
  23 N4        5.4805   -11.0500     1.1114  N.ar    1  <O>11      -0.2142
  24 C17       4.1446    -9.1748    -1.8997  C.ar    1  <O>11      -0.0141
  25 H1        1.8439    -7.9425    -5.9946  H       1  <O>11       0.0405
  26 H2        3.2419    -7.1263    -6.7347  H       1  <O>11       0.0405
  27 H3        3.0047    -7.0624    -4.9718  H       1  <O>11       0.0405
  28 H4        4.6668    -8.6527    -5.5891  H       1  <O>11       0.1477
  29 H5        5.2272    -8.2023     1.1459  H       1  <O>11       0.1550
  30 H6        2.0591    -7.2117    -3.6551  H       1  <O>11       0.0637
  31 H7        2.3174    -5.8144    -1.6821  H       1  <O>11       0.0619
  32 H8        3.7325    -6.5450     0.1550  H       1  <O>11       0.0636
  33 H9        8.1631   -11.5490    -1.4353  H       1  <O>11       0.0831
  34 H10       7.6306   -13.3650     0.0604  H       1  <O>11       0.0654
  35 H11       4.2845   -14.0945     0.6859  H       1  <O>11       0.0624
  36 H12       3.6281   -15.8268     2.2576  H       1  <O>11       0.0618
  37 H13       4.7233   -15.9859     4.4264  H       1  <O>11       0.0618
  38 H14       6.4828   -14.4146     5.0018  H       1  <O>11       0.0618
  39 H15       7.1500   -12.6854     3.4412  H       1  <O>11       0.0624
  40 H16       4.6311   -10.0832    -1.9558  H       1  <O>11       0.0656
@<TRIPOS>BOND
     1     1     2    1
     2     2     3    1
     3     3     4    2
     4     3     5    2
     5     3     6    1
     6     6     7   ar
     7     7     8   ar
     8     8     9   ar
     9     9    10   ar
    10    10    11    1
    11    11    12    1
    12    12    13   ar
    13    13    14   ar
    14    14    15   ar
    15    15    16   ar
    16    16    17    1
    17    17    18   ar
    18    18    19   ar
    19    19    20   ar
    20    20    21   ar
    21    21    22   ar
    22    17    22   ar
    23    16    23   ar
    24    12    23   ar
    25    10    24   ar
    26     6    24   ar
    27     1    25    1
    28     1    26    1
    29     1    27    1
    30     2    28    1
    31    11    29    1
    32     7    30    1
    33     8    31    1
    34     9    32    1
    35    14    33    1
    36    15    34    1
    37    18    35    1
    38    19    36    1
    39    20    37    1
    40    21    38    1
    41    22    39    1
    42    24    40    1
@<TRIPOS>MOLECULE
mol69_3_22
 40 42 0 0 0
SMALL
USER_CHARGES
****
VDW energy = -135.56
@<TRIPOS>ATOM
   1 C1        2.8936    -7.6802    -5.8629  C.3     1  <O>11       0.0059
   2 N1        3.6845    -8.8982    -5.7123  N.3     1  <O>11      -0.1930
   3 S1        3.1570    -9.7380    -4.3910  S.O2    1  <O>11       0.0582
   4 O1        1.5572   -10.1382    -4.5923  O.2     1  <O>11      -0.1531
   5 O2        4.0569   -11.1240    -4.2213  O.2     1  <O>11      -0.1531
   6 C2        3.3359    -8.7416    -2.9517  C.ar    1  <O>11       0.1070
   7 C3        2.6624    -7.5206    -2.8768  C.ar    1  <O>11      -0.0352
   8 C4        2.8106    -6.7190    -1.7403  C.ar    1  <O>11      -0.0582
   9 C5        3.6233    -7.1371    -0.6832  C.ar    1  <O>11      -0.0404
  10 C6        4.2881    -8.3660    -0.7708  C.ar    1  <O>11       0.0354
  11 N2        5.1237    -8.7927     0.3209  N.pl3   1  <O>11      -0.2836
  12 C7        5.8190   -10.0645     0.2482  C.ar    1  <O>11       0.2200
  13 N3        5.0954   -11.2109     0.2333  N.ar    1  <O>11      -0.2226
  14 C8        5.7616   -12.3767     0.1640  C.ar    1  <O>11       0.0332
  15 C9        7.1278   -12.4649     0.1079  C.ar    1  <O>11      -0.0174
  16 C10       7.7910   -11.2655     0.1285  C.ar    1  <O>11       0.0760
  17 C11       9.2169   -11.2504     0.0769  C.ar    1  <O>11       0.0005
  18 C12       9.9685   -11.2876     1.2640  C.ar    1  <O>11      -0.0526
  19 C13      11.3679   -11.2603     1.2144  C.ar    1  <O>11      -0.0611
  20 C14      12.0266   -11.1972    -0.0189  C.ar    1  <O>11      -0.0617
  21 C15      11.2757   -11.1671    -1.1980  C.ar    1  <O>11      -0.0611
  22 C16       9.8802   -11.1955    -1.1586  C.ar    1  <O>11      -0.0526
  23 N4        7.1709   -10.0734     0.1951  N.ar    1  <O>11      -0.2142
  24 C17       4.1446    -9.1748    -1.8997  C.ar    1  <O>11      -0.0141
  25 H1        1.8439    -7.9425    -5.9946  H       1  <O>11       0.0405
  26 H2        3.2419    -7.1263    -6.7347  H       1  <O>11       0.0405
  27 H3        3.0047    -7.0624    -4.9718  H       1  <O>11       0.0405
  28 H4        4.6668    -8.6527    -5.5891  H       1  <O>11       0.1477
  29 H5        5.2272    -8.2023     1.1459  H       1  <O>11       0.1550
  30 H6        2.0591    -7.2117    -3.6551  H       1  <O>11       0.0637
  31 H7        2.3174    -5.8144    -1.6821  H       1  <O>11       0.0619
  32 H8        3.7325    -6.5450     0.1550  H       1  <O>11       0.0636
  33 H9        5.2147   -13.2518     0.1525  H       1  <O>11       0.0831
  34 H10       7.6219   -13.3694     0.0539  H       1  <O>11       0.0654
  35 H11       9.4873   -11.3352     2.1757  H       1  <O>11       0.0624
  36 H12      11.9147   -11.2867     2.0892  H       1  <O>11       0.0618
  37 H13      13.0576   -11.1730    -0.0577  H       1  <O>11       0.0618
  38 H14      11.7590   -11.1235    -2.1088  H       1  <O>11       0.0618
  39 H15       9.3377   -11.1762    -2.0362  H       1  <O>11       0.0624
  40 H16       4.6311   -10.0832    -1.9558  H       1  <O>11       0.0656
@<TRIPOS>BOND
     1     1     2    1
     2     2     3    1
     3     3     4    2
     4     3     5    2
     5     3     6    1
     6     6     7   ar
     7     7     8   ar
     8     8     9   ar
     9     9    10   ar
    10    10    11    1
    11    11    12    1
    12    12    13   ar
    13    13    14   ar
    14    14    15   ar
    15    15    16   ar
    16    16    17    1
    17    17    18   ar
    18    18    19   ar
    19    19    20   ar
    20    20    21   ar
    21    21    22   ar
    22    17    22   ar
    23    16    23   ar
    24    12    23   ar
    25    10    24   ar
    26     6    24   ar
    27     1    25    1
    28     1    26    1
    29     1    27    1
    30     2    28    1
    31    11    29    1
    32     7    30    1
    33     8    31    1
    34     9    32    1
    35    14    33    1
    36    15    34    1
    37    18    35    1
    38    19    36    1
    39    20    37    1
    40    21    38    1
    41    22    39    1
    42    24    40    1
@<TRIPOS>MOLECULE
mol69_3_23
 40 42 0 0 0
SMALL
USER_CHARGES
****
VDW energy = -129.86
@<TRIPOS>ATOM
   1 C1        2.8936    -7.6802    -5.8629  C.3     1  <O>11       0.0059
   2 N1        3.6845    -8.8982    -5.7123  N.3     1  <O>11      -0.1930
   3 S1        3.1570    -9.7380    -4.3910  S.O2    1  <O>11       0.0582
   4 O1        3.3260    -8.7960    -3.0330  O.2     1  <O>11      -0.1531
   5 O2        1.5570   -10.1370    -4.5920  O.2     1  <O>11      -0.1531
   6 C2        4.1100   -11.2060    -4.2090  C.ar    1  <O>11       0.1070
   7 C3        5.4910   -11.1070    -4.0270  C.ar    1  <O>11      -0.0352
   8 C4        6.2550   -12.2710    -3.8940  C.ar    1  <O>11      -0.0582
   9 C5        5.6420   -13.5260    -3.9380  C.ar    1  <O>11      -0.0404
  10 C6        4.2560   -13.6090    -4.1160  C.ar    1  <O>11       0.0354
  11 N2        3.6290   -14.9040    -4.1600  N.pl3   1  <O>11      -0.2836
  12 C7        2.1930   -15.0090    -4.3420  C.ar    1  <O>11       0.2200
  13 N3        1.6220   -16.2380    -4.3800  N.ar    1  <O>11      -0.2226
  14 C8        0.2900   -16.3100    -4.5480  C.ar    1  <O>11       0.0332
  15 C9       -0.5160   -15.2100    -4.6820  C.ar    1  <O>11      -0.0174
  16 C10       0.1320   -14.0030    -4.6350  C.ar    1  <O>11       0.0760
  17 C11      -0.6190   -12.7970    -4.7680  C.ar    1  <O>11       0.0005
  18 C12      -1.1470   -12.1630    -3.6302  C.ar    1  <O>11      -0.0526
  19 C13      -1.8947   -10.9860    -3.7613  C.ar    1  <O>11      -0.0611
  20 C14      -2.1194   -10.4331    -5.0273  C.ar    1  <O>11      -0.0617
  21 C15      -1.5868   -11.0630    -6.1562  C.ar    1  <O>11      -0.0611
  22 C16      -0.8388   -12.2359    -6.0354  C.ar    1  <O>11      -0.0526
  23 N4        1.4610   -13.8780    -4.4670  N.ar    1  <O>11      -0.2142
  24 C17       3.4840   -12.4530    -4.2470  C.ar    1  <O>11      -0.0141
  25 H1        1.8439    -7.9425    -5.9946  H       1  <O>11       0.0405
  26 H2        3.2419    -7.1263    -6.7347  H       1  <O>11       0.0405
  27 H3        3.0047    -7.0624    -4.9718  H       1  <O>11       0.0405
  28 H4        4.6668    -8.6527    -5.5891  H       1  <O>11       0.1477
  29 H5        4.1930   -15.7480    -4.0630  H       1  <O>11       0.1550
  30 H6        5.9450   -10.1809    -3.9909  H       1  <O>11       0.0637
  31 H7        7.2763   -12.2027    -3.7627  H       1  <O>11       0.0619
  32 H8        6.2064   -14.3845    -3.8401  H       1  <O>11       0.0636
  33 H9       -0.1488   -17.2436    -4.5776  H       1  <O>11       0.0831
  34 H10      -1.5374   -15.2849    -4.8092  H       1  <O>11       0.0654
  35 H11      -0.9831   -12.5663    -2.6945  H       1  <O>11       0.0624
  36 H12      -2.2809   -10.5253    -2.9225  H       1  <O>11       0.0618
  37 H13      -2.6733    -9.5680    -5.1266  H       1  <O>11       0.0618
  38 H14      -1.7486   -10.6558    -7.0906  H       1  <O>11       0.0618
  39 H15      -0.4485   -12.6892    -6.8763  H       1  <O>11       0.0624
  40 H16       2.4616   -12.5198    -4.3706  H       1  <O>11       0.0656
@<TRIPOS>BOND
     1     1     2    1
     2     2     3    1
     3     3     4    2
     4     3     5    2
     5     3     6    1
     6     6     7   ar
     7     7     8   ar
     8     8     9   ar
     9     9    10   ar
    10    10    11    1
    11    11    12    1
    12    12    13   ar
    13    13    14   ar
    14    14    15   ar
    15    15    16   ar
    16    16    17    1
    17    17    18   ar
    18    18    19   ar
    19    19    20   ar
    20    20    21   ar
    21    21    22   ar
    22    17    22   ar
    23    16    23   ar
    24    12    23   ar
    25    10    24   ar
    26     6    24   ar
    27     1    25    1
    28     1    26    1
    29     1    27    1
    30     2    28    1
    31    11    29    1
    32     7    30    1
    33     8    31    1
    34     9    32    1
    35    14    33    1
    36    15    34    1
    37    18    35    1
    38    19    36    1
    39    20    37    1
    40    21    38    1
    41    22    39    1
    42    24    40    1
@<TRIPOS>MOLECULE
mol69_3_24
 40 42 0 0 0
SMALL
USER_CHARGES
****
VDW energy = -129.85
@<TRIPOS>ATOM
   1 C1        2.8936    -7.6802    -5.8629  C.3     1  <O>11       0.0059
   2 N1        3.6845    -8.8982    -5.7123  N.3     1  <O>11      -0.1930
   3 S1        3.1570    -9.7380    -4.3910  S.O2    1  <O>11       0.0582
   4 O1        3.3260    -8.7960    -3.0330  O.2     1  <O>11      -0.1531
   5 O2        1.5570   -10.1370    -4.5920  O.2     1  <O>11      -0.1531
   6 C2        4.1100   -11.2060    -4.2090  C.ar    1  <O>11       0.1070
   7 C3        5.4910   -11.1070    -4.0270  C.ar    1  <O>11      -0.0352
   8 C4        6.2550   -12.2710    -3.8940  C.ar    1  <O>11      -0.0582
   9 C5        5.6420   -13.5260    -3.9380  C.ar    1  <O>11      -0.0404
  10 C6        4.2560   -13.6090    -4.1160  C.ar    1  <O>11       0.0354
  11 N2        3.6290   -14.9040    -4.1600  N.pl3   1  <O>11      -0.2836
  12 C7        2.1930   -15.0090    -4.3420  C.ar    1  <O>11       0.2200
  13 N3        1.6220   -16.2380    -4.3800  N.ar    1  <O>11      -0.2226
  14 C8        0.2900   -16.3100    -4.5480  C.ar    1  <O>11       0.0332
  15 C9       -0.5160   -15.2100    -4.6820  C.ar    1  <O>11      -0.0174
  16 C10       0.1320   -14.0030    -4.6350  C.ar    1  <O>11       0.0760
  17 C11      -0.6190   -12.7970    -4.7680  C.ar    1  <O>11       0.0005
  18 C12      -0.8359   -12.2348    -6.0377  C.ar    1  <O>11      -0.0526
  19 C13      -1.5624   -11.0445    -6.1677  C.ar    1  <O>11      -0.0611
  20 C14      -2.0783   -10.4081    -5.0329  C.ar    1  <O>11      -0.0617
  21 C15      -1.8662   -10.9740    -3.7720  C.ar    1  <O>11      -0.0611
  22 C16      -1.1445   -12.1613    -3.6326  C.ar    1  <O>11      -0.0526
  23 N4        1.4610   -13.8780    -4.4670  N.ar    1  <O>11      -0.2142
  24 C17       3.4840   -12.4530    -4.2470  C.ar    1  <O>11      -0.0141
  25 H1        1.8439    -7.9425    -5.9946  H       1  <O>11       0.0405
  26 H2        3.2419    -7.1263    -6.7347  H       1  <O>11       0.0405
  27 H3        3.0047    -7.0624    -4.9718  H       1  <O>11       0.0405
  28 H4        4.6668    -8.6527    -5.5891  H       1  <O>11       0.1477
  29 H5        4.1930   -15.7480    -4.0630  H       1  <O>11       0.1550
  30 H6        5.9450   -10.1809    -3.9909  H       1  <O>11       0.0637
  31 H7        7.2763   -12.2027    -3.7627  H       1  <O>11       0.0619
  32 H8        6.2064   -14.3845    -3.8401  H       1  <O>11       0.0636
  33 H9       -0.1488   -17.2436    -4.5776  H       1  <O>11       0.0831
  34 H10      -1.5374   -15.2849    -4.8092  H       1  <O>11       0.0654
  35 H11      -0.4584   -12.7009    -6.8775  H       1  <O>11       0.0624
  36 H12      -1.7177   -10.6355    -7.1024  H       1  <O>11       0.0618
  37 H13      -2.6105    -9.5289    -5.1259  H       1  <O>11       0.0618
  38 H14      -2.2479   -10.5084    -2.9339  H       1  <O>11       0.0618
  39 H15      -0.9978   -12.5703    -2.6966  H       1  <O>11       0.0624
  40 H16       2.4616   -12.5198    -4.3706  H       1  <O>11       0.0656
@<TRIPOS>BOND
     1     1     2    1
     2     2     3    1
     3     3     4    2
     4     3     5    2
     5     3     6    1
     6     6     7   ar
     7     7     8   ar
     8     8     9   ar
     9     9    10   ar
    10    10    11    1
    11    11    12    1
    12    12    13   ar
    13    13    14   ar
    14    14    15   ar
    15    15    16   ar
    16    16    17    1
    17    17    18   ar
    18    18    19   ar
    19    19    20   ar
    20    20    21   ar
    21    21    22   ar
    22    17    22   ar
    23    16    23   ar
    24    12    23   ar
    25    10    24   ar
    26     6    24   ar
    27     1    25    1
    28     1    26    1
    29     1    27    1
    30     2    28    1
    31    11    29    1
    32     7    30    1
    33     8    31    1
    34     9    32    1
    35    14    33    1
    36    15    34    1
    37    18    35    1
    38    19    36    1
    39    20    37    1
    40    21    38    1
    41    22    39    1
    42    24    40    1
@<TRIPOS>MOLECULE
mol69_3_25
 40 42 0 0 0
SMALL
USER_CHARGES
****
VDW energy = -128.88
@<TRIPOS>ATOM
   1 C1        2.8936    -7.6802    -5.8629  C.3     1  <O>11       0.0059
   2 N1        3.6845    -8.8982    -5.7123  N.3     1  <O>11      -0.1930
   3 S1        3.1570    -9.7380    -4.3910  S.O2    1  <O>11       0.0582
   4 O1        1.5572   -10.1382    -4.5923  O.2     1  <O>11      -0.1531
   5 O2        4.0569   -11.1240    -4.2213  O.2     1  <O>11      -0.1531
   6 C2        3.3359    -8.7416    -2.9517  C.ar    1  <O>11       0.1070
   7 C3        2.6624    -7.5206    -2.8768  C.ar    1  <O>11      -0.0352
   8 C4        2.8106    -6.7190    -1.7403  C.ar    1  <O>11      -0.0582
   9 C5        3.6233    -7.1371    -0.6832  C.ar    1  <O>11      -0.0404
  10 C6        4.2881    -8.3660    -0.7708  C.ar    1  <O>11       0.0354
  11 N2        5.1237    -8.7927     0.3209  N.pl3   1  <O>11      -0.2836
  12 C7        6.5305    -8.4367     0.3400  C.ar    1  <O>11       0.2200
  13 N3        7.3002    -8.8491     1.3770  N.ar    1  <O>11      -0.2226
  14 C8        8.6008    -8.5084     1.3720  C.ar    1  <O>11       0.0332
  15 C9        9.1853    -7.7694     0.3771  C.ar    1  <O>11      -0.0174
  16 C10       8.3448    -7.3876    -0.6362  C.ar    1  <O>11       0.0760
  17 C11       8.8570    -6.6119    -1.7189  C.ar    1  <O>11       0.0005
  18 C12      10.2123    -6.2407    -1.7444  C.ar    1  <O>11      -0.0526
  19 C13      10.7128    -5.4689    -2.8006  C.ar    1  <O>11      -0.0611
  20 C14       9.8656    -5.0637    -3.8383  C.ar    1  <O>11      -0.0617
  21 C15       8.5194    -5.4407    -3.8129  C.ar    1  <O>11      -0.0611
  22 C16       8.0117    -6.2113    -2.7650  C.ar    1  <O>11      -0.0526
  23 N4        7.0379    -7.7044    -0.6782  N.ar    1  <O>11      -0.2142
  24 C17       4.1446    -9.1748    -1.8997  C.ar    1  <O>11      -0.0141
  25 H1        1.8439    -7.9425    -5.9946  H       1  <O>11       0.0405
  26 H2        3.2419    -7.1263    -6.7347  H       1  <O>11       0.0405
  27 H3        3.0047    -7.0624    -4.9718  H       1  <O>11       0.0405
  28 H4        4.6668    -8.6527    -5.5891  H       1  <O>11       0.1477
  29 H5        4.7280    -9.3455     1.0810  H       1  <O>11       0.1550
  30 H6        2.0591    -7.2117    -3.6551  H       1  <O>11       0.0637
  31 H7        2.3174    -5.8144    -1.6821  H       1  <O>11       0.0619
  32 H8        3.7325    -6.5450     0.1550  H       1  <O>11       0.0636
  33 H9        9.1905    -8.8202     2.1595  H       1  <O>11       0.0831
  34 H10      10.1862    -7.5182     0.3898  H       1  <O>11       0.0654
  35 H11      10.8411    -6.5379    -0.9820  H       1  <O>11       0.0624
  36 H12      11.7086    -5.1982    -2.8136  H       1  <O>11       0.0618
  37 H13      10.2313    -4.4916    -4.6155  H       1  <O>11       0.0618
  38 H14       7.8932    -5.1456    -4.5783  H       1  <O>11       0.0618
  39 H15       7.0169    -6.4856    -2.7597  H       1  <O>11       0.0624
  40 H16       4.6311   -10.0832    -1.9558  H       1  <O>11       0.0656
@<TRIPOS>BOND
     1     1     2    1
     2     2     3    1
     3     3     4    2
     4     3     5    2
     5     3     6    1
     6     6     7   ar
     7     7     8   ar
     8     8     9   ar
     9     9    10   ar
    10    10    11    1
    11    11    12    1
    12    12    13   ar
    13    13    14   ar
    14    14    15   ar
    15    15    16   ar
    16    16    17    1
    17    17    18   ar
    18    18    19   ar
    19    19    20   ar
    20    20    21   ar
    21    21    22   ar
    22    17    22   ar
    23    16    23   ar
    24    12    23   ar
    25    10    24   ar
    26     6    24   ar
    27     1    25    1
    28     1    26    1
    29     1    27    1
    30     2    28    1
    31    11    29    1
    32     7    30    1
    33     8    31    1
    34     9    32    1
    35    14    33    1
    36    15    34    1
    37    18    35    1
    38    19    36    1
    39    20    37    1
    40    21    38    1
    41    22    39    1
    42    24    40    1
@<TRIPOS>MOLECULE
mol69_3_26
 40 42 0 0 0
SMALL
USER_CHARGES
****
VDW energy = -128.00
@<TRIPOS>ATOM
   1 C1        2.8936    -7.6802    -5.8629  C.3     1  <O>11       0.0059
   2 N1        3.6845    -8.8982    -5.7123  N.3     1  <O>11      -0.1930
   3 S1        3.1570    -9.7380    -4.3910  S.O2    1  <O>11       0.0582
   4 O1        1.5572   -10.1382    -4.5923  O.2     1  <O>11      -0.1531
   5 O2        4.0569   -11.1240    -4.2213  O.2     1  <O>11      -0.1531
   6 C2        3.3359    -8.7416    -2.9517  C.ar    1  <O>11       0.1070
   7 C3        2.6624    -7.5206    -2.8768  C.ar    1  <O>11      -0.0352
   8 C4        2.8106    -6.7190    -1.7403  C.ar    1  <O>11      -0.0582
   9 C5        3.6233    -7.1371    -0.6832  C.ar    1  <O>11      -0.0404
  10 C6        4.2881    -8.3660    -0.7708  C.ar    1  <O>11       0.0354
  11 N2        5.1237    -8.7927     0.3209  N.pl3   1  <O>11      -0.2836
  12 C7        4.5591    -9.5789     1.4023  C.ar    1  <O>11       0.2200
  13 N3        5.3629    -9.9703     2.4214  N.ar    1  <O>11      -0.2226
  14 C8        4.8170   -10.6965     3.4125  C.ar    1  <O>11       0.0332
  15 C9        3.4961   -11.0594     3.4451  C.ar    1  <O>11      -0.0174
  16 C10       2.7467   -10.6291     2.3811  C.ar    1  <O>11       0.0760
  17 C11       1.3594   -10.9578     2.3204  C.ar    1  <O>11       0.0005
  18 C12       0.7671   -11.7187     3.3428  C.ar    1  <O>11      -0.0526
  19 C13      -0.5917   -12.0522     3.2776  C.ar    1  <O>11      -0.0611
  20 C14      -1.3684   -11.6278     2.1934  C.ar    1  <O>11      -0.0617
  21 C15      -0.7772   -10.8652     1.1816  C.ar    1  <O>11      -0.0611
  22 C16       0.5763   -10.5266     1.2387  C.ar    1  <O>11      -0.0526
  23 N4        3.2450    -9.8993     1.3666  N.ar    1  <O>11      -0.2142
  24 C17       4.1446    -9.1748    -1.8997  C.ar    1  <O>11      -0.0141
  25 H1        1.8439    -7.9425    -5.9946  H       1  <O>11       0.0405
  26 H2        3.2419    -7.1263    -6.7347  H       1  <O>11       0.0405
  27 H3        3.0047    -7.0624    -4.9718  H       1  <O>11       0.0405
  28 H4        4.6668    -8.6527    -5.5891  H       1  <O>11       0.1477
  29 H5        6.1122    -8.5428     0.3354  H       1  <O>11       0.1550
  30 H6        2.0591    -7.2117    -3.6551  H       1  <O>11       0.0637
  31 H7        2.3174    -5.8144    -1.6821  H       1  <O>11       0.0619
  32 H8        3.7325    -6.5450     0.1550  H       1  <O>11       0.0636
  33 H9        5.4253   -10.9966     4.1903  H       1  <O>11       0.0831
  34 H10       3.0944   -11.6166     4.2153  H       1  <O>11       0.0654
  35 H11       1.3355   -12.0330     4.1448  H       1  <O>11       0.0624
  36 H12      -1.0211   -12.6121     4.0306  H       1  <O>11       0.0618
  37 H13      -2.3689   -11.8757     2.1413  H       1  <O>11       0.0618
  38 H14      -1.3484   -10.5486     0.3825  H       1  <O>11       0.0618
  39 H15       0.9998    -9.9604     0.4870  H       1  <O>11       0.0624
  40 H16       4.6311   -10.0832    -1.9558  H       1  <O>11       0.0656
@<TRIPOS>BOND
     1     1     2    1
     2     2     3    1
     3     3     4    2
     4     3     5    2
     5     3     6    1
     6     6     7   ar
     7     7     8   ar
     8     8     9   ar
     9     9    10   ar
    10    10    11    1
    11    11    12    1
    12    12    13   ar
    13    13    14   ar
    14    14    15   ar
    15    15    16   ar
    16    16    17    1
    17    17    18   ar
    18    18    19   ar
    19    19    20   ar
    20    20    21   ar
    21    21    22   ar
    22    17    22   ar
    23    16    23   ar
    24    12    23   ar
    25    10    24   ar
    26     6    24   ar
    27     1    25    1
    28     1    26    1
    29     1    27    1
    30     2    28    1
    31    11    29    1
    32     7    30    1
    33     8    31    1
    34     9    32    1
    35    14    33    1
    36    15    34    1
    37    18    35    1
    38    19    36    1
    39    20    37    1
    40    21    38    1
    41    22    39    1
    42    24    40    1
@<TRIPOS>MOLECULE
mol69_3_27
 40 42 0 0 0
SMALL
USER_CHARGES
****
VDW energy = -126.25
@<TRIPOS>ATOM
   1 C1        2.8936    -7.6802    -5.8629  C.3     1  <O>11       0.0059
   2 N1        3.6845    -8.8982    -5.7123  N.3     1  <O>11      -0.1930
   3 S1        3.1570    -9.7380    -4.3910  S.O2    1  <O>11       0.0582
   4 O1        3.3260    -8.7960    -3.0330  O.2     1  <O>11      -0.1531
   5 O2        1.5570   -10.1370    -4.5920  O.2     1  <O>11      -0.1531
   6 C2        4.1100   -11.2060    -4.2090  C.ar    1  <O>11       0.1070
   7 C3        5.4910   -11.1070    -4.0270  C.ar    1  <O>11      -0.0352
   8 C4        6.2550   -12.2710    -3.8940  C.ar    1  <O>11      -0.0582
   9 C5        5.6420   -13.5260    -3.9380  C.ar    1  <O>11      -0.0404
  10 C6        4.2560   -13.6090    -4.1160  C.ar    1  <O>11       0.0354
  11 N2        3.6290   -14.9040    -4.1600  N.pl3   1  <O>11      -0.2836
  12 C7        2.1930   -15.0090    -4.3420  C.ar    1  <O>11       0.2200
  13 N3        1.6220   -16.2380    -4.3800  N.ar    1  <O>11      -0.2226
  14 C8        0.2900   -16.3100    -4.5480  C.ar    1  <O>11       0.0332
  15 C9       -0.5160   -15.2100    -4.6820  C.ar    1  <O>11      -0.0174
  16 C10       0.1320   -14.0030    -4.6350  C.ar    1  <O>11       0.0760
  17 C11      -0.6190   -12.7970    -4.7680  C.ar    1  <O>11       0.0005
  18 C12      -0.6158   -11.8438    -3.7352  C.ar    1  <O>11      -0.0526
  19 C13      -1.3626   -10.6655    -3.8600  C.ar    1  <O>11      -0.0611
  20 C14      -2.1160   -10.4297    -5.0157  C.ar    1  <O>11      -0.0617
  21 C15      -2.1114   -11.3772    -6.0439  C.ar    1  <O>11      -0.0611
  22 C16      -1.3687   -12.5542    -5.9292  C.ar    1  <O>11      -0.0526
  23 N4        1.4610   -13.8780    -4.4670  N.ar    1  <O>11      -0.2142
  24 C17       3.4840   -12.4530    -4.2470  C.ar    1  <O>11      -0.0141
  25 H1        1.8439    -7.9425    -5.9946  H       1  <O>11       0.0405
  26 H2        3.2419    -7.1263    -6.7347  H       1  <O>11       0.0405
  27 H3        3.0047    -7.0624    -4.9718  H       1  <O>11       0.0405
  28 H4        4.6668    -8.6527    -5.5891  H       1  <O>11       0.1477
  29 H5        4.1930   -15.7480    -4.0630  H       1  <O>11       0.1550
  30 H6        5.9450   -10.1809    -3.9909  H       1  <O>11       0.0637
  31 H7        7.2763   -12.2027    -3.7627  H       1  <O>11       0.0619
  32 H8        6.2064   -14.3845    -3.8401  H       1  <O>11       0.0636
  33 H9       -0.1488   -17.2436    -4.5776  H       1  <O>11       0.0831
  34 H10      -1.5374   -15.2849    -4.8092  H       1  <O>11       0.0654
  35 H11      -0.0610   -12.0127    -2.8816  H       1  <O>11       0.0624
  36 H12      -1.3574    -9.9696    -3.0980  H       1  <O>11       0.0618
  37 H13      -2.6702    -9.5640    -5.1081  H       1  <O>11       0.0618
  38 H14      -2.6637   -11.2045    -6.8983  H       1  <O>11       0.0618
  39 H15      -1.3711   -13.2439    -6.6967  H       1  <O>11       0.0624
  40 H16       2.4616   -12.5198    -4.3706  H       1  <O>11       0.0656
@<TRIPOS>BOND
     1     1     2    1
     2     2     3    1
     3     3     4    2
     4     3     5    2
     5     3     6    1
     6     6     7   ar
     7     7     8   ar
     8     8     9   ar
     9     9    10   ar
    10    10    11    1
    11    11    12    1
    12    12    13   ar
    13    13    14   ar
    14    14    15   ar
    15    15    16   ar
    16    16    17    1
    17    17    18   ar
    18    18    19   ar
    19    19    20   ar
    20    20    21   ar
    21    21    22   ar
    22    17    22   ar
    23    16    23   ar
    24    12    23   ar
    25    10    24   ar
    26     6    24   ar
    27     1    25    1
    28     1    26    1
    29     1    27    1
    30     2    28    1
    31    11    29    1
    32     7    30    1
    33     8    31    1
    34     9    32    1
    35    14    33    1
    36    15    34    1
    37    18    35    1
    38    19    36    1
    39    20    37    1
    40    21    38    1
    41    22    39    1
    42    24    40    1
@<TRIPOS>MOLECULE
mol69_3_28
 40 42 0 0 0
SMALL
USER_CHARGES
****
VDW energy = -126.18
@<TRIPOS>ATOM
   1 C1        2.8936    -7.6802    -5.8629  C.3     1  <O>11       0.0059
   2 N1        3.6845    -8.8982    -5.7123  N.3     1  <O>11      -0.1930
   3 S1        3.1570    -9.7380    -4.3910  S.O2    1  <O>11       0.0582
   4 O1        3.3260    -8.7960    -3.0330  O.2     1  <O>11      -0.1531
   5 O2        1.5570   -10.1370    -4.5920  O.2     1  <O>11      -0.1531
   6 C2        4.1100   -11.2060    -4.2090  C.ar    1  <O>11       0.1070
   7 C3        5.4910   -11.1070    -4.0270  C.ar    1  <O>11      -0.0352
   8 C4        6.2550   -12.2710    -3.8940  C.ar    1  <O>11      -0.0582
   9 C5        5.6420   -13.5260    -3.9380  C.ar    1  <O>11      -0.0404
  10 C6        4.2560   -13.6090    -4.1160  C.ar    1  <O>11       0.0354
  11 N2        3.6290   -14.9040    -4.1600  N.pl3   1  <O>11      -0.2836
  12 C7        2.1930   -15.0090    -4.3420  C.ar    1  <O>11       0.2200
  13 N3        1.6220   -16.2380    -4.3800  N.ar    1  <O>11      -0.2226
  14 C8        0.2900   -16.3100    -4.5480  C.ar    1  <O>11       0.0332
  15 C9       -0.5160   -15.2100    -4.6820  C.ar    1  <O>11      -0.0174
  16 C10       0.1320   -14.0030    -4.6350  C.ar    1  <O>11       0.0760
  17 C11      -0.6190   -12.7970    -4.7680  C.ar    1  <O>11       0.0005
  18 C12      -0.3464   -11.9060    -5.8202  C.ar    1  <O>11      -0.0526
  19 C13      -1.0748   -10.7162    -5.9440  C.ar    1  <O>11      -0.0611
  20 C14      -2.0804   -10.4081    -5.0205  C.ar    1  <O>11      -0.0617
  21 C15      -2.3534   -11.3002    -3.9791  C.ar    1  <O>11      -0.0611
  22 C16      -1.6334   -12.4895    -3.8483  C.ar    1  <O>11      -0.0526
  23 N4        1.4610   -13.8780    -4.4670  N.ar    1  <O>11      -0.2142
  24 C17       3.4840   -12.4530    -4.2470  C.ar    1  <O>11      -0.0141
  25 H1        1.8439    -7.9425    -5.9946  H       1  <O>11       0.0405
  26 H2        3.2419    -7.1263    -6.7347  H       1  <O>11       0.0405
  27 H3        3.0047    -7.0624    -4.9718  H       1  <O>11       0.0405
  28 H4        4.6668    -8.6527    -5.5891  H       1  <O>11       0.1477
  29 H5        4.1930   -15.7480    -4.0630  H       1  <O>11       0.1550
  30 H6        5.9450   -10.1809    -3.9909  H       1  <O>11       0.0637
  31 H7        7.2763   -12.2027    -3.7627  H       1  <O>11       0.0619
  32 H8        6.2064   -14.3845    -3.8401  H       1  <O>11       0.0636
  33 H9       -0.1488   -17.2436    -4.5776  H       1  <O>11       0.0831
  34 H10      -1.5374   -15.2849    -4.8092  H       1  <O>11       0.0654
  35 H11       0.3934   -12.1292    -6.5042  H       1  <O>11       0.0624
  36 H12      -0.8697   -10.0650    -6.7179  H       1  <O>11       0.0618
  37 H13      -2.6158    -9.5301    -5.1076  H       1  <O>11       0.0618
  38 H14      -3.0962   -11.0768    -3.2984  H       1  <O>11       0.0618
  39 H15      -1.8469   -13.1410    -3.0771  H       1  <O>11       0.0624
  40 H16       2.4616   -12.5198    -4.3706  H       1  <O>11       0.0656
@<TRIPOS>BOND
     1     1     2    1
     2     2     3    1
     3     3     4    2
     4     3     5    2
     5     3     6    1
     6     6     7   ar
     7     7     8   ar
     8     8     9   ar
     9     9    10   ar
    10    10    11    1
    11    11    12    1
    12    12    13   ar
    13    13    14   ar
    14    14    15   ar
    15    15    16   ar
    16    16    17    1
    17    17    18   ar
    18    18    19   ar
    19    19    20   ar
    20    20    21   ar
    21    21    22   ar
    22    17    22   ar
    23    16    23   ar
    24    12    23   ar
    25    10    24   ar
    26     6    24   ar
    27     1    25    1
    28     1    26    1
    29     1    27    1
    30     2    28    1
    31    11    29    1
    32     7    30    1
    33     8    31    1
    34     9    32    1
    35    14    33    1
    36    15    34    1
    37    18    35    1
    38    19    36    1
    39    20    37    1
    40    21    38    1
    41    22    39    1
    42    24    40    1
@<TRIPOS>MOLECULE
mol69_3_29
 40 42 0 0 0
SMALL
USER_CHARGES
****
VDW energy = -110.32
@<TRIPOS>ATOM
   1 C1        2.8936    -7.6802    -5.8629  C.3     1  <O>11       0.0059
   2 N1        3.6845    -8.8982    -5.7123  N.3     1  <O>11      -0.1930
   3 S1        3.1570    -9.7380    -4.3910  S.O2    1  <O>11       0.0582
   4 O1        1.5572   -10.1382    -4.5923  O.2     1  <O>11      -0.1531
   5 O2        4.0569   -11.1240    -4.2213  O.2     1  <O>11      -0.1531
   6 C2        3.3359    -8.7416    -2.9517  C.ar    1  <O>11       0.1070
   7 C3        2.6624    -7.5206    -2.8768  C.ar    1  <O>11      -0.0352
   8 C4        2.8106    -6.7190    -1.7403  C.ar    1  <O>11      -0.0582
   9 C5        3.6233    -7.1371    -0.6832  C.ar    1  <O>11      -0.0404
  10 C6        4.2881    -8.3660    -0.7708  C.ar    1  <O>11       0.0354
  11 N2        5.1237    -8.7927     0.3209  N.pl3   1  <O>11      -0.2836
  12 C7        5.8190   -10.0645     0.2482  C.ar    1  <O>11       0.2200
  13 N3        6.6005   -10.4483     1.2874  N.ar    1  <O>11      -0.2226
  14 C8        7.2334   -11.6311     1.1978  C.ar    1  <O>11       0.0332
  15 C9        7.1293   -12.4646     0.1152  C.ar    1  <O>11      -0.0174
  16 C10       6.3235   -12.0092    -0.8960  C.ar    1  <O>11       0.0760
  17 C11       6.1518   -12.8034    -2.0690  C.ar    1  <O>11       0.0005
  18 C12       7.0199   -12.6465    -3.1631  C.ar    1  <O>11      -0.0526
  19 C13       6.8443   -13.4170    -4.3195  C.ar    1  <O>11      -0.0611
  20 C14       5.8032   -14.3496    -4.3915  C.ar    1  <O>11      -0.0617
  21 C15       4.9458   -14.5077    -3.2984  C.ar    1  <O>11      -0.0611
  22 C16       5.1139   -13.7452    -2.1408  C.ar    1  <O>11      -0.0526
  23 N4        5.6678   -10.8352    -0.8535  N.ar    1  <O>11      -0.2142
  24 C17       4.1446    -9.1748    -1.8997  C.ar    1  <O>11      -0.0141
  25 H1        1.8439    -7.9425    -5.9946  H       1  <O>11       0.0405
  26 H2        3.2419    -7.1263    -6.7347  H       1  <O>11       0.0405
  27 H3        3.0047    -7.0624    -4.9718  H       1  <O>11       0.0405
  28 H4        4.6668    -8.6527    -5.5891  H       1  <O>11       0.1477
  29 H5        5.2272    -8.2023     1.1459  H       1  <O>11       0.1550
  30 H6        2.0591    -7.2117    -3.6551  H       1  <O>11       0.0637
  31 H7        2.3174    -5.8144    -1.6821  H       1  <O>11       0.0619
  32 H8        3.7325    -6.5450     0.1550  H       1  <O>11       0.0636
  33 H9        7.8294   -11.9271     1.9866  H       1  <O>11       0.0831
  34 H10       7.6221   -13.3699     0.0647  H       1  <O>11       0.0654
  35 H11       7.7897   -11.9608    -3.1143  H       1  <O>11       0.0624
  36 H12       7.4840   -13.2968    -5.1203  H       1  <O>11       0.0618
  37 H13       5.6695   -14.9156    -5.2440  H       1  <O>11       0.0618
  38 H14       4.1791   -15.1967    -3.3479  H       1  <O>11       0.0618
  39 H15       4.4762   -13.8739    -1.3398  H       1  <O>11       0.0624
  40 H16       4.6311   -10.0832    -1.9558  H       1  <O>11       0.0656
@<TRIPOS>BOND
     1     1     2    1
     2     2     3    1
     3     3     4    2
     4     3     5    2
     5     3     6    1
     6     6     7   ar
     7     7     8   ar
     8     8     9   ar
     9     9    10   ar
    10    10    11    1
    11    11    12    1
    12    12    13   ar
    13    13    14   ar
    14    14    15   ar
    15    15    16   ar
    16    16    17    1
    17    17    18   ar
    18    18    19   ar
    19    19    20   ar
    20    20    21   ar
    21    21    22   ar
    22    17    22   ar
    23    16    23   ar
    24    12    23   ar
    25    10    24   ar
    26     6    24   ar
    27     1    25    1
    28     1    26    1
    29     1    27    1
    30     2    28    1
    31    11    29    1
    32     7    30    1
    33     8    31    1
    34     9    32    1
    35    14    33    1
    36    15    34    1
    37    18    35    1
    38    19    36    1
    39    20    37    1
    40    21    38    1
    41    22    39    1
    42    24    40    1
@<TRIPOS>MOLECULE
mol69_3_30
 40 42 0 0 0
SMALL
USER_CHARGES
****
VDW energy = -110.26
@<TRIPOS>ATOM
   1 C1        2.8936    -7.6802    -5.8629  C.3     1  <O>11       0.0059
   2 N1        3.6845    -8.8982    -5.7123  N.3     1  <O>11      -0.1930
   3 S1        3.1570    -9.7380    -4.3910  S.O2    1  <O>11       0.0582
   4 O1        3.3260    -8.7960    -3.0330  O.2     1  <O>11      -0.1531
   5 O2        1.5570   -10.1370    -4.5920  O.2     1  <O>11      -0.1531
   6 C2        4.1100   -11.2060    -4.2090  C.ar    1  <O>11       0.1070
   7 C3        3.8346   -12.0735    -3.1499  C.ar    1  <O>11      -0.0352
   8 C4        4.5970   -13.2357    -2.9934  C.ar    1  <O>11      -0.0582
   9 C5        5.6252   -13.5313    -3.8924  C.ar    1  <O>11      -0.0404
  10 C6        5.8860   -12.6545    -4.9521  C.ar    1  <O>11       0.0354
  11 N2        6.9457   -12.9636    -5.8760  N.pl3   1  <O>11      -0.2836
  12 C7        7.2289   -12.0670    -6.9814  C.ar    1  <O>11       0.2200
  13 N3        8.2308   -12.3768    -7.8407  N.ar    1  <O>11      -0.2226
  14 C8        8.4735   -11.5317    -8.8579  C.ar    1  <O>11       0.0332
  15 C9        7.7634   -10.3791    -9.0695  C.ar    1  <O>11      -0.0174
  16 C10       6.7681   -10.1320    -8.1600  C.ar    1  <O>11       0.0760
  17 C11       5.9727    -8.9546    -8.2918  C.ar    1  <O>11       0.0005
  18 C12       4.5817    -9.0561    -8.4657  C.ar    1  <O>11      -0.0526
  19 C13       3.8022    -7.9012    -8.6075  C.ar    1  <O>11      -0.0611
  20 C14       4.4043    -6.6382    -8.5753  C.ar    1  <O>11      -0.0617
  21 C15       5.7874    -6.5410    -8.3953  C.ar    1  <O>11      -0.0611
  22 C16       6.5727    -7.6867    -8.2516  C.ar    1  <O>11      -0.0526
  23 N4        6.4849   -10.9464    -7.1272  N.ar    1  <O>11      -0.2142
  24 C17       5.1290   -11.4932    -5.1187  C.ar    1  <O>11      -0.0141
  25 H1        1.8439    -7.9425    -5.9946  H       1  <O>11       0.0405
  26 H2        3.2419    -7.1263    -6.7347  H       1  <O>11       0.0405
  27 H3        3.0047    -7.0624    -4.9718  H       1  <O>11       0.0405
  28 H4        4.6668    -8.6527    -5.5891  H       1  <O>11       0.1477
  29 H5        7.4975   -13.8125    -5.7546  H       1  <O>11       0.1550
  30 H6        3.0735   -11.8585    -2.4869  H       1  <O>11       0.0637
  31 H7        4.3993   -13.8780    -2.2102  H       1  <O>11       0.0619
  32 H8        6.1875   -14.3888    -3.7762  H       1  <O>11       0.0636
  33 H9        9.2353   -11.7636    -9.5143  H       1  <O>11       0.0831
  34 H10       7.9636    -9.7428    -9.8570  H       1  <O>11       0.0654
  35 H11       4.1331    -9.9852    -8.4891  H       1  <O>11       0.0624
  36 H12       2.7814    -7.9817    -8.7361  H       1  <O>11       0.0618
  37 H13       3.8323    -5.7860    -8.6836  H       1  <O>11       0.0618
  38 H14       6.2336    -5.6108    -8.3684  H       1  <O>11       0.0618
  39 H15       7.5921    -7.6011    -8.1160  H       1  <O>11       0.0624
  40 H16       5.3207   -10.8541    -5.9060  H       1  <O>11       0.0656
@<TRIPOS>BOND
     1     1     2    1
     2     2     3    1
     3     3     4    2
     4     3     5    2
     5     3     6    1
     6     6     7   ar
     7     7     8   ar
     8     8     9   ar
     9     9    10   ar
    10    10    11    1
    11    11    12    1
    12    12    13   ar
    13    13    14   ar
    14    14    15   ar
    15    15    16   ar
    16    16    17    1
    17    17    18   ar
    18    18    19   ar
    19    19    20   ar
    20    20    21   ar
    21    21    22   ar
    22    17    22   ar
    23    16    23   ar
    24    12    23   ar
    25    10    24   ar
    26     6    24   ar
    27     1    25    1
    28     1    26    1
    29     1    27    1
    30     2    28    1
    31    11    29    1
    32     7    30    1
    33     8    31    1
    34     9    32    1
    35    14    33    1
    36    15    34    1
    37    18    35    1
    38    19    36    1
    39    20    37    1
    40    21    38    1
    41    22    39    1
    42    24    40    1
@<TRIPOS>MOLECULE
mol69_4_1
 40 42 0 0 0
SMALL
USER_CHARGES
****
VDW energy = -159.02
@<TRIPOS>ATOM
   1 C1        2.8936    -7.6802    -5.8629  C.3     1  <O>11       0.0059
   2 N1        3.6845    -8.8982    -5.7123  N.3     1  <O>11      -0.1930
   3 S1        3.1570    -9.7380    -4.3910  S.O2    1  <O>11       0.0582
   4 O1        3.3260    -8.7960    -3.0330  O.2     1  <O>11      -0.1531
   5 O2        1.5570   -10.1370    -4.5920  O.2     1  <O>11      -0.1531
   6 C2        4.1100   -11.2060    -4.2090  C.ar    1  <O>11       0.1070
   7 C3        4.1160   -12.1498    -5.2382  C.ar    1  <O>11      -0.0352
   8 C4        4.8620   -13.3240    -5.0938  C.ar    1  <O>11      -0.0582
   9 C5        5.6011   -13.5515    -3.9299  C.ar    1  <O>11      -0.0404
  10 C6        5.5892   -12.5938    -2.9090  C.ar    1  <O>11       0.0354
  11 N2        6.3527   -12.8323    -1.7122  N.pl3   1  <O>11      -0.2836
  12 C7        5.9912   -13.9206    -0.8242  C.ar    1  <O>11       0.2200
  13 N3        6.7243   -14.1229     0.2966  N.ar    1  <O>11      -0.2226
  14 C8        6.3690   -15.1387     1.1060  C.ar    1  <O>11       0.0332
  15 C9        5.3096   -15.9726     0.8552  C.ar    1  <O>11      -0.0174
  16 C10       4.6163   -15.7042    -0.2958  C.ar    1  <O>11       0.0760
  17 C11       3.4966   -16.5135    -0.6469  C.ar    1  <O>11       0.0005
  18 C12       3.6715   -17.6639    -1.4360  C.ar    1  <O>11      -0.0526
  19 C13       2.5703   -18.4515    -1.7897  C.ar    1  <O>11      -0.0611
  20 C14       1.2886   -18.1005    -1.3591  C.ar    1  <O>11      -0.0617
  21 C15       1.1155   -16.9594    -0.5669  C.ar    1  <O>11      -0.0611
  22 C16       2.2069   -16.1708    -0.2065  C.ar    1  <O>11      -0.0526
  23 N4        4.9326   -14.7009    -1.1390  N.ar    1  <O>11      -0.2142
  24 C17       4.8500   -11.4171    -3.0445  C.ar    1  <O>11      -0.0141
  25 H1        1.8439    -7.9425    -5.9946  H       1  <O>11       0.0405
  26 H2        3.2419    -7.1263    -6.7347  H       1  <O>11       0.0405
  27 H3        3.0047    -7.0624    -4.9718  H       1  <O>11       0.0405
  28 H4        4.6668    -8.6527    -5.5891  H       1  <O>11       0.1477
  29 H5        7.1491   -12.2343    -1.4878  H       1  <O>11       0.1550
  30 H6        3.5734   -11.9820    -6.0999  H       1  <O>11       0.0637
  31 H7        4.8667   -14.0258    -5.8504  H       1  <O>11       0.0619
  32 H8        6.1512   -14.4183    -3.8238  H       1  <O>11       0.0636
  33 H9        6.9239   -15.2982     1.9613  H       1  <O>11       0.0831
  34 H10       5.0530   -16.7465     1.4879  H       1  <O>11       0.0654
  35 H11       4.6163   -17.9286    -1.7558  H       1  <O>11       0.0624
  36 H12       2.7054   -19.2939    -2.3702  H       1  <O>11       0.0618
  37 H13       0.4752   -18.6783    -1.6230  H       1  <O>11       0.0618
  38 H14       0.1697   -16.6992    -0.2462  H       1  <O>11       0.0618
  39 H15       2.0679   -15.3356     0.3835  H       1  <O>11       0.0624
  40 H16       4.8507   -10.7111    -2.2918  H       1  <O>11       0.0656
@<TRIPOS>BOND
     1     1     2    1
     2     2     3    1
     3     3     4    2
     4     3     5    2
     5     3     6    1
     6     6     7   ar
     7     7     8   ar
     8     8     9   ar
     9     9    10   ar
    10    10    11    1
    11    11    12    1
    12    12    13   ar
    13    13    14   ar
    14    14    15   ar
    15    15    16   ar
    16    16    17    1
    17    17    18   ar
    18    18    19   ar
    19    19    20   ar
    20    20    21   ar
    21    21    22   ar
    22    17    22   ar
    23    16    23   ar
    24    12    23   ar
    25    10    24   ar
    26     6    24   ar
    27     1    25    1
    28     1    26    1
    29     1    27    1
    30     2    28    1
    31    11    29    1
    32     7    30    1
    33     8    31    1
    34     9    32    1
    35    14    33    1
    36    15    34    1
    37    18    35    1
    38    19    36    1
    39    20    37    1
    40    21    38    1
    41    22    39    1
    42    24    40    1
@<TRIPOS>MOLECULE
mol69_4_2
 40 42 0 0 0
SMALL
USER_CHARGES
****
VDW energy = -157.96
@<TRIPOS>ATOM
   1 C1        2.8936    -7.6802    -5.8629  C.3     1  <O>11       0.0059
   2 N1        3.6845    -8.8982    -5.7123  N.3     1  <O>11      -0.1930
   3 S1        3.1570    -9.7380    -4.3910  S.O2    1  <O>11       0.0582
   4 O1        3.3260    -8.7960    -3.0330  O.2     1  <O>11      -0.1531
   5 O2        1.5570   -10.1370    -4.5920  O.2     1  <O>11      -0.1531
   6 C2        4.1100   -11.2060    -4.2090  C.ar    1  <O>11       0.1070
   7 C3        4.1160   -12.1498    -5.2382  C.ar    1  <O>11      -0.0352
   8 C4        4.8620   -13.3240    -5.0938  C.ar    1  <O>11      -0.0582
   9 C5        5.6011   -13.5515    -3.9299  C.ar    1  <O>11      -0.0404
  10 C6        5.5892   -12.5938    -2.9090  C.ar    1  <O>11       0.0354
  11 N2        6.3527   -12.8323    -1.7122  N.pl3   1  <O>11      -0.2836
  12 C7        7.7301   -12.3862    -1.6277  C.ar    1  <O>11       0.2200
  13 N3        7.9890   -11.1453    -1.1505  N.ar    1  <O>11      -0.2226
  14 C8        9.2755   -10.7539    -1.0806  C.ar    1  <O>11       0.0332
  15 C9       10.3296   -11.5424    -1.4648  C.ar    1  <O>11      -0.0174
  16 C10       9.9882   -12.7833    -1.9351  C.ar    1  <O>11       0.0760
  17 C11      11.0116   -13.6802    -2.3595  C.ar    1  <O>11       0.0005
  18 C12      11.5955   -14.5750    -1.4456  C.ar    1  <O>11      -0.0526
  19 C13      12.6081   -15.4471    -1.8604  C.ar    1  <O>11      -0.0611
  20 C14      13.0448   -15.4358    -3.1872  C.ar    1  <O>11      -0.0617
  21 C15      12.4581   -14.5502    -4.0989  C.ar    1  <O>11      -0.0611
  22 C16      11.4463   -13.6803    -3.6958  C.ar    1  <O>11      -0.0526
  23 N4        8.7164   -13.2214    -2.0258  N.ar    1  <O>11      -0.2142
  24 C17       4.8500   -11.4171    -3.0445  C.ar    1  <O>11      -0.0141
  25 H1        1.8439    -7.9425    -5.9946  H       1  <O>11       0.0405
  26 H2        3.2419    -7.1263    -6.7347  H       1  <O>11       0.0405
  27 H3        3.0047    -7.0624    -4.9718  H       1  <O>11       0.0405
  28 H4        4.6668    -8.6527    -5.5891  H       1  <O>11       0.1477
  29 H5        5.9243   -13.3166    -0.9222  H       1  <O>11       0.1550
  30 H6        3.5734   -11.9820    -6.0999  H       1  <O>11       0.0637
  31 H7        4.8667   -14.0258    -5.8504  H       1  <O>11       0.0619
  32 H8        6.1512   -14.4183    -3.8238  H       1  <O>11       0.0636
  33 H9        9.4792    -9.8092    -0.7183  H       1  <O>11       0.0831
  34 H10      11.3094   -11.2241    -1.4041  H       1  <O>11       0.0654
  35 H11      11.2758   -14.5886    -0.4645  H       1  <O>11       0.0624
  36 H12      13.0333   -16.1005    -1.1843  H       1  <O>11       0.0618
  37 H13      13.7946   -16.0755    -3.4931  H       1  <O>11       0.0618
  38 H14      12.7780   -14.5414    -5.0801  H       1  <O>11       0.0618
  39 H15      11.0166   -13.0366    -4.3784  H       1  <O>11       0.0624
  40 H16       4.8507   -10.7111    -2.2918  H       1  <O>11       0.0656
@<TRIPOS>BOND
     1     1     2    1
     2     2     3    1
     3     3     4    2
     4     3     5    2
     5     3     6    1
     6     6     7   ar
     7     7     8   ar
     8     8     9   ar
     9     9    10   ar
    10    10    11    1
    11    11    12    1
    12    12    13   ar
    13    13    14   ar
    14    14    15   ar
    15    15    16   ar
    16    16    17    1
    17    17    18   ar
    18    18    19   ar
    19    19    20   ar
    20    20    21   ar
    21    21    22   ar
    22    17    22   ar
    23    16    23   ar
    24    12    23   ar
    25    10    24   ar
    26     6    24   ar
    27     1    25    1
    28     1    26    1
    29     1    27    1
    30     2    28    1
    31    11    29    1
    32     7    30    1
    33     8    31    1
    34     9    32    1
    35    14    33    1
    36    15    34    1
    37    18    35    1
    38    19    36    1
    39    20    37    1
    40    21    38    1
    41    22    39    1
    42    24    40    1
@<TRIPOS>MOLECULE
mol69_4_3
 40 42 0 0 0
SMALL
USER_CHARGES
****
VDW energy = -157.91
@<TRIPOS>ATOM
   1 C1        2.8936    -7.6802    -5.8629  C.3     1  <O>11       0.0059
   2 N1        3.6845    -8.8982    -5.7123  N.3     1  <O>11      -0.1930
   3 S1        3.1570    -9.7380    -4.3910  S.O2    1  <O>11       0.0582
   4 O1        3.3260    -8.7960    -3.0330  O.2     1  <O>11      -0.1531
   5 O2        1.5570   -10.1370    -4.5920  O.2     1  <O>11      -0.1531
   6 C2        4.1100   -11.2060    -4.2090  C.ar    1  <O>11       0.1070
   7 C3        4.1160   -12.1498    -5.2382  C.ar    1  <O>11      -0.0352
   8 C4        4.8620   -13.3240    -5.0938  C.ar    1  <O>11      -0.0582
   9 C5        5.6011   -13.5515    -3.9299  C.ar    1  <O>11      -0.0404
  10 C6        5.5892   -12.5938    -2.9090  C.ar    1  <O>11       0.0354
  11 N2        6.3527   -12.8323    -1.7122  N.pl3   1  <O>11      -0.2836
  12 C7        7.8007   -12.8871    -1.7726  C.ar    1  <O>11       0.2200
  13 N3        8.5074   -11.7445    -1.6007  N.ar    1  <O>11      -0.2226
  14 C8        9.8506   -11.8205    -1.6601  C.ar    1  <O>11       0.0332
  15 C9       10.5344   -12.9879    -1.8836  C.ar    1  <O>11      -0.0174
  16 C10       9.7511   -14.1004    -2.0463  C.ar    1  <O>11       0.0760
  17 C11      10.3659   -15.3645    -2.2832  C.ar    1  <O>11       0.0005
  18 C12      10.7123   -16.1986    -1.2058  C.ar    1  <O>11      -0.0526
  19 C13      11.3262   -17.4343    -1.4387  C.ar    1  <O>11      -0.0611
  20 C14      11.5976   -17.8486    -2.7448  C.ar    1  <O>11      -0.0617
  21 C15      11.2457   -17.0214    -3.8179  C.ar    1  <O>11      -0.0611
  22 C16      10.6305   -15.7904    -3.5959  C.ar    1  <O>11      -0.0526
  23 N4        8.4040   -14.0764    -1.9970  N.ar    1  <O>11      -0.2142
  24 C17       4.8500   -11.4171    -3.0445  C.ar    1  <O>11      -0.0141
  25 H1        1.8439    -7.9425    -5.9946  H       1  <O>11       0.0405
  26 H2        3.2419    -7.1263    -6.7347  H       1  <O>11       0.0405
  27 H3        3.0047    -7.0624    -4.9718  H       1  <O>11       0.0405
  28 H4        4.6668    -8.6527    -5.5891  H       1  <O>11       0.1477
  29 H5        5.8743   -12.9637    -0.8200  H       1  <O>11       0.1550
  30 H6        3.5734   -11.9820    -6.0999  H       1  <O>11       0.0637
  31 H7        4.8667   -14.0258    -5.8504  H       1  <O>11       0.0619
  32 H8        6.1512   -14.4183    -3.8238  H       1  <O>11       0.0636
  33 H9       10.3947   -10.9533    -1.5303  H       1  <O>11       0.0831
  34 H10      11.5649   -13.0259    -1.9261  H       1  <O>11       0.0654
  35 H11      10.5129   -15.8982    -0.2389  H       1  <O>11       0.0624
  36 H12      11.5791   -18.0413    -0.6433  H       1  <O>11       0.0618
  37 H13      12.0543   -18.7578    -2.9174  H       1  <O>11       0.0618
  38 H14      11.4437   -17.3262    -4.7838  H       1  <O>11       0.0618
  39 H15      10.3696   -15.1921    -4.3952  H       1  <O>11       0.0624
  40 H16       4.8507   -10.7111    -2.2918  H       1  <O>11       0.0656
@<TRIPOS>BOND
     1     1     2    1
     2     2     3    1
     3     3     4    2
     4     3     5    2
     5     3     6    1
     6     6     7   ar
     7     7     8   ar
     8     8     9   ar
     9     9    10   ar
    10    10    11    1
    11    11    12    1
    12    12    13   ar
    13    13    14   ar
    14    14    15   ar
    15    15    16   ar
    16    16    17    1
    17    17    18   ar
    18    18    19   ar
    19    19    20   ar
    20    20    21   ar
    21    21    22   ar
    22    17    22   ar
    23    16    23   ar
    24    12    23   ar
    25    10    24   ar
    26     6    24   ar
    27     1    25    1
    28     1    26    1
    29     1    27    1
    30     2    28    1
    31    11    29    1
    32     7    30    1
    33     8    31    1
    34     9    32    1
    35    14    33    1
    36    15    34    1
    37    18    35    1
    38    19    36    1
    39    20    37    1
    40    21    38    1
    41    22    39    1
    42    24    40    1
@<TRIPOS>MOLECULE
mol69_4_4
 40 42 0 0 0
SMALL
USER_CHARGES
****
VDW energy = -157.51
@<TRIPOS>ATOM
   1 C1        2.8936    -7.6802    -5.8629  C.3     1  <O>11       0.0059
   2 N1        3.6845    -8.8982    -5.7123  N.3     1  <O>11      -0.1930
   3 S1        3.1570    -9.7380    -4.3910  S.O2    1  <O>11       0.0582
   4 O1        3.3260    -8.7960    -3.0330  O.2     1  <O>11      -0.1531
   5 O2        1.5570   -10.1370    -4.5920  O.2     1  <O>11      -0.1531
   6 C2        4.1100   -11.2060    -4.2090  C.ar    1  <O>11       0.1070
   7 C3        4.1160   -12.1498    -5.2382  C.ar    1  <O>11      -0.0352
   8 C4        4.8620   -13.3240    -5.0938  C.ar    1  <O>11      -0.0582
   9 C5        5.6011   -13.5515    -3.9299  C.ar    1  <O>11      -0.0404
  10 C6        5.5892   -12.5938    -2.9090  C.ar    1  <O>11       0.0354
  11 N2        6.3527   -12.8323    -1.7122  N.pl3   1  <O>11      -0.2836
  12 C7        5.9912   -13.9206    -0.8242  C.ar    1  <O>11       0.2200
  13 N3        6.5435   -15.1410    -1.0247  N.ar    1  <O>11      -0.2226
  14 C8        6.1934   -16.1353    -0.1870  C.ar    1  <O>11       0.0332
  15 C9        5.3127   -15.9762     0.8520  C.ar    1  <O>11      -0.0174
  16 C10       4.7975   -14.7141     0.9914  C.ar    1  <O>11       0.0760
  17 C11       3.8729   -14.4444     2.0422  C.ar    1  <O>11       0.0005
  18 C12       2.4922   -14.6057     1.8319  C.ar    1  <O>11      -0.0526
  19 C13       1.5844   -14.3297     2.8604  C.ar    1  <O>11      -0.0611
  20 C14       2.0447   -13.8933     4.1050  C.ar    1  <O>11      -0.0617
  21 C15       3.4199   -13.7401     4.3168  C.ar    1  <O>11      -0.0611
  22 C16       4.3319   -14.0161     3.2993  C.ar    1  <O>11      -0.0526
  23 N4        5.1151   -13.6862     0.1789  N.ar    1  <O>11      -0.2142
  24 C17       4.8500   -11.4171    -3.0445  C.ar    1  <O>11      -0.0141
  25 H1        1.8439    -7.9425    -5.9946  H       1  <O>11       0.0405
  26 H2        3.2419    -7.1263    -6.7347  H       1  <O>11       0.0405
  27 H3        3.0047    -7.0624    -4.9718  H       1  <O>11       0.0405
  28 H4        4.6668    -8.6527    -5.5891  H       1  <O>11       0.1477
  29 H5        7.1491   -12.2343    -1.4878  H       1  <O>11       0.1550
  30 H6        3.5734   -11.9820    -6.0999  H       1  <O>11       0.0637
  31 H7        4.8667   -14.0258    -5.8504  H       1  <O>11       0.0619
  32 H8        6.1512   -14.4183    -3.8238  H       1  <O>11       0.0636
  33 H9        6.6105   -17.0677    -0.3348  H       1  <O>11       0.0831
  34 H10       5.0563   -16.7512     1.4835  H       1  <O>11       0.0654
  35 H11       2.1466   -14.9291     0.9148  H       1  <O>11       0.0624
  36 H12       0.5721   -14.4490     2.6991  H       1  <O>11       0.0618
  37 H13       1.3758   -13.6853     4.8628  H       1  <O>11       0.0618
  38 H14       3.7623   -13.4194     5.2360  H       1  <O>11       0.0618
  39 H15       5.3438   -13.9059     3.4693  H       1  <O>11       0.0624
  40 H16       4.8507   -10.7111    -2.2918  H       1  <O>11       0.0656
@<TRIPOS>BOND
     1     1     2    1
     2     2     3    1
     3     3     4    2
     4     3     5    2
     5     3     6    1
     6     6     7   ar
     7     7     8   ar
     8     8     9   ar
     9     9    10   ar
    10    10    11    1
    11    11    12    1
    12    12    13   ar
    13    13    14   ar
    14    14    15   ar
    15    15    16   ar
    16    16    17    1
    17    17    18   ar
    18    18    19   ar
    19    19    20   ar
    20    20    21   ar
    21    21    22   ar
    22    17    22   ar
    23    16    23   ar
    24    12    23   ar
    25    10    24   ar
    26     6    24   ar
    27     1    25    1
    28     1    26    1
    29     1    27    1
    30     2    28    1
    31    11    29    1
    32     7    30    1
    33     8    31    1
    34     9    32    1
    35    14    33    1
    36    15    34    1
    37    18    35    1
    38    19    36    1
    39    20    37    1
    40    21    38    1
    41    22    39    1
    42    24    40    1
@<TRIPOS>MOLECULE
mol69_4_5
 40 42 0 0 0
SMALL
USER_CHARGES
****
VDW energy = -157.25
@<TRIPOS>ATOM
   1 C1        2.8936    -7.6802    -5.8629  C.3     1  <O>11       0.0059
   2 N1        3.6845    -8.8982    -5.7123  N.3     1  <O>11      -0.1930
   3 S1        3.1570    -9.7380    -4.3910  S.O2    1  <O>11       0.0582
   4 O1        3.3260    -8.7960    -3.0330  O.2     1  <O>11      -0.1531
   5 O2        1.5570   -10.1370    -4.5920  O.2     1  <O>11      -0.1531
   6 C2        4.1100   -11.2060    -4.2090  C.ar    1  <O>11       0.1070
   7 C3        3.8346   -12.0735    -3.1499  C.ar    1  <O>11      -0.0352
   8 C4        4.5970   -13.2357    -2.9934  C.ar    1  <O>11      -0.0582
   9 C5        5.6252   -13.5313    -3.8924  C.ar    1  <O>11      -0.0404
  10 C6        5.8860   -12.6545    -4.9521  C.ar    1  <O>11       0.0354
  11 N2        6.9457   -12.9636    -5.8760  N.pl3   1  <O>11      -0.2836
  12 C7        6.8422   -14.1250    -6.7384  C.ar    1  <O>11       0.2200
  13 N3        6.2664   -13.9874    -7.9566  N.ar    1  <O>11      -0.2226
  14 C8        6.1826   -15.0795    -8.7399  C.ar    1  <O>11       0.0332
  15 C9        6.6479   -16.3152    -8.3698  C.ar    1  <O>11      -0.0174
  16 C10       7.2180   -16.3745    -7.1251  C.ar    1  <O>11       0.0760
  17 C11       7.7335   -17.6143    -6.6465  C.ar    1  <O>11       0.0005
  18 C12       6.9083   -18.4958    -5.9263  C.ar    1  <O>11      -0.0526
  19 C13       7.4183   -19.7075    -5.4469  C.ar    1  <O>11      -0.0611
  20 C14       8.7517   -20.0506    -5.6826  C.ar    1  <O>11      -0.0617
  21 C15       9.5712   -19.1764    -6.4064  C.ar    1  <O>11      -0.0611
  22 C16       9.0711   -17.9688    -6.8909  C.ar    1  <O>11      -0.0526
  23 N4        7.3245   -15.3111    -6.3033  N.ar    1  <O>11      -0.2142
  24 C17       5.1290   -11.4932    -5.1187  C.ar    1  <O>11      -0.0141
  25 H1        1.8439    -7.9425    -5.9946  H       1  <O>11       0.0405
  26 H2        3.2419    -7.1263    -6.7347  H       1  <O>11       0.0405
  27 H3        3.0047    -7.0624    -4.9718  H       1  <O>11       0.0405
  28 H4        4.6668    -8.6527    -5.5891  H       1  <O>11       0.1477
  29 H5        7.7712   -12.3650    -5.9236  H       1  <O>11       0.1550
  30 H6        3.0735   -11.8585    -2.4869  H       1  <O>11       0.0637
  31 H7        4.3993   -13.8780    -2.2102  H       1  <O>11       0.0619
  32 H8        6.1875   -14.3888    -3.7762  H       1  <O>11       0.0636
  33 H9        5.7445   -14.9811    -9.6692  H       1  <O>11       0.0831
  34 H10       6.5741   -17.1410    -8.9844  H       1  <O>11       0.0654
  35 H11       5.9221   -18.2480    -5.7504  H       1  <O>11       0.0624
  36 H12       6.8076   -20.3495    -4.9179  H       1  <O>11       0.0618
  37 H13       9.1299   -20.9420    -5.3257  H       1  <O>11       0.0618
  38 H14      10.5562   -19.4286    -6.5832  H       1  <O>11       0.0618
  39 H15       9.6829   -17.3355    -7.4290  H       1  <O>11       0.0624
  40 H16       5.3207   -10.8541    -5.9060  H       1  <O>11       0.0656
@<TRIPOS>BOND
     1     1     2    1
     2     2     3    1
     3     3     4    2
     4     3     5    2
     5     3     6    1
     6     6     7   ar
     7     7     8   ar
     8     8     9   ar
     9     9    10   ar
    10    10    11    1
    11    11    12    1
    12    12    13   ar
    13    13    14   ar
    14    14    15   ar
    15    15    16   ar
    16    16    17    1
    17    17    18   ar
    18    18    19   ar
    19    19    20   ar
    20    20    21   ar
    21    21    22   ar
    22    17    22   ar
    23    16    23   ar
    24    12    23   ar
    25    10    24   ar
    26     6    24   ar
    27     1    25    1
    28     1    26    1
    29     1    27    1
    30     2    28    1
    31    11    29    1
    32     7    30    1
    33     8    31    1
    34     9    32    1
    35    14    33    1
    36    15    34    1
    37    18    35    1
    38    19    36    1
    39    20    37    1
    40    21    38    1
    41    22    39    1
    42    24    40    1
@<TRIPOS>MOLECULE
mol69_4_6
 40 42 0 0 0
SMALL
USER_CHARGES
****
VDW energy = -156.60
@<TRIPOS>ATOM
   1 C1        2.8936    -7.6802    -5.8629  C.3     1  <O>11       0.0059
   2 N1        3.6845    -8.8982    -5.7123  N.3     1  <O>11      -0.1930
   3 S1        3.1570    -9.7380    -4.3910  S.O2    1  <O>11       0.0582
   4 O1        3.3260    -8.7960    -3.0330  O.2     1  <O>11      -0.1531
   5 O2        1.5570   -10.1370    -4.5920  O.2     1  <O>11      -0.1531
   6 C2        4.1100   -11.2060    -4.2090  C.ar    1  <O>11       0.1070
   7 C3        4.1160   -12.1498    -5.2382  C.ar    1  <O>11      -0.0352
   8 C4        4.8620   -13.3240    -5.0938  C.ar    1  <O>11      -0.0582
   9 C5        5.6011   -13.5515    -3.9299  C.ar    1  <O>11      -0.0404
  10 C6        5.5892   -12.5938    -2.9090  C.ar    1  <O>11       0.0354
  11 N2        6.3527   -12.8323    -1.7122  N.pl3   1  <O>11      -0.2836
  12 C7        6.3533   -11.8523    -0.6430  C.ar    1  <O>11       0.2200
  13 N3        5.4167   -11.9446     0.3310  N.ar    1  <O>11      -0.2226
  14 C8        5.4380   -11.0240     1.3135  C.ar    1  <O>11       0.0332
  15 C9        6.3537   -10.0053     1.3778  C.ar    1  <O>11      -0.0174
  16 C10       7.2689    -9.9790     0.3584  C.ar    1  <O>11       0.0760
  17 C11       8.2645    -8.9590     0.3338  C.ar    1  <O>11       0.0005
  18 C12       8.0180    -7.7419    -0.3253  C.ar    1  <O>11      -0.0526
  19 C13       9.0001    -6.7457    -0.3588  C.ar    1  <O>11      -0.0611
  20 C14      10.2327    -6.9534     0.2647  C.ar    1  <O>11      -0.0617
  21 C15      10.4753    -8.1623     0.9276  C.ar    1  <O>11      -0.0611
  22 C16       9.5017    -9.1591     0.9693  C.ar    1  <O>11      -0.0526
  23 N4        7.2889   -10.8760    -0.6478  N.ar    1  <O>11      -0.2142
  24 C17       4.8500   -11.4171    -3.0445  C.ar    1  <O>11      -0.0141
  25 H1        1.8439    -7.9425    -5.9946  H       1  <O>11       0.0405
  26 H2        3.2419    -7.1263    -6.7347  H       1  <O>11       0.0405
  27 H3        3.0047    -7.0624    -4.9718  H       1  <O>11       0.0405
  28 H4        4.6668    -8.6527    -5.5891  H       1  <O>11       0.1477
  29 H5        6.8949   -13.6920    -1.6162  H       1  <O>11       0.1550
  30 H6        3.5734   -11.9820    -6.0999  H       1  <O>11       0.0637
  31 H7        4.8667   -14.0258    -5.8504  H       1  <O>11       0.0619
  32 H8        6.1512   -14.4183    -3.8238  H       1  <O>11       0.0636
  33 H9        4.7267   -11.0887     2.0584  H       1  <O>11       0.0831
  34 H10       6.3534    -9.3085     2.1392  H       1  <O>11       0.0654
  35 H11       7.1086    -7.5825    -0.7865  H       1  <O>11       0.0624
  36 H12       8.8132    -5.8550    -0.8455  H       1  <O>11       0.0618
  37 H13      10.9593    -6.2211     0.2368  H       1  <O>11       0.0618
  38 H14      11.3846    -8.3172     1.3904  H       1  <O>11       0.0618
  39 H15       9.6895   -10.0435     1.4668  H       1  <O>11       0.0624
  40 H16       4.8507   -10.7111    -2.2918  H       1  <O>11       0.0656
@<TRIPOS>BOND
     1     1     2    1
     2     2     3    1
     3     3     4    2
     4     3     5    2
     5     3     6    1
     6     6     7   ar
     7     7     8   ar
     8     8     9   ar
     9     9    10   ar
    10    10    11    1
    11    11    12    1
    12    12    13   ar
    13    13    14   ar
    14    14    15   ar
    15    15    16   ar
    16    16    17    1
    17    17    18   ar
    18    18    19   ar
    19    19    20   ar
    20    20    21   ar
    21    21    22   ar
    22    17    22   ar
    23    16    23   ar
    24    12    23   ar
    25    10    24   ar
    26     6    24   ar
    27     1    25    1
    28     1    26    1
    29     1    27    1
    30     2    28    1
    31    11    29    1
    32     7    30    1
    33     8    31    1
    34     9    32    1
    35    14    33    1
    36    15    34    1
    37    18    35    1
    38    19    36    1
    39    20    37    1
    40    21    38    1
    41    22    39    1
    42    24    40    1
@<TRIPOS>MOLECULE
mol69_4_7
 40 42 0 0 0
SMALL
USER_CHARGES
****
VDW energy = -155.64
@<TRIPOS>ATOM
   1 C1        2.8936    -7.6802    -5.8629  C.3     1  <O>11       0.0059
   2 N1        3.6845    -8.8982    -5.7123  N.3     1  <O>11      -0.1930
   3 S1        3.1570    -9.7380    -4.3910  S.O2    1  <O>11       0.0582
   4 O1        3.3260    -8.7960    -3.0330  O.2     1  <O>11      -0.1531
   5 O2        1.5570   -10.1370    -4.5920  O.2     1  <O>11      -0.1531
   6 C2        4.1100   -11.2060    -4.2090  C.ar    1  <O>11       0.1070
   7 C3        4.1160   -12.1498    -5.2382  C.ar    1  <O>11      -0.0352
   8 C4        4.8620   -13.3240    -5.0938  C.ar    1  <O>11      -0.0582
   9 C5        5.6011   -13.5515    -3.9299  C.ar    1  <O>11      -0.0404
  10 C6        5.5892   -12.5938    -2.9090  C.ar    1  <O>11       0.0354
  11 N2        6.3527   -12.8323    -1.7122  N.pl3   1  <O>11      -0.2836
  12 C7        6.3554   -11.8511    -0.6441  C.ar    1  <O>11       0.2200
  13 N3        6.9146   -10.6383    -0.8700  N.ar    1  <O>11      -0.2226
  14 C8        6.9043    -9.7436     0.1363  C.ar    1  <O>11       0.0332
  15 C9        6.3598    -9.9960     1.3693  C.ar    1  <O>11      -0.0174
  16 C10       5.8125   -11.2431     1.5206  C.ar    1  <O>11       0.0760
  17 C11       5.2198   -11.6042     2.7658  C.ar    1  <O>11       0.0005
  18 C12       5.9946   -12.2055     3.7731  C.ar    1  <O>11      -0.0526
  19 C13       5.4095   -12.5702     4.9908  C.ar    1  <O>11      -0.0611
  20 C14       4.0504   -12.3373     5.2145  C.ar    1  <O>11      -0.0617
  21 C15       3.2807   -11.7315     4.2144  C.ar    1  <O>11      -0.0611
  22 C16       3.8556   -11.3615     2.9996  C.ar    1  <O>11      -0.0526
  23 N4        5.7988   -12.1737     0.5453  N.ar    1  <O>11      -0.2142
  24 C17       4.8500   -11.4171    -3.0445  C.ar    1  <O>11      -0.0141
  25 H1        1.8439    -7.9425    -5.9946  H       1  <O>11       0.0405
  26 H2        3.2419    -7.1263    -6.7347  H       1  <O>11       0.0405
  27 H3        3.0047    -7.0624    -4.9718  H       1  <O>11       0.0405
  28 H4        4.6668    -8.6527    -5.5891  H       1  <O>11       0.1477
  29 H5        6.8934   -13.6928    -1.6154  H       1  <O>11       0.1550
  30 H6        3.5734   -11.9820    -6.0999  H       1  <O>11       0.0637
  31 H7        4.8667   -14.0258    -5.8504  H       1  <O>11       0.0619
  32 H8        6.1512   -14.4183    -3.8238  H       1  <O>11       0.0636
  33 H9        7.3293    -8.8178    -0.0294  H       1  <O>11       0.0831
  34 H10       6.3620    -9.2970     2.1286  H       1  <O>11       0.0654
  35 H11       6.9994   -12.3788     3.6137  H       1  <O>11       0.0624
  36 H12       5.9835   -13.0124     5.7255  H       1  <O>11       0.0618
  37 H13       3.6170   -12.6098     6.1105  H       1  <O>11       0.0618
  38 H14       2.2768   -11.5569     4.3782  H       1  <O>11       0.0618
  39 H15       3.2796   -10.9095     2.2724  H       1  <O>11       0.0624
  40 H16       4.8507   -10.7111    -2.2918  H       1  <O>11       0.0656
@<TRIPOS>BOND
     1     1     2    1
     2     2     3    1
     3     3     4    2
     4     3     5    2
     5     3     6    1
     6     6     7   ar
     7     7     8   ar
     8     8     9   ar
     9     9    10   ar
    10    10    11    1
    11    11    12    1
    12    12    13   ar
    13    13    14   ar
    14    14    15   ar
    15    15    16   ar
    16    16    17    1
    17    17    18   ar
    18    18    19   ar
    19    19    20   ar
    20    20    21   ar
    21    21    22   ar
    22    17    22   ar
    23    16    23   ar
    24    12    23   ar
    25    10    24   ar
    26     6    24   ar
    27     1    25    1
    28     1    26    1
    29     1    27    1
    30     2    28    1
    31    11    29    1
    32     7    30    1
    33     8    31    1
    34     9    32    1
    35    14    33    1
    36    15    34    1
    37    18    35    1
    38    19    36    1
    39    20    37    1
    40    21    38    1
    41    22    39    1
    42    24    40    1
@<TRIPOS>MOLECULE
mol69_4_8
 40 42 0 0 0
SMALL
USER_CHARGES
****
VDW energy = -155.14
@<TRIPOS>ATOM
   1 C1        2.8936    -7.6802    -5.8629  C.3     1  <O>11       0.0059
   2 N1        3.6845    -8.8982    -5.7123  N.3     1  <O>11      -0.1930
   3 S1        3.1570    -9.7380    -4.3910  S.O2    1  <O>11       0.0582
   4 O1        3.3260    -8.7960    -3.0330  O.2     1  <O>11      -0.1531
   5 O2        1.5570   -10.1370    -4.5920  O.2     1  <O>11      -0.1531
   6 C2        4.1100   -11.2060    -4.2090  C.ar    1  <O>11       0.1070
   7 C3        5.4910   -11.1070    -4.0270  C.ar    1  <O>11      -0.0352
   8 C4        6.2550   -12.2710    -3.8940  C.ar    1  <O>11      -0.0582
   9 C5        5.6420   -13.5260    -3.9380  C.ar    1  <O>11      -0.0404
  10 C6        4.2560   -13.6090    -4.1160  C.ar    1  <O>11       0.0354
  11 N2        3.6290   -14.9040    -4.1600  N.pl3   1  <O>11      -0.2836
  12 C7        2.1940   -15.0110    -4.3410  C.ar    1  <O>11       0.2200
  13 N3        1.6964   -15.0924    -5.5981  N.ar    1  <O>11      -0.2226
  14 C8        0.3611   -15.1920    -5.7409  C.ar    1  <O>11       0.0332
  15 C9       -0.5143   -15.2156    -4.6857  C.ar    1  <O>11      -0.0174
  16 C10       0.0642   -15.1305    -3.4464  C.ar    1  <O>11       0.0760
  17 C11      -0.7599   -15.1473    -2.2834  C.ar    1  <O>11       0.0005
  18 C12      -0.7523   -14.0602    -1.3919  C.ar    1  <O>11      -0.0526
  19 C13      -1.5529   -14.0825    -0.2445  C.ar    1  <O>11      -0.0611
  20 C14      -2.3674   -15.1856     0.0222  C.ar    1  <O>11      -0.0617
  21 C15      -2.3808   -16.2647    -0.8695  C.ar    1  <O>11      -0.0611
  22 C16      -1.5894   -16.2499    -2.0169  C.ar    1  <O>11      -0.0526
  23 N4        1.3941   -15.0281    -3.2508  N.ar    1  <O>11      -0.2142
  24 C17       3.4840   -12.4530    -4.2470  C.ar    1  <O>11      -0.0141
  25 H1        1.8439    -7.9425    -5.9946  H       1  <O>11       0.0405
  26 H2        3.2419    -7.1263    -6.7347  H       1  <O>11       0.0405
  27 H3        3.0047    -7.0624    -4.9718  H       1  <O>11       0.0405
  28 H4        4.6668    -8.6527    -5.5891  H       1  <O>11       0.1477
  29 H5        4.1950   -15.7480    -4.0630  H       1  <O>11       0.1550
  30 H6        5.9450   -10.1809    -3.9909  H       1  <O>11       0.0637
  31 H7        7.2763   -12.2027    -3.7627  H       1  <O>11       0.0619
  32 H8        6.2064   -14.3845    -3.8401  H       1  <O>11       0.0636
  33 H9       -0.0243   -15.2539    -6.6963  H       1  <O>11       0.0831
  34 H10      -1.5353   -15.2921    -4.8155  H       1  <O>11       0.0654
  35 H11      -0.1535   -13.2421    -1.5847  H       1  <O>11       0.0624
  36 H12      -1.5416   -13.2818     0.4065  H       1  <O>11       0.0618
  37 H13      -2.9549   -15.2049     0.8704  H       1  <O>11       0.0618
  38 H14      -2.9831   -17.0799    -0.6753  H       1  <O>11       0.0618
  39 H15      -1.6127   -17.0482    -2.6703  H       1  <O>11       0.0624
  40 H16       2.4616   -12.5198    -4.3706  H       1  <O>11       0.0656
@<TRIPOS>BOND
     1     1     2    1
     2     2     3    1
     3     3     4    2
     4     3     5    2
     5     3     6    1
     6     6     7   ar
     7     7     8   ar
     8     8     9   ar
     9     9    10   ar
    10    10    11    1
    11    11    12    1
    12    12    13   ar
    13    13    14   ar
    14    14    15   ar
    15    15    16   ar
    16    16    17    1
    17    17    18   ar
    18    18    19   ar
    19    19    20   ar
    20    20    21   ar
    21    21    22   ar
    22    17    22   ar
    23    16    23   ar
    24    12    23   ar
    25    10    24   ar
    26     6    24   ar
    27     1    25    1
    28     1    26    1
    29     1    27    1
    30     2    28    1
    31    11    29    1
    32     7    30    1
    33     8    31    1
    34     9    32    1
    35    14    33    1
    36    15    34    1
    37    18    35    1
    38    19    36    1
    39    20    37    1
    40    21    38    1
    41    22    39    1
    42    24    40    1
@<TRIPOS>MOLECULE
mol69_4_9
 40 42 0 0 0
SMALL
USER_CHARGES
****
VDW energy = -148.33
@<TRIPOS>ATOM
   1 C1        2.8936    -7.6802    -5.8629  C.3     1  <O>11       0.0059
   2 N1        3.6845    -8.8982    -5.7123  N.3     1  <O>11      -0.1930
   3 S1        3.1570    -9.7380    -4.3910  S.O2    1  <O>11       0.0582
   4 O1        4.0577   -11.1235    -4.2202  O.2     1  <O>11      -0.1531
   5 O2        3.3274    -8.7964    -3.0331  O.2     1  <O>11      -0.1531
   6 C2        1.4624   -10.1623    -4.6026  C.ar    1  <O>11       0.1070
   7 C3        1.0861   -10.9550    -5.6889  C.ar    1  <O>11      -0.0352
   8 C4       -0.2611   -11.2851    -5.8688  C.ar    1  <O>11      -0.0582
   9 C5       -1.2256   -10.8296    -4.9660  C.ar    1  <O>11      -0.0404
  10 C6       -0.8323   -10.0400    -3.8790  C.ar    1  <O>11       0.0354
  11 N2       -1.8294    -9.5738    -2.9514  N.pl3   1  <O>11      -0.2836
  12 C7       -2.1717   -10.3724    -1.7901  C.ar    1  <O>11       0.2200
  13 N3       -3.1146    -9.9124    -0.9334  N.ar    1  <O>11      -0.2226
  14 C8       -3.4163   -10.6718     0.1370  C.ar    1  <O>11       0.0332
  15 C9       -2.8219   -11.8790     0.4015  C.ar    1  <O>11      -0.0174
  16 C10      -1.8800   -12.2772    -0.5105  C.ar    1  <O>11       0.0760
  17 C11      -1.2040   -13.5187    -0.3264  C.ar    1  <O>11       0.0005
  18 C12      -1.5002   -14.3308     0.7824  C.ar    1  <O>11      -0.0526
  19 C13      -0.8281   -15.5439     0.9685  C.ar    1  <O>11      -0.0611
  20 C14       0.1416   -15.9574     0.0519  C.ar    1  <O>11      -0.0617
  21 C15       0.4310   -15.1524    -1.0562  C.ar    1  <O>11      -0.0611
  22 C16      -0.2360   -13.9441    -1.2519  C.ar    1  <O>11      -0.0526
  23 N4       -1.5418   -11.5532    -1.5964  N.ar    1  <O>11      -0.2142
  24 C17       0.5103    -9.7072    -3.6890  C.ar    1  <O>11      -0.0141
  25 H1        1.8439    -7.9425    -5.9946  H       1  <O>11       0.0405
  26 H2        3.2419    -7.1263    -6.7347  H       1  <O>11       0.0405
  27 H3        3.0047    -7.0624    -4.9718  H       1  <O>11       0.0405
  28 H4        4.6668    -8.6527    -5.5891  H       1  <O>11       0.1477
  29 H5       -2.2965    -8.6804    -3.1114  H       1  <O>11       0.1550
  30 H6        1.7975   -11.2950    -6.3548  H       1  <O>11       0.0637
  31 H7       -0.5442   -11.8678    -6.6720  H       1  <O>11       0.0619
  32 H8       -2.2195   -11.0734    -5.0995  H       1  <O>11       0.0636
  33 H9       -4.1336   -10.3266     0.7937  H       1  <O>11       0.0831
  34 H10      -3.0664   -12.4466     1.2280  H       1  <O>11       0.0654
  35 H11      -2.2166   -14.0309     1.4620  H       1  <O>11       0.0624
  36 H12      -1.0493   -16.1348     1.7851  H       1  <O>11       0.0618
  37 H13       0.6410   -16.8498     0.1906  H       1  <O>11       0.0618
  38 H14       1.1457   -15.4567    -1.7356  H       1  <O>11       0.0618
  39 H15      -0.0190   -13.3623    -2.0761  H       1  <O>11       0.0624
  40 H16       0.7956    -9.1309    -2.8818  H       1  <O>11       0.0656
@<TRIPOS>BOND
     1     1     2    1
     2     2     3    1
     3     3     4    2
     4     3     5    2
     5     3     6    1
     6     6     7   ar
     7     7     8   ar
     8     8     9   ar
     9     9    10   ar
    10    10    11    1
    11    11    12    1
    12    12    13   ar
    13    13    14   ar
    14    14    15   ar
    15    15    16   ar
    16    16    17    1
    17    17    18   ar
    18    18    19   ar
    19    19    20   ar
    20    20    21   ar
    21    21    22   ar
    22    17    22   ar
    23    16    23   ar
    24    12    23   ar
    25    10    24   ar
    26     6    24   ar
    27     1    25    1
    28     1    26    1
    29     1    27    1
    30     2    28    1
    31    11    29    1
    32     7    30    1
    33     8    31    1
    34     9    32    1
    35    14    33    1
    36    15    34    1
    37    18    35    1
    38    19    36    1
    39    20    37    1
    40    21    38    1
    41    22    39    1
    42    24    40    1
@<TRIPOS>MOLECULE
mol69_4_10
 40 42 0 0 0
SMALL
USER_CHARGES
****
VDW energy = -147.95
@<TRIPOS>ATOM
   1 C1        2.8936    -7.6802    -5.8629  C.3     1  <O>11       0.0059
   2 N1        3.6845    -8.8982    -5.7123  N.3     1  <O>11      -0.1930
   3 S1        3.1570    -9.7380    -4.3910  S.O2    1  <O>11       0.0582
   4 O1        3.3260    -8.7960    -3.0330  O.2     1  <O>11      -0.1531
   5 O2        1.5570   -10.1370    -4.5920  O.2     1  <O>11      -0.1531
   6 C2        4.1100   -11.2060    -4.2090  C.ar    1  <O>11       0.1070
   7 C3        5.4910   -11.1070    -4.0270  C.ar    1  <O>11      -0.0352
   8 C4        6.2550   -12.2710    -3.8940  C.ar    1  <O>11      -0.0582
   9 C5        5.6420   -13.5260    -3.9380  C.ar    1  <O>11      -0.0404
  10 C6        4.2560   -13.6090    -4.1160  C.ar    1  <O>11       0.0354
  11 N2        3.6290   -14.9040    -4.1600  N.pl3   1  <O>11      -0.2836
  12 C7        3.1505   -15.5218    -2.9382  C.ar    1  <O>11       0.2200
  13 N3        2.5659   -16.7417    -3.0061  N.ar    1  <O>11      -0.2226
  14 C8        2.1305   -17.2954    -1.8585  C.ar    1  <O>11       0.0332
  15 C9        2.2485   -16.6915    -0.6330  C.ar    1  <O>11      -0.0174
  16 C10       2.8512   -15.4610    -0.6453  C.ar    1  <O>11       0.0760
  17 C11       3.0226   -14.7500     0.5783  C.ar    1  <O>11       0.0005
  18 C12       2.5774   -15.3056     1.7907  C.ar    1  <O>11      -0.0526
  19 C13       2.7356   -14.6020     2.9899  C.ar    1  <O>11      -0.0611
  20 C14       3.3393   -13.3423     2.9906  C.ar    1  <O>11      -0.0617
  21 C15       3.7896   -12.7926     1.7845  C.ar    1  <O>11      -0.0611
  22 C16       3.6395   -13.4876     0.5855  C.ar    1  <O>11      -0.0526
  23 N4        3.3026   -14.8639    -1.7666  N.ar    1  <O>11      -0.2142
  24 C17       3.4840   -12.4530    -4.2470  C.ar    1  <O>11      -0.0141
  25 H1        1.8439    -7.9425    -5.9946  H       1  <O>11       0.0405
  26 H2        3.2419    -7.1263    -6.7347  H       1  <O>11       0.0405
  27 H3        3.0047    -7.0624    -4.9718  H       1  <O>11       0.0405
  28 H4        4.6668    -8.6527    -5.5891  H       1  <O>11       0.1477
  29 H5        3.5217   -15.3884    -5.0522  H       1  <O>11       0.1550
  30 H6        5.9450   -10.1809    -3.9909  H       1  <O>11       0.0637
  31 H7        7.2763   -12.2027    -3.7627  H       1  <O>11       0.0619
  32 H8        6.2064   -14.3845    -3.8401  H       1  <O>11       0.0636
  33 H9        1.6837   -18.2247    -1.9037  H       1  <O>11       0.0831
  34 H10       1.9079   -17.1321     0.2359  H       1  <O>11       0.0654
  35 H11       2.1318   -16.2364     1.7962  H       1  <O>11       0.0624
  36 H12       2.4055   -15.0149     3.8761  H       1  <O>11       0.0618
  37 H13       3.4526   -12.8208     3.8739  H       1  <O>11       0.0618
  38 H14       4.2375   -11.8628     1.7830  H       1  <O>11       0.0618
  39 H15       3.9815   -13.0751    -0.2964  H       1  <O>11       0.0624
  40 H16       2.4616   -12.5198    -4.3706  H       1  <O>11       0.0656
@<TRIPOS>BOND
     1     1     2    1
     2     2     3    1
     3     3     4    2
     4     3     5    2
     5     3     6    1
     6     6     7   ar
     7     7     8   ar
     8     8     9   ar
     9     9    10   ar
    10    10    11    1
    11    11    12    1
    12    12    13   ar
    13    13    14   ar
    14    14    15   ar
    15    15    16   ar
    16    16    17    1
    17    17    18   ar
    18    18    19   ar
    19    19    20   ar
    20    20    21   ar
    21    21    22   ar
    22    17    22   ar
    23    16    23   ar
    24    12    23   ar
    25    10    24   ar
    26     6    24   ar
    27     1    25    1
    28     1    26    1
    29     1    27    1
    30     2    28    1
    31    11    29    1
    32     7    30    1
    33     8    31    1
    34     9    32    1
    35    14    33    1
    36    15    34    1
    37    18    35    1
    38    19    36    1
    39    20    37    1
    40    21    38    1
    41    22    39    1
    42    24    40    1
@<TRIPOS>MOLECULE
mol69_4_11
 40 42 0 0 0
SMALL
USER_CHARGES
****
VDW energy = -147.14
@<TRIPOS>ATOM
   1 C1        2.8936    -7.6802    -5.8629  C.3     1  <O>11       0.0059
   2 N1        3.6845    -8.8982    -5.7123  N.3     1  <O>11      -0.1930
   3 S1        3.1570    -9.7380    -4.3910  S.O2    1  <O>11       0.0582
   4 O1        3.3260    -8.7960    -3.0330  O.2     1  <O>11      -0.1531
   5 O2        1.5570   -10.1370    -4.5920  O.2     1  <O>11      -0.1531
   6 C2        4.1100   -11.2060    -4.2090  C.ar    1  <O>11       0.1070
   7 C3        5.4910   -11.1070    -4.0270  C.ar    1  <O>11      -0.0352
   8 C4        6.2550   -12.2710    -3.8940  C.ar    1  <O>11      -0.0582
   9 C5        5.6420   -13.5260    -3.9380  C.ar    1  <O>11      -0.0404
  10 C6        4.2560   -13.6090    -4.1160  C.ar    1  <O>11       0.0354
  11 N2        3.6290   -14.9040    -4.1600  N.pl3   1  <O>11      -0.2836
  12 C7        3.9184   -15.8150    -5.2508  C.ar    1  <O>11       0.2200
  13 N3        3.3140   -17.0270    -5.2702  N.ar    1  <O>11      -0.2226
  14 C8        3.5977   -17.8551    -6.2934  C.ar    1  <O>11       0.0332
  15 C9        4.4609   -17.5358    -7.3099  C.ar    1  <O>11      -0.0174
  16 C10       5.0315   -16.2932    -7.2213  C.ar    1  <O>11       0.0760
  17 C11       5.9436   -15.8650    -8.2297  C.ar    1  <O>11       0.0005
  18 C12       6.2568   -16.7099    -9.3089  C.ar    1  <O>11      -0.0526
  19 C13       7.1610   -16.2934   -10.2923  C.ar    1  <O>11      -0.0611
  20 C14       7.7577   -15.0331   -10.2091  C.ar    1  <O>11      -0.0617
  21 C15       7.4399   -14.1888    -9.1386  C.ar    1  <O>11      -0.0611
  22 C16       6.5376   -14.5937    -8.1562  C.ar    1  <O>11      -0.0526
  23 N4        4.7814   -15.4287    -6.2175  N.ar    1  <O>11      -0.2142
  24 C17       3.4840   -12.4530    -4.2470  C.ar    1  <O>11      -0.0141
  25 H1        1.8439    -7.9425    -5.9946  H       1  <O>11       0.0405
  26 H2        3.2419    -7.1263    -6.7347  H       1  <O>11       0.0405
  27 H3        3.0047    -7.0624    -4.9718  H       1  <O>11       0.0405
  28 H4        4.6668    -8.6527    -5.5891  H       1  <O>11       0.1477
  29 H5        2.9794   -15.1812    -3.4229  H       1  <O>11       0.1550
  30 H6        5.9450   -10.1809    -3.9909  H       1  <O>11       0.0637
  31 H7        7.2763   -12.2027    -3.7627  H       1  <O>11       0.0619
  32 H8        6.2064   -14.3845    -3.8401  H       1  <O>11       0.0636
  33 H9        3.1406   -18.7802    -6.3136  H       1  <O>11       0.0831
  34 H10       4.6660   -18.1847    -8.0858  H       1  <O>11       0.0654
  35 H11       5.8179   -17.6415    -9.3761  H       1  <O>11       0.0624
  36 H12       7.3876   -16.9189   -11.0811  H       1  <O>11       0.0618
  37 H13       8.4280   -14.7267   -10.9314  H       1  <O>11       0.0618
  38 H14       7.8783   -13.2566    -9.0761  H       1  <O>11       0.0618
  39 H15       6.3060   -13.9600    -7.3754  H       1  <O>11       0.0624
  40 H16       2.4616   -12.5198    -4.3706  H       1  <O>11       0.0656
@<TRIPOS>BOND
     1     1     2    1
     2     2     3    1
     3     3     4    2
     4     3     5    2
     5     3     6    1
     6     6     7   ar
     7     7     8   ar
     8     8     9   ar
     9     9    10   ar
    10    10    11    1
    11    11    12    1
    12    12    13   ar
    13    13    14   ar
    14    14    15   ar
    15    15    16   ar
    16    16    17    1
    17    17    18   ar
    18    18    19   ar
    19    19    20   ar
    20    20    21   ar
    21    21    22   ar
    22    17    22   ar
    23    16    23   ar
    24    12    23   ar
    25    10    24   ar
    26     6    24   ar
    27     1    25    1
    28     1    26    1
    29     1    27    1
    30     2    28    1
    31    11    29    1
    32     7    30    1
    33     8    31    1
    34     9    32    1
    35    14    33    1
    36    15    34    1
    37    18    35    1
    38    19    36    1
    39    20    37    1
    40    21    38    1
    41    22    39    1
    42    24    40    1
@<TRIPOS>MOLECULE
mol69_4_12
 40 42 0 0 0
SMALL
USER_CHARGES
****
VDW energy = -147.02
@<TRIPOS>ATOM
   1 C1        2.8936    -7.6802    -5.8629  C.3     1  <O>11       0.0059
   2 N1        3.6845    -8.8982    -5.7123  N.3     1  <O>11      -0.1930
   3 S1        3.1570    -9.7380    -4.3910  S.O2    1  <O>11       0.0582
   4 O1        3.3260    -8.7960    -3.0330  O.2     1  <O>11      -0.1531
   5 O2        1.5570   -10.1370    -4.5920  O.2     1  <O>11      -0.1531
   6 C2        4.1100   -11.2060    -4.2090  C.ar    1  <O>11       0.1070
   7 C3        4.1160   -12.1498    -5.2382  C.ar    1  <O>11      -0.0352
   8 C4        4.8620   -13.3240    -5.0938  C.ar    1  <O>11      -0.0582
   9 C5        5.6011   -13.5515    -3.9299  C.ar    1  <O>11      -0.0404
  10 C6        5.5892   -12.5938    -2.9090  C.ar    1  <O>11       0.0354
  11 N2        6.3527   -12.8323    -1.7122  N.pl3   1  <O>11      -0.2836
  12 C7        7.8007   -12.8871    -1.7726  C.ar    1  <O>11       0.2200
  13 N3        8.4960   -13.1149    -0.6327  N.ar    1  <O>11      -0.2226
  14 C8        9.8393   -13.1624    -0.7139  C.ar    1  <O>11       0.0332
  15 C9       10.5342   -12.9936    -1.8840  C.ar    1  <O>11      -0.0174
  16 C10       9.7620   -12.7689    -2.9934  C.ar    1  <O>11       0.0760
  17 C11      10.3887   -12.5813    -4.2599  C.ar    1  <O>11       0.0005
  18 C12      11.7894   -12.6264    -4.3726  C.ar    1  <O>11      -0.0526
  19 C13      12.4044   -12.4307    -5.6142  C.ar    1  <O>11      -0.0611
  20 C14      11.6297   -12.1908    -6.7516  C.ar    1  <O>11      -0.0617
  21 C15      10.2348   -12.1535    -6.6407  C.ar    1  <O>11      -0.0611
  22 C16       9.6131   -12.3509    -5.4087  C.ar    1  <O>11      -0.0526
  23 N4        8.4153   -12.7111    -2.9642  N.ar    1  <O>11      -0.2142
  24 C17       4.8500   -11.4171    -3.0445  C.ar    1  <O>11      -0.0141
  25 H1        1.8439    -7.9425    -5.9946  H       1  <O>11       0.0405
  26 H2        3.2419    -7.1263    -6.7347  H       1  <O>11       0.0405
  27 H3        3.0047    -7.0624    -4.9718  H       1  <O>11       0.0405
  28 H4        4.6668    -8.6527    -5.5891  H       1  <O>11       0.1477
  29 H5        5.8743   -12.9637    -0.8200  H       1  <O>11       0.1550
  30 H6        3.5734   -11.9820    -6.0999  H       1  <O>11       0.0637
  31 H7        4.8667   -14.0258    -5.8504  H       1  <O>11       0.0619
  32 H8        6.1512   -14.4183    -3.8238  H       1  <O>11       0.0636
  33 H9       10.3747   -13.3352     0.1512  H       1  <O>11       0.0831
  34 H10      11.5646   -13.0331    -1.9260  H       1  <O>11       0.0654
  35 H11      12.3666   -12.8046    -3.5358  H       1  <O>11       0.0624
  36 H12      13.4331   -12.4638    -5.6898  H       1  <O>11       0.0618
  37 H13      12.0825   -12.0420    -7.6669  H       1  <O>11       0.0618
  38 H14       9.6604   -11.9781    -7.4800  H       1  <O>11       0.0618
  39 H15       8.5836   -12.3279    -5.3405  H       1  <O>11       0.0624
  40 H16       4.8507   -10.7111    -2.2918  H       1  <O>11       0.0656
@<TRIPOS>BOND
     1     1     2    1
     2     2     3    1
     3     3     4    2
     4     3     5    2
     5     3     6    1
     6     6     7   ar
     7     7     8   ar
     8     8     9   ar
     9     9    10   ar
    10    10    11    1
    11    11    12    1
    12    12    13   ar
    13    13    14   ar
    14    14    15   ar
    15    15    16   ar
    16    16    17    1
    17    17    18   ar
    18    18    19   ar
    19    19    20   ar
    20    20    21   ar
    21    21    22   ar
    22    17    22   ar
    23    16    23   ar
    24    12    23   ar
    25    10    24   ar
    26     6    24   ar
    27     1    25    1
    28     1    26    1
    29     1    27    1
    30     2    28    1
    31    11    29    1
    32     7    30    1
    33     8    31    1
    34     9    32    1
    35    14    33    1
    36    15    34    1
    37    18    35    1
    38    19    36    1
    39    20    37    1
    40    21    38    1
    41    22    39    1
    42    24    40    1
@<TRIPOS>MOLECULE
mol69_4_13
 40 42 0 0 0
SMALL
USER_CHARGES
****
VDW energy = -146.01
@<TRIPOS>ATOM
   1 C1        2.8936    -7.6802    -5.8629  C.3     1  <O>11       0.0059
   2 N1        3.6845    -8.8982    -5.7123  N.3     1  <O>11      -0.1930
   3 S1        3.1570    -9.7380    -4.3910  S.O2    1  <O>11       0.0582
   4 O1        3.3260    -8.7960    -3.0330  O.2     1  <O>11      -0.1531
   5 O2        1.5570   -10.1370    -4.5920  O.2     1  <O>11      -0.1531
   6 C2        4.1100   -11.2060    -4.2090  C.ar    1  <O>11       0.1070
   7 C3        4.1160   -12.1498    -5.2382  C.ar    1  <O>11      -0.0352
   8 C4        4.8620   -13.3240    -5.0938  C.ar    1  <O>11      -0.0582
   9 C5        5.6011   -13.5515    -3.9299  C.ar    1  <O>11      -0.0404
  10 C6        5.5892   -12.5938    -2.9090  C.ar    1  <O>11       0.0354
  11 N2        6.3527   -12.8323    -1.7122  N.pl3   1  <O>11      -0.2836
  12 C7        7.8007   -12.8871    -1.7726  C.ar    1  <O>11       0.2200
  13 N3        8.4860   -11.7647    -2.0968  N.ar    1  <O>11      -0.2226
  14 C8        9.8296   -11.8399    -2.1456  C.ar    1  <O>11       0.0332
  15 C9       10.5344   -12.9869    -1.8849  C.ar    1  <O>11      -0.0174
  16 C10       9.7721   -14.0791    -1.5633  C.ar    1  <O>11       0.0760
  17 C11      10.4097   -15.3208    -1.2740  C.ar    1  <O>11       0.0005
  18 C12      11.8109   -15.4265    -1.3174  C.ar    1  <O>11      -0.0526
  19 C13      12.4355   -16.6487    -1.0444  C.ar    1  <O>11      -0.0611
  20 C14      11.6700   -17.7726    -0.7249  C.ar    1  <O>11      -0.0617
  21 C15      10.2752   -17.6654    -0.6741  C.ar    1  <O>11      -0.0611
  22 C16       9.6444   -16.4513    -0.9409  C.ar    1  <O>11      -0.0526
  23 N4        8.4255   -14.0556    -1.5023  N.ar    1  <O>11      -0.2142
  24 C17       4.8500   -11.4171    -3.0445  C.ar    1  <O>11      -0.0141
  25 H1        1.8439    -7.9425    -5.9946  H       1  <O>11       0.0405
  26 H2        3.2419    -7.1263    -6.7347  H       1  <O>11       0.0405
  27 H3        3.0047    -7.0624    -4.9718  H       1  <O>11       0.0405
  28 H4        4.6668    -8.6527    -5.5891  H       1  <O>11       0.1477
  29 H5        5.8743   -12.9637    -0.8200  H       1  <O>11       0.1550
  30 H6        3.5734   -11.9820    -6.0999  H       1  <O>11       0.0637
  31 H7        4.8667   -14.0258    -5.8504  H       1  <O>11       0.0619
  32 H8        6.1512   -14.4183    -3.8238  H       1  <O>11       0.0636
  33 H9       10.3574   -10.9881    -2.3924  H       1  <O>11       0.0831
  34 H10      11.5649   -13.0248    -1.9279  H       1  <O>11       0.0654
  35 H11      12.3815   -14.5991    -1.5516  H       1  <O>11       0.0624
  36 H12      13.4644   -16.7198    -1.0793  H       1  <O>11       0.0618
  37 H13      12.1294   -18.6754    -0.5278  H       1  <O>11       0.0618
  38 H14       9.7077   -18.4940    -0.4366  H       1  <O>11       0.0618
  39 H15       8.6157   -16.3827    -0.8939  H       1  <O>11       0.0624
  40 H16       4.8507   -10.7111    -2.2918  H       1  <O>11       0.0656
@<TRIPOS>BOND
     1     1     2    1
     2     2     3    1
     3     3     4    2
     4     3     5    2
     5     3     6    1
     6     6     7   ar
     7     7     8   ar
     8     8     9   ar
     9     9    10   ar
    10    10    11    1
    11    11    12    1
    12    12    13   ar
    13    13    14   ar
    14    14    15   ar
    15    15    16   ar
    16    16    17    1
    17    17    18   ar
    18    18    19   ar
    19    19    20   ar
    20    20    21   ar
    21    21    22   ar
    22    17    22   ar
    23    16    23   ar
    24    12    23   ar
    25    10    24   ar
    26     6    24   ar
    27     1    25    1
    28     1    26    1
    29     1    27    1
    30     2    28    1
    31    11    29    1
    32     7    30    1
    33     8    31    1
    34     9    32    1
    35    14    33    1
    36    15    34    1
    37    18    35    1
    38    19    36    1
    39    20    37    1
    40    21    38    1
    41    22    39    1
    42    24    40    1
@<TRIPOS>MOLECULE
mol69_4_14
 40 42 0 0 0
SMALL
USER_CHARGES
****
VDW energy = -145.41
@<TRIPOS>ATOM
   1 C1        2.8936    -7.6802    -5.8629  C.3     1  <O>11       0.0059
   2 N1        3.6845    -8.8982    -5.7123  N.3     1  <O>11      -0.1930
   3 S1        3.1570    -9.7380    -4.3910  S.O2    1  <O>11       0.0582
   4 O1        3.3260    -8.7960    -3.0330  O.2     1  <O>11      -0.1531
   5 O2        1.5570   -10.1370    -4.5920  O.2     1  <O>11      -0.1531
   6 C2        4.1100   -11.2060    -4.2090  C.ar    1  <O>11       0.1070
   7 C3        4.1160   -12.1498    -5.2382  C.ar    1  <O>11      -0.0352
   8 C4        4.8620   -13.3240    -5.0938  C.ar    1  <O>11      -0.0582
   9 C5        5.6011   -13.5515    -3.9299  C.ar    1  <O>11      -0.0404
  10 C6        5.5892   -12.5938    -2.9090  C.ar    1  <O>11       0.0354
  11 N2        6.3527   -12.8323    -1.7122  N.pl3   1  <O>11      -0.2836
  12 C7        5.7463   -13.5193    -0.5880  C.ar    1  <O>11       0.2200
  13 N3        5.3884   -14.8179    -0.7292  N.ar    1  <O>11      -0.2226
  14 C8        4.8281   -15.4347     0.3286  C.ar    1  <O>11       0.0332
  15 C9        4.6036   -14.8194     1.5333  C.ar    1  <O>11      -0.0174
  16 C10       4.9933   -13.5073     1.5992  C.ar    1  <O>11       0.0760
  17 C11       4.8037   -12.7777     2.8090  C.ar    1  <O>11       0.0005
  18 C12       4.2215   -13.3978     3.9284  C.ar    1  <O>11      -0.0526
  19 C13       4.0252   -12.6776     5.1120  C.ar    1  <O>11      -0.0611
  20 C14       4.4086   -11.3366     5.1899  C.ar    1  <O>11      -0.0617
  21 C15       4.9954   -10.7214     4.0777  C.ar    1  <O>11      -0.0611
  22 C16       5.1982   -11.4318     2.8957  C.ar    1  <O>11      -0.0526
  23 N4        5.5569   -12.8452     0.5689  N.ar    1  <O>11      -0.2142
  24 C17       4.8500   -11.4171    -3.0445  C.ar    1  <O>11      -0.0141
  25 H1        1.8439    -7.9425    -5.9946  H       1  <O>11       0.0405
  26 H2        3.2419    -7.1263    -6.7347  H       1  <O>11       0.0405
  27 H3        3.0047    -7.0624    -4.9718  H       1  <O>11       0.0405
  28 H4        4.6668    -8.6527    -5.5891  H       1  <O>11       0.1477
  29 H5        7.3219   -12.5170    -1.6544  H       1  <O>11       0.1550
  30 H6        3.5734   -11.9820    -6.0999  H       1  <O>11       0.0637
  31 H7        4.8667   -14.0258    -5.8504  H       1  <O>11       0.0619
  32 H8        6.1512   -14.4183    -3.8238  H       1  <O>11       0.0636
  33 H9        4.5528   -16.4242     0.2271  H       1  <O>11       0.0831
  34 H10       4.1723   -15.3091     2.3328  H       1  <O>11       0.0654
  35 H11       3.9376   -14.3887     3.8769  H       1  <O>11       0.0624
  36 H12       3.5961   -13.1384     5.9296  H       1  <O>11       0.0618
  37 H13       4.2603   -10.8034     6.0609  H       1  <O>11       0.0618
  38 H14       5.2810    -9.7312     4.1336  H       1  <O>11       0.0618
  39 H15       5.6379   -10.9695     2.0846  H       1  <O>11       0.0624
  40 H16       4.8507   -10.7111    -2.2918  H       1  <O>11       0.0656
@<TRIPOS>BOND
     1     1     2    1
     2     2     3    1
     3     3     4    2
     4     3     5    2
     5     3     6    1
     6     6     7   ar
     7     7     8   ar
     8     8     9   ar
     9     9    10   ar
    10    10    11    1
    11    11    12    1
    12    12    13   ar
    13    13    14   ar
    14    14    15   ar
    15    15    16   ar
    16    16    17    1
    17    17    18   ar
    18    18    19   ar
    19    19    20   ar
    20    20    21   ar
    21    21    22   ar
    22    17    22   ar
    23    16    23   ar
    24    12    23   ar
    25    10    24   ar
    26     6    24   ar
    27     1    25    1
    28     1    26    1
    29     1    27    1
    30     2    28    1
    31    11    29    1
    32     7    30    1
    33     8    31    1
    34     9    32    1
    35    14    33    1
    36    15    34    1
    37    18    35    1
    38    19    36    1
    39    20    37    1
    40    21    38    1
    41    22    39    1
    42    24    40    1
@<TRIPOS>MOLECULE
mol69_4_15
 40 42 0 0 0
SMALL
USER_CHARGES
****
VDW energy = -145.29
@<TRIPOS>ATOM
   1 C1        2.8936    -7.6802    -5.8629  C.3     1  <O>11       0.0059
   2 N1        3.6845    -8.8982    -5.7123  N.3     1  <O>11      -0.1930
   3 S1        3.1570    -9.7380    -4.3910  S.O2    1  <O>11       0.0582
   4 O1        3.3260    -8.7960    -3.0330  O.2     1  <O>11      -0.1531
   5 O2        1.5570   -10.1370    -4.5920  O.2     1  <O>11      -0.1531
   6 C2        4.1100   -11.2060    -4.2090  C.ar    1  <O>11       0.1070
   7 C3        4.3181   -11.7327    -2.9326  C.ar    1  <O>11      -0.0352
   8 C4        5.0850   -12.8926    -2.7809  C.ar    1  <O>11      -0.0582
   9 C5        5.6366   -13.5246    -3.8985  C.ar    1  <O>11      -0.0404
  10 C6        5.4151   -12.9875    -5.1721  C.ar    1  <O>11       0.0354
  11 N2        5.9848   -13.6425    -6.3203  N.pl3   1  <O>11      -0.2836
  12 C7        5.5352   -14.9685    -6.6982  C.ar    1  <O>11       0.2200
  13 N3        4.2594   -15.1316    -7.1227  N.ar    1  <O>11      -0.2226
  14 C8        3.8653   -16.3718    -7.4690  C.ar    1  <O>11       0.0332
  15 C9        4.6844   -17.4702    -7.4146  C.ar    1  <O>11      -0.0174
  16 C10       5.9595   -17.2253    -6.9768  C.ar    1  <O>11       0.0760
  17 C11       6.8899   -18.3014    -6.8847  C.ar    1  <O>11       0.0005
  18 C12       6.5043   -19.6058    -7.2404  C.ar    1  <O>11      -0.0526
  19 C13       7.4149   -20.6635    -7.1388  C.ar    1  <O>11      -0.0611
  20 C14       8.7150   -20.4298    -6.6845  C.ar    1  <O>11      -0.0617
  21 C15       9.1011   -19.1297    -6.3377  C.ar    1  <O>11      -0.0611
  22 C16       8.2022   -18.0692    -6.4391  C.ar    1  <O>11      -0.0526
  23 N4        6.4018   -16.0035    -6.6176  N.ar    1  <O>11      -0.2142
  24 C17       4.6487   -11.8317    -5.3344  C.ar    1  <O>11      -0.0141
  25 H1        1.8439    -7.9425    -5.9946  H       1  <O>11       0.0405
  26 H2        3.2419    -7.1263    -6.7347  H       1  <O>11       0.0405
  27 H3        3.0047    -7.0624    -4.9718  H       1  <O>11       0.0405
  28 H4        4.6668    -8.6527    -5.5891  H       1  <O>11       0.1477
  29 H5        6.7067   -13.1733    -6.8688  H       1  <O>11       0.1550
  30 H6        3.9087   -11.2692    -2.1064  H       1  <O>11       0.0637
  31 H7        5.2442   -13.2835    -1.8392  H       1  <O>11       0.0619
  32 H8        6.2027   -14.3802    -3.7858  H       1  <O>11       0.0636
  33 H9        2.8942   -16.5026    -7.7930  H       1  <O>11       0.0831
  34 H10       4.3635   -18.4134    -7.6840  H       1  <O>11       0.0654
  35 H11       5.5455   -19.7840    -7.5779  H       1  <O>11       0.0624
  36 H12       7.1251   -21.6188    -7.4003  H       1  <O>11       0.0618
  37 H13       9.3859   -21.2099    -6.6051  H       1  <O>11       0.0618
  38 H14      10.0617   -18.9544    -6.0035  H       1  <O>11       0.0618
  39 H15       8.5003   -17.1139    -6.1870  H       1  <O>11       0.0624
  40 H16       4.4824   -11.4442    -6.2764  H       1  <O>11       0.0656
@<TRIPOS>BOND
     1     1     2    1
     2     2     3    1
     3     3     4    2
     4     3     5    2
     5     3     6    1
     6     6     7   ar
     7     7     8   ar
     8     8     9   ar
     9     9    10   ar
    10    10    11    1
    11    11    12    1
    12    12    13   ar
    13    13    14   ar
    14    14    15   ar
    15    15    16   ar
    16    16    17    1
    17    17    18   ar
    18    18    19   ar
    19    19    20   ar
    20    20    21   ar
    21    21    22   ar
    22    17    22   ar
    23    16    23   ar
    24    12    23   ar
    25    10    24   ar
    26     6    24   ar
    27     1    25    1
    28     1    26    1
    29     1    27    1
    30     2    28    1
    31    11    29    1
    32     7    30    1
    33     8    31    1
    34     9    32    1
    35    14    33    1
    36    15    34    1
    37    18    35    1
    38    19    36    1
    39    20    37    1
    40    21    38    1
    41    22    39    1
    42    24    40    1
@<TRIPOS>MOLECULE
mol69_4_16
 40 42 0 0 0
SMALL
USER_CHARGES
****
VDW energy = -145.26
@<TRIPOS>ATOM
   1 C1        2.8936    -7.6802    -5.8629  C.3     1  <O>11       0.0059
   2 N1        3.6845    -8.8982    -5.7123  N.3     1  <O>11      -0.1930
   3 S1        3.1570    -9.7380    -4.3910  S.O2    1  <O>11       0.0582
   4 O1        3.3260    -8.7960    -3.0330  O.2     1  <O>11      -0.1531
   5 O2        1.5570   -10.1370    -4.5920  O.2     1  <O>11      -0.1531
   6 C2        4.1100   -11.2060    -4.2090  C.ar    1  <O>11       0.1070
   7 C3        4.1160   -12.1498    -5.2382  C.ar    1  <O>11      -0.0352
   8 C4        4.8620   -13.3240    -5.0938  C.ar    1  <O>11      -0.0582
   9 C5        5.6011   -13.5515    -3.9299  C.ar    1  <O>11      -0.0404
  10 C6        5.5892   -12.5938    -2.9090  C.ar    1  <O>11       0.0354
  11 N2        6.3527   -12.8323    -1.7122  N.pl3   1  <O>11      -0.2836
  12 C7        5.7463   -13.5193    -0.5880  C.ar    1  <O>11       0.2200
  13 N3        4.7252   -12.9219     0.0717  N.ar    1  <O>11      -0.2226
  14 C8        4.1776   -13.5794     1.1114  C.ar    1  <O>11       0.0332
  15 C9        4.5979   -14.8148     1.5330  C.ar    1  <O>11      -0.0174
  16 C10       5.6332   -15.3544     0.8157  C.ar    1  <O>11       0.0760
  17 C11       6.1434   -16.6364     1.1738  C.ar    1  <O>11       0.0005
  18 C12       5.5895   -17.3444     2.2548  C.ar    1  <O>11      -0.0526
  19 C13       6.0984   -18.5978     2.6128  C.ar    1  <O>11      -0.0611
  20 C14       7.1602   -19.1553     1.8965  C.ar    1  <O>11      -0.0617
  21 C15       7.7066   -18.4538     0.8153  C.ar    1  <O>11      -0.0611
  22 C16       7.2038   -17.2063     0.4490  C.ar    1  <O>11      -0.0526
  23 N4        6.2157   -14.7363    -0.2313  N.ar    1  <O>11      -0.2142
  24 C17       4.8500   -11.4171    -3.0445  C.ar    1  <O>11      -0.0141
  25 H1        1.8439    -7.9425    -5.9946  H       1  <O>11       0.0405
  26 H2        3.2419    -7.1263    -6.7347  H       1  <O>11       0.0405
  27 H3        3.0047    -7.0624    -4.9718  H       1  <O>11       0.0405
  28 H4        4.6668    -8.6527    -5.5891  H       1  <O>11       0.1477
  29 H5        7.3219   -12.5170    -1.6544  H       1  <O>11       0.1550
  30 H6        3.5734   -11.9820    -6.0999  H       1  <O>11       0.0637
  31 H7        4.8667   -14.0258    -5.8504  H       1  <O>11       0.0619
  32 H8        6.1512   -14.4183    -3.8238  H       1  <O>11       0.0636
  33 H9        3.3995   -13.1293     1.6183  H       1  <O>11       0.0831
  34 H10       4.1655   -15.3029     2.3329  H       1  <O>11       0.0654
  35 H11       4.8041   -16.9379     2.7867  H       1  <O>11       0.0624
  36 H12       5.6882   -19.1117     3.4081  H       1  <O>11       0.0618
  37 H13       7.5391   -20.0776     2.1625  H       1  <O>11       0.0618
  38 H14       8.4899   -18.8645     0.2836  H       1  <O>11       0.0618
  39 H15       7.6103   -16.7015    -0.3540  H       1  <O>11       0.0624
  40 H16       4.8507   -10.7111    -2.2918  H       1  <O>11       0.0656
@<TRIPOS>BOND
     1     1     2    1
     2     2     3    1
     3     3     4    2
     4     3     5    2
     5     3     6    1
     6     6     7   ar
     7     7     8   ar
     8     8     9   ar
     9     9    10   ar
    10    10    11    1
    11    11    12    1
    12    12    13   ar
    13    13    14   ar
    14    14    15   ar
    15    15    16   ar
    16    16    17    1
    17    17    18   ar
    18    18    19   ar
    19    19    20   ar
    20    20    21   ar
    21    21    22   ar
    22    17    22   ar
    23    16    23   ar
    24    12    23   ar
    25    10    24   ar
    26     6    24   ar
    27     1    25    1
    28     1    26    1
    29     1    27    1
    30     2    28    1
    31    11    29    1
    32     7    30    1
    33     8    31    1
    34     9    32    1
    35    14    33    1
    36    15    34    1
    37    18    35    1
    38    19    36    1
    39    20    37    1
    40    21    38    1
    41    22    39    1
    42    24    40    1
@<TRIPOS>MOLECULE
mol69_4_17
 40 42 0 0 0
SMALL
USER_CHARGES
****
VDW energy = -145.15
@<TRIPOS>ATOM
   1 C1        2.8936    -7.6802    -5.8629  C.3     1  <O>11       0.0059
   2 N1        3.6845    -8.8982    -5.7123  N.3     1  <O>11      -0.1930
   3 S1        3.1570    -9.7380    -4.3910  S.O2    1  <O>11       0.0582
   4 O1        3.3260    -8.7960    -3.0330  O.2     1  <O>11      -0.1531
   5 O2        1.5570   -10.1370    -4.5920  O.2     1  <O>11      -0.1531
   6 C2        4.1100   -11.2060    -4.2090  C.ar    1  <O>11       0.1070
   7 C3        4.1160   -12.1498    -5.2382  C.ar    1  <O>11      -0.0352
   8 C4        4.8620   -13.3240    -5.0938  C.ar    1  <O>11      -0.0582
   9 C5        5.6011   -13.5515    -3.9299  C.ar    1  <O>11      -0.0404
  10 C6        5.5892   -12.5938    -2.9090  C.ar    1  <O>11       0.0354
  11 N2        6.3527   -12.8323    -1.7122  N.pl3   1  <O>11      -0.2836
  12 C7        7.8007   -12.8871    -1.7726  C.ar    1  <O>11       0.2200
  13 N3        8.5074   -11.7445    -1.6007  N.ar    1  <O>11      -0.2226
  14 C8        9.8506   -11.8205    -1.6601  C.ar    1  <O>11       0.0332
  15 C9       10.5344   -12.9879    -1.8836  C.ar    1  <O>11      -0.0174
  16 C10       9.7511   -14.1004    -2.0463  C.ar    1  <O>11       0.0760
  17 C11      10.3659   -15.3645    -2.2832  C.ar    1  <O>11       0.0005
  18 C12      11.7662   -15.4717    -2.3495  C.ar    1  <O>11      -0.0526
  19 C13      12.3685   -16.7110    -2.5935  C.ar    1  <O>11      -0.0611
  20 C14      11.5816   -17.8514    -2.7712  C.ar    1  <O>11      -0.0617
  21 C15      10.1877   -17.7459    -2.6975  C.ar    1  <O>11      -0.0611
  22 C16       9.5789   -16.5164    -2.4513  C.ar    1  <O>11      -0.0526
  23 N4        8.4040   -14.0764    -1.9970  N.ar    1  <O>11      -0.2142
  24 C17       4.8500   -11.4171    -3.0445  C.ar    1  <O>11      -0.0141
  25 H1        1.8439    -7.9425    -5.9946  H       1  <O>11       0.0405
  26 H2        3.2419    -7.1263    -6.7347  H       1  <O>11       0.0405
  27 H3        3.0047    -7.0624    -4.9718  H       1  <O>11       0.0405
  28 H4        4.6668    -8.6527    -5.5891  H       1  <O>11       0.1477
  29 H5        5.8743   -12.9637    -0.8200  H       1  <O>11       0.1550
  30 H6        3.5734   -11.9820    -6.0999  H       1  <O>11       0.0637
  31 H7        4.8667   -14.0258    -5.8504  H       1  <O>11       0.0619
  32 H8        6.1512   -14.4183    -3.8238  H       1  <O>11       0.0636
  33 H9       10.3947   -10.9533    -1.5303  H       1  <O>11       0.0831
  34 H10      11.5649   -13.0259    -1.9261  H       1  <O>11       0.0654
  35 H11      12.3524   -14.6327    -2.2177  H       1  <O>11       0.0624
  36 H12      13.3968   -16.7826    -2.6422  H       1  <O>11       0.0618
  37 H13      12.0247   -18.7650    -2.9556  H       1  <O>11       0.0618
  38 H14       9.6045   -18.5875    -2.8268  H       1  <O>11       0.0618
  39 H15       8.5506   -16.4521    -2.3925  H       1  <O>11       0.0624
  40 H16       4.8507   -10.7111    -2.2918  H       1  <O>11       0.0656
@<TRIPOS>BOND
     1     1     2    1
     2     2     3    1
     3     3     4    2
     4     3     5    2
     5     3     6    1
     6     6     7   ar
     7     7     8   ar
     8     8     9   ar
     9     9    10   ar
    10    10    11    1
    11    11    12    1
    12    12    13   ar
    13    13    14   ar
    14    14    15   ar
    15    15    16   ar
    16    16    17    1
    17    17    18   ar
    18    18    19   ar
    19    19    20   ar
    20    20    21   ar
    21    21    22   ar
    22    17    22   ar
    23    16    23   ar
    24    12    23   ar
    25    10    24   ar
    26     6    24   ar
    27     1    25    1
    28     1    26    1
    29     1    27    1
    30     2    28    1
    31    11    29    1
    32     7    30    1
    33     8    31    1
    34     9    32    1
    35    14    33    1
    36    15    34    1
    37    18    35    1
    38    19    36    1
    39    20    37    1
    40    21    38    1
    41    22    39    1
    42    24    40    1
@<TRIPOS>MOLECULE
mol69_4_18
 40 42 0 0 0
SMALL
USER_CHARGES
****
VDW energy = -145.03
@<TRIPOS>ATOM
   1 C1        2.8936    -7.6802    -5.8629  C.3     1  <O>11       0.0059
   2 N1        3.6845    -8.8982    -5.7123  N.3     1  <O>11      -0.1930
   3 S1        3.1570    -9.7380    -4.3910  S.O2    1  <O>11       0.0582
   4 O1        3.3260    -8.7960    -3.0330  O.2     1  <O>11      -0.1531
   5 O2        1.5570   -10.1370    -4.5920  O.2     1  <O>11      -0.1531
   6 C2        4.1100   -11.2060    -4.2090  C.ar    1  <O>11       0.1070
   7 C3        4.1160   -12.1498    -5.2382  C.ar    1  <O>11      -0.0352
   8 C4        4.8620   -13.3240    -5.0938  C.ar    1  <O>11      -0.0582
   9 C5        5.6011   -13.5515    -3.9299  C.ar    1  <O>11      -0.0404
  10 C6        5.5892   -12.5938    -2.9090  C.ar    1  <O>11       0.0354
  11 N2        6.3527   -12.8323    -1.7122  N.pl3   1  <O>11      -0.2836
  12 C7        7.8007   -12.8871    -1.7726  C.ar    1  <O>11       0.2200
  13 N3        8.4025   -14.0793    -1.9990  N.ar    1  <O>11      -0.2226
  14 C8        9.7478   -14.1050    -2.0519  C.ar    1  <O>11       0.0332
  15 C9       10.5340   -12.9932    -1.8897  C.ar    1  <O>11      -0.0174
  16 C10       9.8531   -11.8253    -1.6658  C.ar    1  <O>11       0.0760
  17 C11      10.5790   -10.6120    -1.4849  C.ar    1  <O>11       0.0005
  18 C12      11.9840   -10.6109    -1.5356  C.ar    1  <O>11      -0.0526
  19 C13      12.6964    -9.4213    -1.3465  C.ar    1  <O>11      -0.0611
  20 C14      12.0153    -8.2254    -1.1075  C.ar    1  <O>11      -0.0617
  21 C15      10.6161    -8.2252    -1.0647  C.ar    1  <O>11      -0.0611
  22 C16       9.8979    -9.4045    -1.2555  C.ar    1  <O>11      -0.0526
  23 N4        8.5086   -11.7475    -1.6029  N.ar    1  <O>11      -0.2142
  24 C17       4.8500   -11.4171    -3.0445  C.ar    1  <O>11      -0.0141
  25 H1        1.8439    -7.9425    -5.9946  H       1  <O>11       0.0405
  26 H2        3.2419    -7.1263    -6.7347  H       1  <O>11       0.0405
  27 H3        3.0047    -7.0624    -4.9718  H       1  <O>11       0.0405
  28 H4        4.6668    -8.6527    -5.5891  H       1  <O>11       0.1477
  29 H5        5.8743   -12.9637    -0.8200  H       1  <O>11       0.1550
  30 H6        3.5734   -11.9820    -6.0999  H       1  <O>11       0.0637
  31 H7        4.8667   -14.0258    -5.8504  H       1  <O>11       0.0619
  32 H8        6.1512   -14.4183    -3.8238  H       1  <O>11       0.0636
  33 H9       10.2122   -15.0104    -2.2237  H       1  <O>11       0.0831
  34 H10      11.5643   -13.0332    -1.9331  H       1  <O>11       0.0654
  35 H11      12.4923   -11.4913    -1.7132  H       1  <O>11       0.0624
  36 H12      13.7276    -9.4276    -1.3837  H       1  <O>11       0.0618
  37 H13      12.5398    -7.3484    -0.9636  H       1  <O>11       0.0618
  38 H14      10.1108    -7.3424    -0.8900  H       1  <O>11       0.0618
  39 H15       8.8664    -9.3908    -1.2284  H       1  <O>11       0.0624
  40 H16       4.8507   -10.7111    -2.2918  H       1  <O>11       0.0656
@<TRIPOS>BOND
     1     1     2    1
     2     2     3    1
     3     3     4    2
     4     3     5    2
     5     3     6    1
     6     6     7   ar
     7     7     8   ar
     8     8     9   ar
     9     9    10   ar
    10    10    11    1
    11    11    12    1
    12    12    13   ar
    13    13    14   ar
    14    14    15   ar
    15    15    16   ar
    16    16    17    1
    17    17    18   ar
    18    18    19   ar
    19    19    20   ar
    20    20    21   ar
    21    21    22   ar
    22    17    22   ar
    23    16    23   ar
    24    12    23   ar
    25    10    24   ar
    26     6    24   ar
    27     1    25    1
    28     1    26    1
    29     1    27    1
    30     2    28    1
    31    11    29    1
    32     7    30    1
    33     8    31    1
    34     9    32    1
    35    14    33    1
    36    15    34    1
    37    18    35    1
    38    19    36    1
    39    20    37    1
    40    21    38    1
    41    22    39    1
    42    24    40    1
@<TRIPOS>MOLECULE
mol69_4_19
 40 42 0 0 0
SMALL
USER_CHARGES
****
VDW energy = -144.64
@<TRIPOS>ATOM
   1 C1        2.8936    -7.6802    -5.8629  C.3     1  <O>11       0.0059
   2 N1        3.6845    -8.8982    -5.7123  N.3     1  <O>11      -0.1930
   3 S1        3.1570    -9.7380    -4.3910  S.O2    1  <O>11       0.0582
   4 O1        3.3260    -8.7960    -3.0330  O.2     1  <O>11      -0.1531
   5 O2        1.5570   -10.1370    -4.5920  O.2     1  <O>11      -0.1531
   6 C2        4.1100   -11.2060    -4.2090  C.ar    1  <O>11       0.1070
   7 C3        4.3181   -11.7327    -2.9326  C.ar    1  <O>11      -0.0352
   8 C4        5.0850   -12.8926    -2.7809  C.ar    1  <O>11      -0.0582
   9 C5        5.6366   -13.5246    -3.8985  C.ar    1  <O>11      -0.0404
  10 C6        5.4151   -12.9875    -5.1721  C.ar    1  <O>11       0.0354
  11 N2        5.9848   -13.6425    -6.3203  N.pl3   1  <O>11      -0.2836
  12 C7        5.5352   -14.9685    -6.6982  C.ar    1  <O>11       0.2200
  13 N3        6.1688   -16.0477    -6.1799  N.ar    1  <O>11      -0.2226
  14 C8        5.7328   -17.2684    -6.5447  C.ar    1  <O>11       0.0332
  15 C9        4.6870   -17.4731    -7.4077  C.ar    1  <O>11      -0.0174
  16 C10       4.0965   -16.3339    -7.8885  C.ar    1  <O>11       0.0760
  17 C11       2.9993   -16.4386    -8.7925  C.ar    1  <O>11       0.0005
  18 C12       2.5242   -17.7009    -9.1892  C.ar    1  <O>11      -0.0526
  19 C13       1.4545   -17.8028   -10.0856  C.ar    1  <O>11      -0.0611
  20 C14       0.8497   -16.6497   -10.5913  C.ar    1  <O>11      -0.0617
  21 C15       1.3178   -15.3928   -10.1902  C.ar    1  <O>11      -0.0611
  22 C16       2.3805   -15.2814    -9.2950  C.ar    1  <O>11      -0.0526
  23 N4        4.4962   -15.0902    -7.5551  N.ar    1  <O>11      -0.2142
  24 C17       4.6487   -11.8317    -5.3344  C.ar    1  <O>11      -0.0141
  25 H1        1.8439    -7.9425    -5.9946  H       1  <O>11       0.0405
  26 H2        3.2419    -7.1263    -6.7347  H       1  <O>11       0.0405
  27 H3        3.0047    -7.0624    -4.9718  H       1  <O>11       0.0405
  28 H4        4.6668    -8.6527    -5.5891  H       1  <O>11       0.1477
  29 H5        6.7067   -13.1733    -6.8688  H       1  <O>11       0.1550
  30 H6        3.9087   -11.2692    -2.1064  H       1  <O>11       0.0637
  31 H7        5.2442   -13.2835    -1.8392  H       1  <O>11       0.0619
  32 H8        6.2027   -14.3802    -3.7858  H       1  <O>11       0.0636
  33 H9        6.2117   -18.0947    -6.1535  H       1  <O>11       0.0831
  34 H10       4.3676   -18.4171    -7.6758  H       1  <O>11       0.0654
  35 H11       2.9664   -18.5562    -8.8178  H       1  <O>11       0.0624
  36 H12       1.1114   -18.7325   -10.3737  H       1  <O>11       0.0618
  37 H13       0.0636   -16.7237   -11.2558  H       1  <O>11       0.0618
  38 H14       0.8714   -14.5395   -10.5612  H       1  <O>11       0.0618
  39 H15       2.7125   -14.3495    -9.0014  H       1  <O>11       0.0624
  40 H16       4.4824   -11.4442    -6.2764  H       1  <O>11       0.0656
@<TRIPOS>BOND
     1     1     2    1
     2     2     3    1
     3     3     4    2
     4     3     5    2
     5     3     6    1
     6     6     7   ar
     7     7     8   ar
     8     8     9   ar
     9     9    10   ar
    10    10    11    1
    11    11    12    1
    12    12    13   ar
    13    13    14   ar
    14    14    15   ar
    15    15    16   ar
    16    16    17    1
    17    17    18   ar
    18    18    19   ar
    19    19    20   ar
    20    20    21   ar
    21    21    22   ar
    22    17    22   ar
    23    16    23   ar
    24    12    23   ar
    25    10    24   ar
    26     6    24   ar
    27     1    25    1
    28     1    26    1
    29     1    27    1
    30     2    28    1
    31    11    29    1
    32     7    30    1
    33     8    31    1
    34     9    32    1
    35    14    33    1
    36    15    34    1
    37    18    35    1
    38    19    36    1
    39    20    37    1
    40    21    38    1
    41    22    39    1
    42    24    40    1
@<TRIPOS>MOLECULE
mol69_4_20
 40 42 0 0 0
SMALL
USER_CHARGES
****
VDW energy = -144.51
@<TRIPOS>ATOM
   1 C1        2.8936    -7.6802    -5.8629  C.3     1  <O>11       0.0059
   2 N1        3.6845    -8.8982    -5.7123  N.3     1  <O>11      -0.1930
   3 S1        3.1570    -9.7380    -4.3910  S.O2    1  <O>11       0.0582
   4 O1        3.3260    -8.7960    -3.0330  O.2     1  <O>11      -0.1531
   5 O2        1.5570   -10.1370    -4.5920  O.2     1  <O>11      -0.1531
   6 C2        4.1100   -11.2060    -4.2090  C.ar    1  <O>11       0.1070
   7 C3        3.8346   -12.0735    -3.1499  C.ar    1  <O>11      -0.0352
   8 C4        4.5970   -13.2357    -2.9934  C.ar    1  <O>11      -0.0582
   9 C5        5.6252   -13.5313    -3.8924  C.ar    1  <O>11      -0.0404
  10 C6        5.8860   -12.6545    -4.9521  C.ar    1  <O>11       0.0354
  11 N2        6.9457   -12.9636    -5.8760  N.pl3   1  <O>11      -0.2836
  12 C7        6.8422   -14.1250    -6.7384  C.ar    1  <O>11       0.2200
  13 N3        6.2664   -13.9874    -7.9566  N.ar    1  <O>11      -0.2226
  14 C8        6.1826   -15.0795    -8.7399  C.ar    1  <O>11       0.0332
  15 C9        6.6479   -16.3152    -8.3698  C.ar    1  <O>11      -0.0174
  16 C10       7.2180   -16.3745    -7.1251  C.ar    1  <O>11       0.0760
  17 C11       7.7335   -17.6143    -6.6465  C.ar    1  <O>11       0.0005
  18 C12       7.6591   -18.7696    -7.4442  C.ar    1  <O>11      -0.0526
  19 C13       8.1550   -19.9888    -6.9691  C.ar    1  <O>11      -0.0611
  20 C14       8.7297   -20.0657    -5.6982  C.ar    1  <O>11      -0.0617
  21 C15       8.8107   -18.9137    -4.9070  C.ar    1  <O>11      -0.0611
  22 C16       8.3227   -17.6941    -5.3733  C.ar    1  <O>11      -0.0526
  23 N4        7.3245   -15.3111    -6.3033  N.ar    1  <O>11      -0.2142
  24 C17       5.1290   -11.4932    -5.1187  C.ar    1  <O>11      -0.0141
  25 H1        1.8439    -7.9425    -5.9946  H       1  <O>11       0.0405
  26 H2        3.2419    -7.1263    -6.7347  H       1  <O>11       0.0405
  27 H3        3.0047    -7.0624    -4.9718  H       1  <O>11       0.0405
  28 H4        4.6668    -8.6527    -5.5891  H       1  <O>11       0.1477
  29 H5        7.7712   -12.3650    -5.9236  H       1  <O>11       0.1550
  30 H6        3.0735   -11.8585    -2.4869  H       1  <O>11       0.0637
  31 H7        4.3993   -13.8780    -2.2102  H       1  <O>11       0.0619
  32 H8        6.1875   -14.3888    -3.7762  H       1  <O>11       0.0636
  33 H9        5.7445   -14.9811    -9.6692  H       1  <O>11       0.0831
  34 H10       6.5741   -17.1410    -8.9844  H       1  <O>11       0.0654
  35 H11       7.2367   -18.7182    -8.3845  H       1  <O>11       0.0624
  36 H12       8.0961   -20.8333    -7.5592  H       1  <O>11       0.0618
  37 H13       9.0918   -20.9653    -5.3451  H       1  <O>11       0.0618
  38 H14       9.2365   -18.9679    -3.9684  H       1  <O>11       0.0618
  39 H15       8.3941   -16.8502    -4.7837  H       1  <O>11       0.0624
  40 H16       5.3207   -10.8541    -5.9060  H       1  <O>11       0.0656
@<TRIPOS>BOND
     1     1     2    1
     2     2     3    1
     3     3     4    2
     4     3     5    2
     5     3     6    1
     6     6     7   ar
     7     7     8   ar
     8     8     9   ar
     9     9    10   ar
    10    10    11    1
    11    11    12    1
    12    12    13   ar
    13    13    14   ar
    14    14    15   ar
    15    15    16   ar
    16    16    17    1
    17    17    18   ar
    18    18    19   ar
    19    19    20   ar
    20    20    21   ar
    21    21    22   ar
    22    17    22   ar
    23    16    23   ar
    24    12    23   ar
    25    10    24   ar
    26     6    24   ar
    27     1    25    1
    28     1    26    1
    29     1    27    1
    30     2    28    1
    31    11    29    1
    32     7    30    1
    33     8    31    1
    34     9    32    1
    35    14    33    1
    36    15    34    1
    37    18    35    1
    38    19    36    1
    39    20    37    1
    40    21    38    1
    41    22    39    1
    42    24    40    1
@<TRIPOS>MOLECULE
mol69_4_21
 40 42 0 0 0
SMALL
USER_CHARGES
****
VDW energy = -144.07
@<TRIPOS>ATOM
   1 C1        2.8936    -7.6802    -5.8629  C.3     1  <O>11       0.0059
   2 N1        3.6845    -8.8982    -5.7123  N.3     1  <O>11      -0.1930
   3 S1        3.1570    -9.7380    -4.3910  S.O2    1  <O>11       0.0582
   4 O1        3.3260    -8.7960    -3.0330  O.2     1  <O>11      -0.1531
   5 O2        1.5570   -10.1370    -4.5920  O.2     1  <O>11      -0.1531
   6 C2        4.1100   -11.2060    -4.2090  C.ar    1  <O>11       0.1070
   7 C3        5.4910   -11.1070    -4.0270  C.ar    1  <O>11      -0.0352
   8 C4        6.2550   -12.2710    -3.8940  C.ar    1  <O>11      -0.0582
   9 C5        5.6420   -13.5260    -3.9380  C.ar    1  <O>11      -0.0404
  10 C6        4.2560   -13.6090    -4.1160  C.ar    1  <O>11       0.0354
  11 N2        3.6290   -14.9040    -4.1600  N.pl3   1  <O>11      -0.2836
  12 C7        2.1940   -15.0110    -4.3410  C.ar    1  <O>11       0.2200
  13 N3        1.6964   -15.0924    -5.5981  N.ar    1  <O>11      -0.2226
  14 C8        0.3611   -15.1920    -5.7409  C.ar    1  <O>11       0.0332
  15 C9       -0.5143   -15.2156    -4.6857  C.ar    1  <O>11      -0.0174
  16 C10       0.0642   -15.1305    -3.4464  C.ar    1  <O>11       0.0760
  17 C11      -0.7599   -15.1473    -2.2834  C.ar    1  <O>11       0.0005
  18 C12      -2.1568   -15.2509    -2.4043  C.ar    1  <O>11      -0.0526
  19 C13      -2.9658   -15.2559    -1.2626  C.ar    1  <O>11      -0.0611
  20 C14      -2.3901   -15.1596     0.0065  C.ar    1  <O>11      -0.0617
  21 C15      -0.9987   -15.0643     0.1272  C.ar    1  <O>11      -0.0611
  22 C16      -0.1845   -15.0622    -1.0042  C.ar    1  <O>11      -0.0526
  23 N4        1.3941   -15.0281    -3.2508  N.ar    1  <O>11      -0.2142
  24 C17       3.4840   -12.4530    -4.2470  C.ar    1  <O>11      -0.0141
  25 H1        1.8439    -7.9425    -5.9946  H       1  <O>11       0.0405
  26 H2        3.2419    -7.1263    -6.7347  H       1  <O>11       0.0405
  27 H3        3.0047    -7.0624    -4.9718  H       1  <O>11       0.0405
  28 H4        4.6668    -8.6527    -5.5891  H       1  <O>11       0.1477
  29 H5        4.1950   -15.7480    -4.0630  H       1  <O>11       0.1550
  30 H6        5.9450   -10.1809    -3.9909  H       1  <O>11       0.0637
  31 H7        7.2763   -12.2027    -3.7627  H       1  <O>11       0.0619
  32 H8        6.2064   -14.3845    -3.8401  H       1  <O>11       0.0636
  33 H9       -0.0243   -15.2539    -6.6963  H       1  <O>11       0.0831
  34 H10      -1.5353   -15.2921    -4.8155  H       1  <O>11       0.0654
  35 H11      -2.5874   -15.3236    -3.3394  H       1  <O>11       0.0624
  36 H12      -3.9906   -15.3308    -1.3584  H       1  <O>11       0.0618
  37 H13      -2.9862   -15.1588     0.8489  H       1  <O>11       0.0618
  38 H14      -0.5711   -14.9948     1.0639  H       1  <O>11       0.0618
  39 H15       0.8405   -14.9982    -0.9025  H       1  <O>11       0.0624
  40 H16       2.4616   -12.5198    -4.3706  H       1  <O>11       0.0656
@<TRIPOS>BOND
     1     1     2    1
     2     2     3    1
     3     3     4    2
     4     3     5    2
     5     3     6    1
     6     6     7   ar
     7     7     8   ar
     8     8     9   ar
     9     9    10   ar
    10    10    11    1
    11    11    12    1
    12    12    13   ar
    13    13    14   ar
    14    14    15   ar
    15    15    16   ar
    16    16    17    1
    17    17    18   ar
    18    18    19   ar
    19    19    20   ar
    20    20    21   ar
    21    21    22   ar
    22    17    22   ar
    23    16    23   ar
    24    12    23   ar
    25    10    24   ar
    26     6    24   ar
    27     1    25    1
    28     1    26    1
    29     1    27    1
    30     2    28    1
    31    11    29    1
    32     7    30    1
    33     8    31    1
    34     9    32    1
    35    14    33    1
    36    15    34    1
    37    18    35    1
    38    19    36    1
    39    20    37    1
    40    21    38    1
    41    22    39    1
    42    24    40    1
@<TRIPOS>MOLECULE
mol69_4_22
 40 42 0 0 0
SMALL
USER_CHARGES
****
VDW energy = -144.05
@<TRIPOS>ATOM
   1 C1        2.8936    -7.6802    -5.8629  C.3     1  <O>11       0.0059
   2 N1        3.6845    -8.8982    -5.7123  N.3     1  <O>11      -0.1930
   3 S1        3.1570    -9.7380    -4.3910  S.O2    1  <O>11       0.0582
   4 O1        3.3260    -8.7960    -3.0330  O.2     1  <O>11      -0.1531
   5 O2        1.5570   -10.1370    -4.5920  O.2     1  <O>11      -0.1531
   6 C2        4.1100   -11.2060    -4.2090  C.ar    1  <O>11       0.1070
   7 C3        5.4910   -11.1070    -4.0270  C.ar    1  <O>11      -0.0352
   8 C4        6.2550   -12.2710    -3.8940  C.ar    1  <O>11      -0.0582
   9 C5        5.6420   -13.5260    -3.9380  C.ar    1  <O>11      -0.0404
  10 C6        4.2560   -13.6090    -4.1160  C.ar    1  <O>11       0.0354
  11 N2        3.6290   -14.9040    -4.1600  N.pl3   1  <O>11      -0.2836
  12 C7        2.1940   -15.0110    -4.3410  C.ar    1  <O>11       0.2200
  13 N3        1.3950   -15.0263    -3.2475  N.ar    1  <O>11      -0.2226
  14 C8        0.0660   -15.1253    -3.4407  C.ar    1  <O>11       0.0332
  15 C9       -0.5155   -15.2103    -4.6797  C.ar    1  <O>11      -0.0174
  16 C10       0.3572   -15.1873    -5.7359  C.ar    1  <O>11       0.0760
  17 C11      -0.1475   -15.2695    -7.0665  C.ar    1  <O>11       0.0005
  18 C12      -1.5306   -15.3732    -7.2962  C.ar    1  <O>11      -0.0526
  19 C13      -2.0244   -15.4654    -8.6023  C.ar    1  <O>11      -0.0611
  20 C14      -1.1454   -15.4532    -9.6879  C.ar    1  <O>11      -0.0617
  21 C15       0.2312   -15.3421    -9.4595  C.ar    1  <O>11      -0.0611
  22 C16       0.7321   -15.2461    -8.1622  C.ar    1  <O>11      -0.0526
  23 N4        1.6945   -15.0908    -5.5951  N.ar    1  <O>11      -0.2142
  24 C17       3.4840   -12.4530    -4.2470  C.ar    1  <O>11      -0.0141
  25 H1        1.8439    -7.9425    -5.9946  H       1  <O>11       0.0405
  26 H2        3.2419    -7.1263    -6.7347  H       1  <O>11       0.0405
  27 H3        3.0047    -7.0624    -4.9718  H       1  <O>11       0.0405
  28 H4        4.6668    -8.6527    -5.5891  H       1  <O>11       0.1477
  29 H5        4.1950   -15.7480    -4.0630  H       1  <O>11       0.1550
  30 H6        5.9450   -10.1809    -3.9909  H       1  <O>11       0.0637
  31 H7        7.2763   -12.2027    -3.7627  H       1  <O>11       0.0619
  32 H8        6.2064   -14.3845    -3.8401  H       1  <O>11       0.0636
  33 H9       -0.5482   -15.1379    -2.6114  H       1  <O>11       0.0831
  34 H10      -1.5368   -15.2862    -4.8074  H       1  <O>11       0.0654
  35 H11      -2.1847   -15.3814    -6.4980  H       1  <O>11       0.0624
  36 H12      -3.0407   -15.5426    -8.7639  H       1  <O>11       0.0618
  37 H13      -1.5083   -15.5256   -10.6513  H       1  <O>11       0.0618
  38 H14       0.8823   -15.3312   -10.2601  H       1  <O>11       0.0618
  39 H15       1.7484   -15.1579    -8.0065  H       1  <O>11       0.0624
  40 H16       2.4616   -12.5198    -4.3706  H       1  <O>11       0.0656
@<TRIPOS>BOND
     1     1     2    1
     2     2     3    1
     3     3     4    2
     4     3     5    2
     5     3     6    1
     6     6     7   ar
     7     7     8   ar
     8     8     9   ar
     9     9    10   ar
    10    10    11    1
    11    11    12    1
    12    12    13   ar
    13    13    14   ar
    14    14    15   ar
    15    15    16   ar
    16    16    17    1
    17    17    18   ar
    18    18    19   ar
    19    19    20   ar
    20    20    21   ar
    21    21    22   ar
    22    17    22   ar
    23    16    23   ar
    24    12    23   ar
    25    10    24   ar
    26     6    24   ar
    27     1    25    1
    28     1    26    1
    29     1    27    1
    30     2    28    1
    31    11    29    1
    32     7    30    1
    33     8    31    1
    34     9    32    1
    35    14    33    1
    36    15    34    1
    37    18    35    1
    38    19    36    1
    39    20    37    1
    40    21    38    1
    41    22    39    1
    42    24    40    1
@<TRIPOS>MOLECULE
mol69_4_23
 40 42 0 0 0
SMALL
USER_CHARGES
****
VDW energy = -143.98
@<TRIPOS>ATOM
   1 C1        2.8936    -7.6802    -5.8629  C.3     1  <O>11       0.0059
   2 N1        3.6845    -8.8982    -5.7123  N.3     1  <O>11      -0.1930
   3 S1        3.1570    -9.7380    -4.3910  S.O2    1  <O>11       0.0582
   4 O1        3.3260    -8.7960    -3.0330  O.2     1  <O>11      -0.1531
   5 O2        1.5570   -10.1370    -4.5920  O.2     1  <O>11      -0.1531
   6 C2        4.1100   -11.2060    -4.2090  C.ar    1  <O>11       0.1070
   7 C3        4.1160   -12.1498    -5.2382  C.ar    1  <O>11      -0.0352
   8 C4        4.8620   -13.3240    -5.0938  C.ar    1  <O>11      -0.0582
   9 C5        5.6011   -13.5515    -3.9299  C.ar    1  <O>11      -0.0404
  10 C6        5.5892   -12.5938    -2.9090  C.ar    1  <O>11       0.0354
  11 N2        6.3527   -12.8323    -1.7122  N.pl3   1  <O>11      -0.2836
  12 C7        6.3554   -11.8511    -0.6441  C.ar    1  <O>11       0.2200
  13 N3        7.2943   -10.8749    -0.6536  N.ar    1  <O>11      -0.2226
  14 C8        7.2762    -9.9749     0.3479  C.ar    1  <O>11       0.0332
  15 C9        6.3615    -9.9960     1.3693  C.ar    1  <O>11      -0.0174
  16 C10       5.4438   -11.0117     1.3091  C.ar    1  <O>11       0.0760
  17 C11       4.4489   -11.1214     2.3241  C.ar    1  <O>11       0.0005
  18 C12       4.4074   -10.1947     3.3806  C.ar    1  <O>11      -0.0526
  19 C13       3.4376   -10.3097     4.3828  C.ar    1  <O>11      -0.0611
  20 C14       2.5021   -11.3462     4.3392  C.ar    1  <O>11      -0.0617
  21 C15       2.5387   -12.2643     3.2831  C.ar    1  <O>11      -0.0611
  22 C16       3.4988   -12.1556     2.2783  C.ar    1  <O>11      -0.0526
  23 N4        5.4206   -11.9374     0.3291  N.ar    1  <O>11      -0.2142
  24 C17       4.8500   -11.4171    -3.0445  C.ar    1  <O>11      -0.0141
  25 H1        1.8439    -7.9425    -5.9946  H       1  <O>11       0.0405
  26 H2        3.2419    -7.1263    -6.7347  H       1  <O>11       0.0405
  27 H3        3.0047    -7.0624    -4.9718  H       1  <O>11       0.0405
  28 H4        4.6668    -8.6527    -5.5891  H       1  <O>11       0.1477
  29 H5        6.8934   -13.6928    -1.6154  H       1  <O>11       0.1550
  30 H6        3.5734   -11.9820    -6.0999  H       1  <O>11       0.0637
  31 H7        4.8667   -14.0258    -5.8504  H       1  <O>11       0.0619
  32 H8        6.1512   -14.4183    -3.8238  H       1  <O>11       0.0636
  33 H9        7.9893    -9.2289     0.3466  H       1  <O>11       0.0831
  34 H10       6.3641    -9.2971     2.1288  H       1  <O>11       0.0654
  35 H11       5.0952    -9.4262     3.4172  H       1  <O>11       0.0624
  36 H12       3.4134    -9.6270     5.1562  H       1  <O>11       0.0618
  37 H13       1.7892   -11.4345     5.0801  H       1  <O>11       0.0618
  38 H14       1.8475   -13.0299     3.2479  H       1  <O>11       0.0618
  39 H15       3.5117   -12.8344     1.5011  H       1  <O>11       0.0624
  40 H16       4.8507   -10.7111    -2.2918  H       1  <O>11       0.0656
@<TRIPOS>BOND
     1     1     2    1
     2     2     3    1
     3     3     4    2
     4     3     5    2
     5     3     6    1
     6     6     7   ar
     7     7     8   ar
     8     8     9   ar
     9     9    10   ar
    10    10    11    1
    11    11    12    1
    12    12    13   ar
    13    13    14   ar
    14    14    15   ar
    15    15    16   ar
    16    16    17    1
    17    17    18   ar
    18    18    19   ar
    19    19    20   ar
    20    20    21   ar
    21    21    22   ar
    22    17    22   ar
    23    16    23   ar
    24    12    23   ar
    25    10    24   ar
    26     6    24   ar
    27     1    25    1
    28     1    26    1
    29     1    27    1
    30     2    28    1
    31    11    29    1
    32     7    30    1
    33     8    31    1
    34     9    32    1
    35    14    33    1
    36    15    34    1
    37    18    35    1
    38    19    36    1
    39    20    37    1
    40    21    38    1
    41    22    39    1
    42    24    40    1
@<TRIPOS>MOLECULE
mol69_4_24
 40 42 0 0 0
SMALL
USER_CHARGES
****
VDW energy = -142.92
@<TRIPOS>ATOM
   1 C1        2.8936    -7.6802    -5.8629  C.3     1  <O>11       0.0059
   2 N1        3.6845    -8.8982    -5.7123  N.3     1  <O>11      -0.1930
   3 S1        3.1570    -9.7380    -4.3910  S.O2    1  <O>11       0.0582
   4 O1        3.3260    -8.7960    -3.0330  O.2     1  <O>11      -0.1531
   5 O2        1.5570   -10.1370    -4.5920  O.2     1  <O>11      -0.1531
   6 C2        4.1100   -11.2060    -4.2090  C.ar    1  <O>11       0.1070
   7 C3        4.1160   -12.1498    -5.2382  C.ar    1  <O>11      -0.0352
   8 C4        4.8620   -13.3240    -5.0938  C.ar    1  <O>11      -0.0582
   9 C5        5.6011   -13.5515    -3.9299  C.ar    1  <O>11      -0.0404
  10 C6        5.5892   -12.5938    -2.9090  C.ar    1  <O>11       0.0354
  11 N2        6.3527   -12.8323    -1.7122  N.pl3   1  <O>11      -0.2836
  12 C7        6.3554   -11.8511    -0.6441  C.ar    1  <O>11       0.2200
  13 N3        6.9146   -10.6383    -0.8700  N.ar    1  <O>11      -0.2226
  14 C8        6.9043    -9.7436     0.1363  C.ar    1  <O>11       0.0332
  15 C9        6.3598    -9.9960     1.3693  C.ar    1  <O>11      -0.0174
  16 C10       5.8125   -11.2431     1.5206  C.ar    1  <O>11       0.0760
  17 C11       5.2198   -11.6042     2.7658  C.ar    1  <O>11       0.0005
  18 C12       5.1954   -10.6888     3.8326  C.ar    1  <O>11      -0.0526
  19 C13       4.6236   -11.0481     5.0582  C.ar    1  <O>11      -0.0611
  20 C14       4.0710   -12.3196     5.2294  C.ar    1  <O>11      -0.0617
  21 C15       4.0884   -13.2283     4.1647  C.ar    1  <O>11      -0.0611
  22 C16       4.6526   -12.8781     2.9391  C.ar    1  <O>11      -0.0526
  23 N4        5.7988   -12.1737     0.5453  N.ar    1  <O>11      -0.2142
  24 C17       4.8500   -11.4171    -3.0445  C.ar    1  <O>11      -0.0141
  25 H1        1.8439    -7.9425    -5.9946  H       1  <O>11       0.0405
  26 H2        3.2419    -7.1263    -6.7347  H       1  <O>11       0.0405
  27 H3        3.0047    -7.0624    -4.9718  H       1  <O>11       0.0405
  28 H4        4.6668    -8.6527    -5.5891  H       1  <O>11       0.1477
  29 H5        6.8934   -13.6928    -1.6154  H       1  <O>11       0.1550
  30 H6        3.5734   -11.9820    -6.0999  H       1  <O>11       0.0637
  31 H7        4.8667   -14.0258    -5.8504  H       1  <O>11       0.0619
  32 H8        6.1512   -14.4183    -3.8238  H       1  <O>11       0.0636
  33 H9        7.3293    -8.8178    -0.0294  H       1  <O>11       0.0831
  34 H10       6.3620    -9.2970     2.1286  H       1  <O>11       0.0654
  35 H11       5.6010    -9.7477     3.7112  H       1  <O>11       0.0624
  36 H12       4.6101   -10.3720     5.8376  H       1  <O>11       0.0618
  37 H13       3.6530   -12.5871     6.1342  H       1  <O>11       0.0618
  38 H14       3.6792   -14.1676     4.2885  H       1  <O>11       0.0618
  39 H15       4.6536   -13.5541     2.1593  H       1  <O>11       0.0624
  40 H16       4.8507   -10.7111    -2.2918  H       1  <O>11       0.0656
@<TRIPOS>BOND
     1     1     2    1
     2     2     3    1
     3     3     4    2
     4     3     5    2
     5     3     6    1
     6     6     7   ar
     7     7     8   ar
     8     8     9   ar
     9     9    10   ar
    10    10    11    1
    11    11    12    1
    12    12    13   ar
    13    13    14   ar
    14    14    15   ar
    15    15    16   ar
    16    16    17    1
    17    17    18   ar
    18    18    19   ar
    19    19    20   ar
    20    20    21   ar
    21    21    22   ar
    22    17    22   ar
    23    16    23   ar
    24    12    23   ar
    25    10    24   ar
    26     6    24   ar
    27     1    25    1
    28     1    26    1
    29     1    27    1
    30     2    28    1
    31    11    29    1
    32     7    30    1
    33     8    31    1
    34     9    32    1
    35    14    33    1
    36    15    34    1
    37    18    35    1
    38    19    36    1
    39    20    37    1
    40    21    38    1
    41    22    39    1
    42    24    40    1
@<TRIPOS>MOLECULE
mol69_4_25
 40 42 0 0 0
SMALL
USER_CHARGES
****
VDW energy = -142.81
@<TRIPOS>ATOM
   1 C1        2.8936    -7.6802    -5.8629  C.3     1  <O>11       0.0059
   2 N1        3.6845    -8.8982    -5.7123  N.3     1  <O>11      -0.1930
   3 S1        3.1570    -9.7380    -4.3910  S.O2    1  <O>11       0.0582
   4 O1        3.3260    -8.7960    -3.0330  O.2     1  <O>11      -0.1531
   5 O2        1.5570   -10.1370    -4.5920  O.2     1  <O>11      -0.1531
   6 C2        4.1100   -11.2060    -4.2090  C.ar    1  <O>11       0.1070
   7 C3        5.4910   -11.1070    -4.0270  C.ar    1  <O>11      -0.0352
   8 C4        6.2550   -12.2710    -3.8940  C.ar    1  <O>11      -0.0582
   9 C5        5.6420   -13.5260    -3.9380  C.ar    1  <O>11      -0.0404
  10 C6        4.2560   -13.6090    -4.1160  C.ar    1  <O>11       0.0354
  11 N2        3.6290   -14.9040    -4.1600  N.pl3   1  <O>11      -0.2836
  12 C7        2.1940   -15.0110    -4.3410  C.ar    1  <O>11       0.2200
  13 N3        1.6493   -14.6051    -5.5128  N.ar    1  <O>11      -0.2226
  14 C8        0.3151   -14.7150    -5.6578  C.ar    1  <O>11       0.0332
  15 C9       -0.5143   -15.2142    -4.6865  C.ar    1  <O>11      -0.0174
  16 C10       0.1102   -15.6048    -3.5311  C.ar    1  <O>11       0.0760
  17 C11      -0.6638   -16.1384    -2.4595  C.ar    1  <O>11       0.0005
  18 C12      -2.0584   -16.2644    -2.5850  C.ar    1  <O>11      -0.0526
  19 C13      -2.8188   -16.7776    -1.5284  C.ar    1  <O>11      -0.0611
  20 C14      -2.1963   -17.1703    -0.3411  C.ar    1  <O>11      -0.0617
  21 C15      -0.8068   -17.0521    -0.2191  C.ar    1  <O>11      -0.0611
  22 C16      -0.0407   -16.5453    -1.2676  C.ar    1  <O>11      -0.0526
  23 N4        1.4412   -15.5140    -3.3366  N.ar    1  <O>11      -0.2142
  24 C17       3.4840   -12.4530    -4.2470  C.ar    1  <O>11      -0.0141
  25 H1        1.8439    -7.9425    -5.9946  H       1  <O>11       0.0405
  26 H2        3.2419    -7.1263    -6.7347  H       1  <O>11       0.0405
  27 H3        3.0047    -7.0624    -4.9718  H       1  <O>11       0.0405
  28 H4        4.6668    -8.6527    -5.5891  H       1  <O>11       0.1477
  29 H5        4.1950   -15.7480    -4.0630  H       1  <O>11       0.1550
  30 H6        5.9450   -10.1809    -3.9909  H       1  <O>11       0.0637
  31 H7        7.2763   -12.2027    -3.7627  H       1  <O>11       0.0619
  32 H8        6.2064   -14.3845    -3.8401  H       1  <O>11       0.0636
  33 H9       -0.1061   -14.4070    -6.5482  H       1  <O>11       0.0831
  34 H10      -1.5353   -15.2901    -4.8164  H       1  <O>11       0.0654
  35 H11      -2.5234   -15.9770    -3.4604  H       1  <O>11       0.0624
  36 H12      -3.8423   -16.8663    -1.6265  H       1  <O>11       0.0618
  37 H13      -2.7567   -17.5449     0.4403  H       1  <O>11       0.0618
  38 H14      -0.3446   -17.3433     0.6565  H       1  <O>11       0.0618
  39 H15       0.9837   -16.4691    -1.1685  H       1  <O>11       0.0624
  40 H16       2.4616   -12.5198    -4.3706  H       1  <O>11       0.0656
@<TRIPOS>BOND
     1     1     2    1
     2     2     3    1
     3     3     4    2
     4     3     5    2
     5     3     6    1
     6     6     7   ar
     7     7     8   ar
     8     8     9   ar
     9     9    10   ar
    10    10    11    1
    11    11    12    1
    12    12    13   ar
    13    13    14   ar
    14    14    15   ar
    15    15    16   ar
    16    16    17    1
    17    17    18   ar
    18    18    19   ar
    19    19    20   ar
    20    20    21   ar
    21    21    22   ar
    22    17    22   ar
    23    16    23   ar
    24    12    23   ar
    25    10    24   ar
    26     6    24   ar
    27     1    25    1
    28     1    26    1
    29     1    27    1
    30     2    28    1
    31    11    29    1
    32     7    30    1
    33     8    31    1
    34     9    32    1
    35    14    33    1
    36    15    34    1
    37    18    35    1
    38    19    36    1
    39    20    37    1
    40    21    38    1
    41    22    39    1
    42    24    40    1
@<TRIPOS>MOLECULE
mol69_4_26
 40 42 0 0 0
SMALL
USER_CHARGES
****
VDW energy = -142.35
@<TRIPOS>ATOM
   1 C1        2.8936    -7.6802    -5.8629  C.3     1  <O>11       0.0059
   2 N1        3.6845    -8.8982    -5.7123  N.3     1  <O>11      -0.1930
   3 S1        3.1570    -9.7380    -4.3910  S.O2    1  <O>11       0.0582
   4 O1        3.3260    -8.7960    -3.0330  O.2     1  <O>11      -0.1531
   5 O2        1.5570   -10.1370    -4.5920  O.2     1  <O>11      -0.1531
   6 C2        4.1100   -11.2060    -4.2090  C.ar    1  <O>11       0.1070
   7 C3        4.1160   -12.1498    -5.2382  C.ar    1  <O>11      -0.0352
   8 C4        4.8620   -13.3240    -5.0938  C.ar    1  <O>11      -0.0582
   9 C5        5.6011   -13.5515    -3.9299  C.ar    1  <O>11      -0.0404
  10 C6        5.5892   -12.5938    -2.9090  C.ar    1  <O>11       0.0354
  11 N2        6.3527   -12.8323    -1.7122  N.pl3   1  <O>11      -0.2836
  12 C7        6.3554   -11.8511    -0.6441  C.ar    1  <O>11       0.2200
  13 N3        5.2041   -11.6104     0.0275  N.ar    1  <O>11      -0.2226
  14 C8        5.2316   -10.6960     1.0156  C.ar    1  <O>11       0.0332
  15 C9        6.3582   -10.0013     1.3742  C.ar    1  <O>11      -0.0174
  16 C10       7.4825   -10.3004     0.6503  C.ar    1  <O>11       0.0760
  17 C11       8.7069    -9.6329     0.9458  C.ar    1  <O>11       0.0005
  18 C12       8.7632    -8.6741     1.9725  C.ar    1  <O>11      -0.0526
  19 C13       9.9628    -8.0110     2.2543  C.ar    1  <O>11      -0.0611
  20 C14      11.1142    -8.2989     1.5176  C.ar    1  <O>11      -0.0617
  21 C15      11.0600    -9.2592     0.5004  C.ar    1  <O>11      -0.0611
  22 C16       9.8704    -9.9274     0.2149  C.ar    1  <O>11      -0.0526
  23 N4        7.5064   -11.2060    -0.3481  N.ar    1  <O>11      -0.2142
  24 C17       4.8500   -11.4171    -3.0445  C.ar    1  <O>11      -0.0141
  25 H1        1.8439    -7.9425    -5.9946  H       1  <O>11       0.0405
  26 H2        3.2419    -7.1263    -6.7347  H       1  <O>11       0.0405
  27 H3        3.0047    -7.0624    -4.9718  H       1  <O>11       0.0405
  28 H4        4.6668    -8.6527    -5.5891  H       1  <O>11       0.1477
  29 H5        6.8934   -13.6928    -1.6154  H       1  <O>11       0.1550
  30 H6        3.5734   -11.9820    -6.0999  H       1  <O>11       0.0637
  31 H7        4.8667   -14.0258    -5.8504  H       1  <O>11       0.0619
  32 H8        6.1512   -14.4183    -3.8238  H       1  <O>11       0.0636
  33 H9        4.3574   -10.5078     1.5308  H       1  <O>11       0.0831
  34 H10       6.3592    -9.3034     2.1345  H       1  <O>11       0.0654
  35 H11       7.9159    -8.4584     2.5208  H       1  <O>11       0.0624
  36 H12       9.9970    -7.3074     3.0084  H       1  <O>11       0.0618
  37 H13      11.9983    -7.8073     1.7217  H       1  <O>11       0.0618
  38 H14      11.9099    -9.4747    -0.0440  H       1  <O>11       0.0618
  39 H15       9.8443   -10.6382    -0.5328  H       1  <O>11       0.0624
  40 H16       4.8507   -10.7111    -2.2918  H       1  <O>11       0.0656
@<TRIPOS>BOND
     1     1     2    1
     2     2     3    1
     3     3     4    2
     4     3     5    2
     5     3     6    1
     6     6     7   ar
     7     7     8   ar
     8     8     9   ar
     9     9    10   ar
    10    10    11    1
    11    11    12    1
    12    12    13   ar
    13    13    14   ar
    14    14    15   ar
    15    15    16   ar
    16    16    17    1
    17    17    18   ar
    18    18    19   ar
    19    19    20   ar
    20    20    21   ar
    21    21    22   ar
    22    17    22   ar
    23    16    23   ar
    24    12    23   ar
    25    10    24   ar
    26     6    24   ar
    27     1    25    1
    28     1    26    1
    29     1    27    1
    30     2    28    1
    31    11    29    1
    32     7    30    1
    33     8    31    1
    34     9    32    1
    35    14    33    1
    36    15    34    1
    37    18    35    1
    38    19    36    1
    39    20    37    1
    40    21    38    1
    41    22    39    1
    42    24    40    1
@<TRIPOS>MOLECULE
mol69_4_27
 40 42 0 0 0
SMALL
USER_CHARGES
****
VDW energy = -139.29
@<TRIPOS>ATOM
   1 C1        2.8936    -7.6802    -5.8629  C.3     1  <O>11       0.0059
   2 N1        3.6845    -8.8982    -5.7123  N.3     1  <O>11      -0.1930
   3 S1        3.1570    -9.7380    -4.3910  S.O2    1  <O>11       0.0582
   4 O1        1.5572   -10.1382    -4.5923  O.2     1  <O>11      -0.1531
   5 O2        4.0569   -11.1240    -4.2213  O.2     1  <O>11      -0.1531
   6 C2        3.3359    -8.7416    -2.9517  C.ar    1  <O>11       0.1070
   7 C3        4.6051    -8.2869    -2.5878  C.ar    1  <O>11      -0.0352
   8 C4        4.7548    -7.5048    -1.4380  C.ar    1  <O>11      -0.0582
   9 C5        3.6423    -7.1752    -0.6592  C.ar    1  <O>11      -0.0404
  10 C6        2.3757    -7.6342    -1.0396  C.ar    1  <O>11       0.0354
  11 N2        1.2326    -7.2916    -0.2346  N.pl3   1  <O>11      -0.2836
  12 C7        0.8045    -5.9098    -0.1310  C.ar    1  <O>11       0.2200
  13 N3        1.6184    -5.0156     0.4795  N.ar    1  <O>11      -0.2226
  14 C8        1.1998    -3.7385     0.5627  C.ar    1  <O>11       0.0332
  15 C9        0.0000    -3.3001     0.0639  C.ar    1  <O>11      -0.0174
  16 C10      -0.7666    -4.2620    -0.5399  C.ar    1  <O>11       0.0760
  17 C11      -2.0323    -3.9080    -1.0919  C.ar    1  <O>11       0.0005
  18 C12      -2.4929    -2.5817    -1.0188  C.ar    1  <O>11      -0.0526
  19 C13      -3.7406    -2.2373    -1.5508  C.ar    1  <O>11      -0.0611
  20 C14      -4.5368    -3.2099    -2.1602  C.ar    1  <O>11      -0.0617
  21 C15      -4.0748    -4.5289    -2.2398  C.ar    1  <O>11      -0.0611
  22 C16      -2.8318    -4.8806    -1.7160  C.ar    1  <O>11      -0.0526
  23 N4       -0.3932    -5.5529    -0.6475  N.ar    1  <O>11      -0.2142
  24 C17       2.2152    -8.4133    -2.1871  C.ar    1  <O>11      -0.0141
  25 H1        1.8439    -7.9425    -5.9946  H       1  <O>11       0.0405
  26 H2        3.2419    -7.1263    -6.7347  H       1  <O>11       0.0405
  27 H3        3.0047    -7.0624    -4.9718  H       1  <O>11       0.0405
  28 H4        4.6668    -8.6527    -5.5891  H       1  <O>11       0.1477
  29 H5        0.7232    -8.0220     0.2644  H       1  <O>11       0.1550
  30 H6        5.4274    -8.5265    -3.1635  H       1  <O>11       0.0637
  31 H7        5.6913    -7.1694    -1.1634  H       1  <O>11       0.0619
  32 H8        3.7535    -6.5983     0.1893  H       1  <O>11       0.0636
  33 H9        1.8153    -3.0525     1.0271  H       1  <O>11       0.0831
  34 H10      -0.3036    -2.3165     0.1379  H       1  <O>11       0.0654
  35 H11      -1.9083    -1.8588    -0.5709  H       1  <O>11       0.0624
  36 H12      -4.0734    -1.2622    -1.4927  H       1  <O>11       0.0618
  37 H13      -5.4590    -2.9579    -2.5489  H       1  <O>11       0.0618
  38 H14      -4.6606    -5.2487    -2.6912  H       1  <O>11       0.0618
  39 H15      -2.4988    -5.8548    -1.7866  H       1  <O>11       0.0624
  40 H16       1.2781    -8.7428    -2.4670  H       1  <O>11       0.0656
@<TRIPOS>BOND
     1     1     2    1
     2     2     3    1
     3     3     4    2
     4     3     5    2
     5     3     6    1
     6     6     7   ar
     7     7     8   ar
     8     8     9   ar
     9     9    10   ar
    10    10    11    1
    11    11    12    1
    12    12    13   ar
    13    13    14   ar
    14    14    15   ar
    15    15    16   ar
    16    16    17    1
    17    17    18   ar
    18    18    19   ar
    19    19    20   ar
    20    20    21   ar
    21    21    22   ar
    22    17    22   ar
    23    16    23   ar
    24    12    23   ar
    25    10    24   ar
    26     6    24   ar
    27     1    25    1
    28     1    26    1
    29     1    27    1
    30     2    28    1
    31    11    29    1
    32     7    30    1
    33     8    31    1
    34     9    32    1
    35    14    33    1
    36    15    34    1
    37    18    35    1
    38    19    36    1
    39    20    37    1
    40    21    38    1
    41    22    39    1
    42    24    40    1
@<TRIPOS>MOLECULE
mol69_4_28
 40 42 0 0 0
SMALL
USER_CHARGES
****
VDW energy = -138.02
@<TRIPOS>ATOM
   1 C1        2.8936    -7.6802    -5.8629  C.3     1  <O>11       0.0059
   2 N1        3.6845    -8.8982    -5.7123  N.3     1  <O>11      -0.1930
   3 S1        3.1570    -9.7380    -4.3910  S.O2    1  <O>11       0.0582
   4 O1        1.5572   -10.1382    -4.5923  O.2     1  <O>11      -0.1531
   5 O2        4.0569   -11.1240    -4.2213  O.2     1  <O>11      -0.1531
   6 C2        3.3359    -8.7416    -2.9517  C.ar    1  <O>11       0.1070
   7 C3        4.6051    -8.2869    -2.5878  C.ar    1  <O>11      -0.0352
   8 C4        4.7548    -7.5048    -1.4380  C.ar    1  <O>11      -0.0582
   9 C5        3.6423    -7.1752    -0.6592  C.ar    1  <O>11      -0.0404
  10 C6        2.3757    -7.6342    -1.0396  C.ar    1  <O>11       0.0354
  11 N2        1.2326    -7.2916    -0.2346  N.pl3   1  <O>11      -0.2836
  12 C7       -0.0884    -7.7552    -0.6134  C.ar    1  <O>11       0.2200
  13 N3       -0.6413    -7.2927    -1.7601  N.ar    1  <O>11      -0.2226
  14 C8       -1.8681    -7.7383    -2.0913  C.ar    1  <O>11       0.0332
  15 C9       -2.5809    -8.6306    -1.3322  C.ar    1  <O>11      -0.0174
  16 C10      -1.9553    -9.0532    -0.1887  C.ar    1  <O>11       0.0760
  17 C11      -2.6125    -9.9825     0.6696  C.ar    1  <O>11       0.0005
  18 C12      -3.8935   -10.4637     0.3471  C.ar    1  <O>11      -0.0526
  19 C13      -4.5427   -11.3671     1.1960  C.ar    1  <O>11      -0.0611
  20 C14      -3.9208   -11.7986     2.3700  C.ar    1  <O>11      -0.0617
  21 C15      -2.6421   -11.3253     2.6872  C.ar    1  <O>11      -0.0611
  22 C16      -1.9861   -10.4281     1.8459  C.ar    1  <O>11      -0.0526
  23 N4       -0.7296    -8.6364     0.1872  N.ar    1  <O>11      -0.2142
  24 C17       2.2152    -8.4133    -2.1871  C.ar    1  <O>11      -0.0141
  25 H1        1.8439    -7.9425    -5.9946  H       1  <O>11       0.0405
  26 H2        3.2419    -7.1263    -6.7347  H       1  <O>11       0.0405
  27 H3        3.0047    -7.0624    -4.9718  H       1  <O>11       0.0405
  28 H4        4.6668    -8.6527    -5.5891  H       1  <O>11       0.1477
  29 H5        1.3518    -6.7210     0.6034  H       1  <O>11       0.1550
  30 H6        5.4274    -8.5265    -3.1635  H       1  <O>11       0.0637
  31 H7        5.6913    -7.1694    -1.1634  H       1  <O>11       0.0619
  32 H8        3.7535    -6.5983     0.1893  H       1  <O>11       0.0636
  33 H9       -2.2950    -7.3893    -2.9637  H       1  <O>11       0.0831
  34 H10      -3.5208    -8.9601    -1.6028  H       1  <O>11       0.0654
  35 H11      -4.3571   -10.1493    -0.5196  H       1  <O>11       0.0624
  36 H12      -5.4835   -11.7155     0.9541  H       1  <O>11       0.0618
  37 H13      -4.4005   -12.4614     2.9990  H       1  <O>11       0.0618
  38 H14      -2.1800   -11.6441     3.5532  H       1  <O>11       0.0618
  39 H15      -1.0409   -10.0913     2.0868  H       1  <O>11       0.0624
  40 H16       1.2781    -8.7428    -2.4670  H       1  <O>11       0.0656
@<TRIPOS>BOND
     1     1     2    1
     2     2     3    1
     3     3     4    2
     4     3     5    2
     5     3     6    1
     6     6     7   ar
     7     7     8   ar
     8     8     9   ar
     9     9    10   ar
    10    10    11    1
    11    11    12    1
    12    12    13   ar
    13    13    14   ar
    14    14    15   ar
    15    15    16   ar
    16    16    17    1
    17    17    18   ar
    18    18    19   ar
    19    19    20   ar
    20    20    21   ar
    21    21    22   ar
    22    17    22   ar
    23    16    23   ar
    24    12    23   ar
    25    10    24   ar
    26     6    24   ar
    27     1    25    1
    28     1    26    1
    29     1    27    1
    30     2    28    1
    31    11    29    1
    32     7    30    1
    33     8    31    1
    34     9    32    1
    35    14    33    1
    36    15    34    1
    37    18    35    1
    38    19    36    1
    39    20    37    1
    40    21    38    1
    41    22    39    1
    42    24    40    1
@<TRIPOS>MOLECULE
mol69_4_29
 40 42 0 0 0
SMALL
USER_CHARGES
****
VDW energy = -131.67
@<TRIPOS>ATOM
   1 C1        2.8936    -7.6802    -5.8629  C.3     1  <O>11       0.0059
   2 N1        3.6845    -8.8982    -5.7123  N.3     1  <O>11      -0.1930
   3 S1        3.1570    -9.7380    -4.3910  S.O2    1  <O>11       0.0582
   4 O1        4.0577   -11.1235    -4.2202  O.2     1  <O>11      -0.1531
   5 O2        3.3274    -8.7964    -3.0331  O.2     1  <O>11      -0.1531
   6 C2        1.4624   -10.1623    -4.6026  C.ar    1  <O>11       0.1070
   7 C3        0.5181    -9.1466    -4.7658  C.ar    1  <O>11      -0.0352
   8 C4       -0.8318    -9.4776    -4.9222  C.ar    1  <O>11      -0.0582
   9 C5       -1.2348   -10.8156    -4.9201  C.ar    1  <O>11      -0.0404
  10 C6       -0.2759   -11.8229    -4.7605  C.ar    1  <O>11       0.0354
  11 N2       -0.6958   -13.1998    -4.7596  N.pl3   1  <O>11      -0.2836
  12 C7       -1.2532   -13.7904    -5.9613  C.ar    1  <O>11       0.2200
  13 N3       -0.4589   -13.9370    -7.0485  N.ar    1  <O>11      -0.2226
  14 C8       -0.9985   -14.4888    -8.1520  C.ar    1  <O>11       0.0332
  15 C9       -2.3020   -14.9074    -8.2302  C.ar    1  <O>11      -0.0174
  16 C10      -3.0414   -14.7273    -7.0907  C.ar    1  <O>11       0.0760
  17 C11      -4.4085   -15.1304    -7.0688  C.ar    1  <O>11       0.0005
  18 C12      -4.9963   -15.7094    -8.2071  C.ar    1  <O>11      -0.0526
  19 C13      -6.3415   -16.0944    -8.1885  C.ar    1  <O>11      -0.0611
  20 C14      -7.1097   -15.9074    -7.0368  C.ar    1  <O>11      -0.0617
  21 C15      -6.5222   -15.3380    -5.9009  C.ar    1  <O>11      -0.0611
  22 C16      -5.1820   -14.9547    -5.9089  C.ar    1  <O>11      -0.0526
  23 N4       -2.5484   -14.1792    -5.9619  N.ar    1  <O>11      -0.2142
  24 C17       1.0745   -11.5031    -4.6064  C.ar    1  <O>11      -0.0141
  25 H1        1.8439    -7.9425    -5.9946  H       1  <O>11       0.0405
  26 H2        3.2419    -7.1263    -6.7347  H       1  <O>11       0.0405
  27 H3        3.0047    -7.0624    -4.9718  H       1  <O>11       0.0405
  28 H4        4.6668    -8.6527    -5.5891  H       1  <O>11       0.1477
  29 H5       -0.6017   -13.7609    -3.9121  H       1  <O>11       0.1550
  30 H6        0.8143    -8.1580    -4.7710  H       1  <O>11       0.0637
  31 H7       -1.5336    -8.7302    -5.0397  H       1  <O>11       0.0619
  32 H8       -2.2311   -11.0592    -5.0352  H       1  <O>11       0.0636
  33 H9       -0.3985   -14.6028    -8.9839  H       1  <O>11       0.0831
  34 H10      -2.6976   -15.3278    -9.0857  H       1  <O>11       0.0654
  35 H11      -4.4332   -15.8511    -9.0602  H       1  <O>11       0.0624
  36 H12      -6.7673   -16.5176    -9.0278  H       1  <O>11       0.0618
  37 H13      -8.1030   -16.1870    -7.0235  H       1  <O>11       0.0618
  38 H14      -7.0873   -15.2005    -5.0484  H       1  <O>11       0.0618
  39 H15      -4.7581   -14.5422    -5.0633  H       1  <O>11       0.0624
  40 H16       1.7781   -12.2500    -4.4965  H       1  <O>11       0.0656
@<TRIPOS>BOND
     1     1     2    1
     2     2     3    1
     3     3     4    2
     4     3     5    2
     5     3     6    1
     6     6     7   ar
     7     7     8   ar
     8     8     9   ar
     9     9    10   ar
    10    10    11    1
    11    11    12    1
    12    12    13   ar
    13    13    14   ar
    14    14    15   ar
    15    15    16   ar
    16    16    17    1
    17    17    18   ar
    18    18    19   ar
    19    19    20   ar
    20    20    21   ar
    21    21    22   ar
    22    17    22   ar
    23    16    23   ar
    24    12    23   ar
    25    10    24   ar
    26     6    24   ar
    27     1    25    1
    28     1    26    1
    29     1    27    1
    30     2    28    1
    31    11    29    1
    32     7    30    1
    33     8    31    1
    34     9    32    1
    35    14    33    1
    36    15    34    1
    37    18    35    1
    38    19    36    1
    39    20    37    1
    40    21    38    1
    41    22    39    1
    42    24    40    1
@<TRIPOS>MOLECULE
mol69_4_30
 40 42 0 0 0
SMALL
USER_CHARGES
****
VDW energy = -130.23
@<TRIPOS>ATOM
   1 C1        2.8936    -7.6802    -5.8629  C.3     1  <O>11       0.0059
   2 N1        3.6845    -8.8982    -5.7123  N.3     1  <O>11      -0.1930
   3 S1        3.1570    -9.7380    -4.3910  S.O2    1  <O>11       0.0582
   4 O1        3.3260    -8.7960    -3.0330  O.2     1  <O>11      -0.1531
   5 O2        1.5570   -10.1370    -4.5920  O.2     1  <O>11      -0.1531
   6 C2        4.1100   -11.2060    -4.2090  C.ar    1  <O>11       0.1070
   7 C3        4.1160   -12.1498    -5.2382  C.ar    1  <O>11      -0.0352
   8 C4        4.8620   -13.3240    -5.0938  C.ar    1  <O>11      -0.0582
   9 C5        5.6011   -13.5515    -3.9299  C.ar    1  <O>11      -0.0404
  10 C6        5.5892   -12.5938    -2.9090  C.ar    1  <O>11       0.0354
  11 N2        6.3527   -12.8323    -1.7122  N.pl3   1  <O>11      -0.2836
  12 C7        6.3554   -11.8511    -0.6441  C.ar    1  <O>11       0.2200
  13 N3        7.0835   -12.0983     0.4709  N.ar    1  <O>11      -0.2226
  14 C8        7.0713   -11.1723     1.4484  C.ar    1  <O>11       0.0332
  15 C9        6.3645    -9.9995     1.3726  C.ar    1  <O>11      -0.0174
  16 C10       5.6544    -9.8208     0.2144  C.ar    1  <O>11       0.0760
  17 C11       4.8865    -8.6330     0.0369  C.ar    1  <O>11       0.0005
  18 C12       3.5447    -8.5859     0.4540  C.ar    1  <O>11      -0.0526
  19 C13       2.7883    -7.4233     0.2690  C.ar    1  <O>11      -0.0611
  20 C14       3.3626    -6.2998    -0.3304  C.ar    1  <O>11      -0.0617
  21 C15       4.7009    -6.3441    -0.7387  C.ar    1  <O>11      -0.0611
  22 C16       5.4633    -7.4966    -0.5552  C.ar    1  <O>11      -0.0526
  23 N4        5.6331   -10.7176    -0.7921  N.ar    1  <O>11      -0.2142
  24 C17       4.8500   -11.4171    -3.0445  C.ar    1  <O>11      -0.0141
  25 H1        1.8439    -7.9425    -5.9946  H       1  <O>11       0.0405
  26 H2        3.2419    -7.1263    -6.7347  H       1  <O>11       0.0405
  27 H3        3.0047    -7.0624    -4.9718  H       1  <O>11       0.0405
  28 H4        4.6668    -8.6527    -5.5891  H       1  <O>11       0.1477
  29 H5        6.8934   -13.6928    -1.6154  H       1  <O>11       0.1550
  30 H6        3.5734   -11.9820    -6.0999  H       1  <O>11       0.0637
  31 H7        4.8667   -14.0258    -5.8504  H       1  <O>11       0.0619
  32 H8        6.1512   -14.4183    -3.8238  H       1  <O>11       0.0636
  33 H9        7.6237   -11.3550     2.3008  H       1  <O>11       0.0831
  34 H10       6.3673    -9.3018     2.1330  H       1  <O>11       0.0654
  35 H11       3.1157    -9.4126     0.8986  H       1  <O>11       0.0624
  36 H12       1.8035    -7.3958     0.5762  H       1  <O>11       0.0618
  37 H13       2.8043    -5.4434    -0.4713  H       1  <O>11       0.0618
  38 H14       5.1277    -5.5147    -1.1801  H       1  <O>11       0.0618
  39 H15       6.4508    -7.5152    -0.8541  H       1  <O>11       0.0624
  40 H16       4.8507   -10.7111    -2.2918  H       1  <O>11       0.0656
@<TRIPOS>BOND
     1     1     2    1
     2     2     3    1
     3     3     4    2
     4     3     5    2
     5     3     6    1
     6     6     7   ar
     7     7     8   ar
     8     8     9   ar
     9     9    10   ar
    10    10    11    1
    11    11    12    1
    12    12    13   ar
    13    13    14   ar
    14    14    15   ar
    15    15    16   ar
    16    16    17    1
    17    17    18   ar
    18    18    19   ar
    19    19    20   ar
    20    20    21   ar
    21    21    22   ar
    22    17    22   ar
    23    16    23   ar
    24    12    23   ar
    25    10    24   ar
    26     6    24   ar
    27     1    25    1
    28     1    26    1
    29     1    27    1
    30     2    28    1
    31    11    29    1
    32     7    30    1
    33     8    31    1
    34     9    32    1
    35    14    33    1
    36    15    34    1
    37    18    35    1
    38    19    36    1
    39    20    37    1
    40    21    38    1
    41    22    39    1
    42    24    40    1
