@<TRIPOS>MOLECULE
mol67_1_1
 39 41 0 0 0
SMALL
USER_CHARGES
****
VDW energy = 91.54
@<TRIPOS>ATOM
   1 O1       -6.3195     0.0314    -4.3629  O.2     1  <O>11      -0.2917
   2 C1       -6.0269     1.2087    -4.2154  C.2     1  <O>11       0.1676
   3 C2       -5.4450     1.6770    -2.9240  C.3     1  <O>11       0.0362
   4 C3       -6.1778     1.0587    -1.8012  C.ar    1  <O>11      -0.0322
   5 C4       -7.2927     1.7204    -1.2794  C.ar    1  <O>11      -0.0576
   6 C5       -8.0117     1.1404    -0.2389  C.ar    1  <O>11      -0.0609
   7 C6       -7.5994    -0.0845     0.2957  C.ar    1  <O>11      -0.0540
   8 C7       -6.4693    -0.7498    -0.2080  C.ar    1  <O>11      -0.0176
   9 C8       -6.0401    -1.9767     0.3224  C.ar    1  <O>11      -0.0540
  10 C9       -4.9179    -2.6244    -0.1960  C.ar    1  <O>11      -0.0612
  11 C10      -4.2123    -2.0563    -1.2537  C.ar    1  <O>11      -0.0612
  12 C11      -4.6273    -0.8376    -1.7926  C.ar    1  <O>11      -0.0538
  13 C12      -5.7510    -0.1717    -1.2771  C.ar    1  <O>11      -0.0143
  14 C13      -6.2460     2.1550    -5.3010  C.ar    1  <O>11       0.0234
  15 C14      -7.4684     2.8405    -5.4082  C.ar    1  <O>11      -0.0059
  16 C15      -7.6817     3.7396    -6.4589  C.ar    1  <O>11       0.1611
  17 O2       -8.8126     4.3614    -6.5515  O.3     1  <O>11      -0.5032
  18 C16      -6.6793     3.9682    -7.4056  C.ar    1  <O>11       0.1846
  19 O3       -6.8711     4.7987    -8.3792  O.3     1  <O>11      -0.5019
  20 C17      -5.4599     3.2901    -7.2934  C.ar    1  <O>11       0.1170
  21 N1       -4.4301     3.5280    -8.2721  N.4     1  <O>11      -0.2014
  22 O4       -4.0650     4.9303    -8.2579  O.3     1  <O>11      -0.2807
  23 F1       -4.9185     3.1720    -9.5791  F       1  <O>11      -0.0963
  24 C18      -5.2372     2.3921    -6.2496  C.ar    1  <O>11      -0.0215
  25 H1       -4.3945     1.3893    -2.8735  H       1  <O>11       0.0394
  26 H2       -5.5293     2.7619    -2.8588  H       1  <O>11       0.0394
  27 H3       -8.8004     4.9435    -7.3276  H       1  <O>11       0.2923
  28 H4       -6.0776     4.8335    -8.9365  H       1  <O>11       0.2924
  29 H5       -3.6124     2.9611    -8.0482  H       1  <O>11       0.2057
  30 H6       -7.5811     2.6338    -1.6636  H       1  <O>11       0.0621
  31 H7       -8.8480     1.6133     0.1379  H       1  <O>11       0.0618
  32 H8       -8.1334    -0.5059     1.0718  H       1  <O>11       0.0624
  33 H9       -6.5601    -2.4043     1.1044  H       1  <O>11       0.0624
  34 H10      -4.6109    -3.5246     0.2046  H       1  <O>11       0.0618
  35 H11      -3.3835    -2.5359    -1.6387  H       1  <O>11       0.0618
  36 H12      -4.1029    -0.4215    -2.5781  H       1  <O>11       0.0624
  37 H13      -8.2111     2.6801    -4.7097  H       1  <O>11       0.0662
  38 H14      -4.8427     5.4696    -8.4708  H       1  <O>11       0.2449
  39 H15      -4.3320     1.9022    -6.1743  H       1  <O>11       0.0647
@<TRIPOS>BOND
     1     1     2    2
     2     2     3    1
     3     3     4    1
     4     4     5   ar
     5     5     6   ar
     6     6     7   ar
     7     7     8   ar
     8     8     9   ar
     9     9    10   ar
    10    10    11   ar
    11    11    12   ar
    12    12    13   ar
    13     4    13   ar
    14     8    13   ar
    15     2    14    1
    16    14    15   ar
    17    15    16   ar
    18    16    17    1
    19    16    18   ar
    20    18    19    1
    21    18    20   ar
    22    20    21    1
    23    21    22    1
    24    21    23    1
    25    20    24   ar
    26    14    24   ar
    27     3    25    1
    28     3    26    1
    29    17    27    1
    30    19    28    1
    31    21    29    1
    32     5    30    1
    33     6    31    1
    34     7    32    1
    35     9    33    1
    36    10    34    1
    37    11    35    1
    38    12    36    1
    39    15    37    1
    40    22    38    1
    41    24    39    1
@<TRIPOS>MOLECULE
mol67_1_2
 39 41 0 0 0
SMALL
USER_CHARGES
****
VDW energy = 91.70
@<TRIPOS>ATOM
   1 O1       -6.3195     0.0314    -4.3629  O.2     1  <O>11      -0.2917
   2 C1       -6.0269     1.2087    -4.2154  C.2     1  <O>11       0.1676
   3 C2       -5.4450     1.6770    -2.9240  C.3     1  <O>11       0.0362
   4 C3       -6.1778     1.0587    -1.8012  C.ar    1  <O>11      -0.0322
   5 C4       -7.2927     1.7204    -1.2794  C.ar    1  <O>11      -0.0576
   6 C5       -8.0117     1.1404    -0.2389  C.ar    1  <O>11      -0.0609
   7 C6       -7.5994    -0.0845     0.2957  C.ar    1  <O>11      -0.0540
   8 C7       -6.4693    -0.7498    -0.2080  C.ar    1  <O>11      -0.0176
   9 C8       -6.0401    -1.9767     0.3224  C.ar    1  <O>11      -0.0540
  10 C9       -4.9179    -2.6244    -0.1960  C.ar    1  <O>11      -0.0612
  11 C10      -4.2123    -2.0563    -1.2537  C.ar    1  <O>11      -0.0612
  12 C11      -4.6273    -0.8376    -1.7926  C.ar    1  <O>11      -0.0538
  13 C12      -5.7510    -0.1717    -1.2771  C.ar    1  <O>11      -0.0143
  14 C13      -6.2460     2.1550    -5.3010  C.ar    1  <O>11       0.0234
  15 C14      -7.0983     3.2578    -5.1192  C.ar    1  <O>11      -0.0059
  16 C15      -7.3174     4.1587    -6.1671  C.ar    1  <O>11       0.1611
  17 O2       -8.1082     5.1676    -5.9909  O.3     1  <O>11      -0.5032
  18 C16      -6.6858     3.9732    -7.4000  C.ar    1  <O>11       0.1846
  19 O3       -6.8849     4.8032    -8.3725  O.3     1  <O>11      -0.5019
  20 C17      -5.8318     2.8784    -7.5772  C.ar    1  <O>11       0.1170
  21 N1       -5.1839     2.6906    -8.8500  N.4     1  <O>11      -0.2014
  22 O4       -4.3576     3.8436    -9.1461  O.3     1  <O>11      -0.2807
  23 F1       -6.1805     2.5370    -9.8779  F       1  <O>11      -0.0963
  24 C18      -5.6064     1.9748    -6.5389  C.ar    1  <O>11      -0.0215
  25 H1       -4.3945     1.3893    -2.8735  H       1  <O>11       0.0394
  26 H2       -5.5293     2.7619    -2.8588  H       1  <O>11       0.0394
  27 H3       -8.1520     5.6918    -6.8061  H       1  <O>11       0.2923
  28 H4       -6.3721     4.5235    -9.1473  H       1  <O>11       0.2924
  29 H5       -4.6010     1.8545    -8.8133  H       1  <O>11       0.2057
  30 H6       -7.5811     2.6338    -1.6636  H       1  <O>11       0.0621
  31 H7       -8.8480     1.6133     0.1379  H       1  <O>11       0.0618
  32 H8       -8.1334    -0.5059     1.0718  H       1  <O>11       0.0624
  33 H9       -6.5601    -2.4043     1.1044  H       1  <O>11       0.0624
  34 H10      -4.6109    -3.5246     0.2046  H       1  <O>11       0.0618
  35 H11      -3.3835    -2.5359    -1.6387  H       1  <O>11       0.0618
  36 H12      -4.1029    -0.4215    -2.5781  H       1  <O>11       0.0624
  37 H13      -7.5640     3.4035    -4.2098  H       1  <O>11       0.0662
  38 H14      -4.9119     4.6388    -9.1810  H       1  <O>11       0.2449
  39 H15      -4.9703     1.1745    -6.6798  H       1  <O>11       0.0647
@<TRIPOS>BOND
     1     1     2    2
     2     2     3    1
     3     3     4    1
     4     4     5   ar
     5     5     6   ar
     6     6     7   ar
     7     7     8   ar
     8     8     9   ar
     9     9    10   ar
    10    10    11   ar
    11    11    12   ar
    12    12    13   ar
    13     4    13   ar
    14     8    13   ar
    15     2    14    1
    16    14    15   ar
    17    15    16   ar
    18    16    17    1
    19    16    18   ar
    20    18    19    1
    21    18    20   ar
    22    20    21    1
    23    21    22    1
    24    21    23    1
    25    20    24   ar
    26    14    24   ar
    27     3    25    1
    28     3    26    1
    29    17    27    1
    30    19    28    1
    31    21    29    1
    32     5    30    1
    33     6    31    1
    34     7    32    1
    35     9    33    1
    36    10    34    1
    37    11    35    1
    38    12    36    1
    39    15    37    1
    40    22    38    1
    41    24    39    1
@<TRIPOS>MOLECULE
mol67_1_3
 39 41 0 0 0
SMALL
USER_CHARGES
****
VDW energy = 91.82
@<TRIPOS>ATOM
   1 O1       -6.3195     0.0314    -4.3629  O.2     1  <O>11      -0.2917
   2 C1       -6.0269     1.2087    -4.2154  C.2     1  <O>11       0.1676
   3 C2       -5.4450     1.6770    -2.9240  C.3     1  <O>11       0.0362
   4 C3       -6.1778     1.0587    -1.8012  C.ar    1  <O>11      -0.0322
   5 C4       -5.7310    -0.1667    -1.2993  C.ar    1  <O>11      -0.0576
   6 C5       -6.3928    -0.7516    -0.2242  C.ar    1  <O>11      -0.0609
   7 C6       -7.5147    -0.1254     0.3285  C.ar    1  <O>11      -0.0540
   8 C7       -7.9843     1.0971    -0.1798  C.ar    1  <O>11      -0.0176
   9 C8       -9.1125     1.7343     0.3606  C.ar    1  <O>11      -0.0540
  10 C9       -9.5597     2.9515    -0.1551  C.ar    1  <O>11      -0.0612
  11 C10      -8.8831     3.5496    -1.2152  C.ar    1  <O>11      -0.0612
  12 C11      -7.7591     2.9290    -1.7625  C.ar    1  <O>11      -0.0538
  13 C12      -7.3014     1.7012    -1.2577  C.ar    1  <O>11      -0.0143
  14 C13      -6.2460     2.1550    -5.3010  C.ar    1  <O>11       0.0234
  15 C14      -7.4368     2.1153    -6.0467  C.ar    1  <O>11      -0.0059
  16 C15      -7.6401     3.0169    -7.0973  C.ar    1  <O>11       0.1611
  17 O2       -8.7376     2.9683    -7.7810  O.3     1  <O>11      -0.5032
  18 C16      -6.6644     3.9678    -7.4090  C.ar    1  <O>11       0.1846
  19 O3       -6.8472     4.8039    -8.3795  O.3     1  <O>11      -0.5019
  20 C17      -5.4821     4.0106    -6.6609  C.ar    1  <O>11       0.1170
  21 N1       -4.4788     4.9916    -6.9865  N.4     1  <O>11      -0.2014
  22 O4       -4.5363     5.2891    -8.4036  O.3     1  <O>11      -0.2807
  23 F1       -3.1763     4.4737    -6.6568  F       1  <O>11      -0.0963
  24 C18      -5.2699     3.1166    -5.6115  C.ar    1  <O>11      -0.0215
  25 H1       -4.3945     1.3893    -2.8735  H       1  <O>11       0.0394
  26 H2       -5.5293     2.7619    -2.8588  H       1  <O>11       0.0394
  27 H3       -8.7233     3.6544    -8.4668  H       1  <O>11       0.2923
  28 H4       -6.0750     5.3867    -8.4548  H       1  <O>11       0.2924
  29 H5       -4.6517     5.8431    -6.4526  H       1  <O>11       0.2057
  30 H6       -4.9151    -0.6349    -1.7235  H       1  <O>11       0.0621
  31 H7       -6.0564    -1.6463     0.1649  H       1  <O>11       0.0618
  32 H8       -8.0048    -0.5681     1.1214  H       1  <O>11       0.0624
  33 H9       -9.6167     1.2977     1.1481  H       1  <O>11       0.0624
  34 H10     -10.3920     3.4084     0.2493  H       1  <O>11       0.0618
  35 H11      -9.2123     4.4506    -1.5956  H       1  <O>11       0.0618
  36 H12      -7.2593     3.3771    -2.5464  H       1  <O>11       0.0624
  37 H13      -8.1636     1.4190    -5.8187  H       1  <O>11       0.0662
  38 H14      -4.3719     4.4792    -8.9114  H       1  <O>11       0.2449
  39 H15      -4.3966     3.1615    -5.0635  H       1  <O>11       0.0647
@<TRIPOS>BOND
     1     1     2    2
     2     2     3    1
     3     3     4    1
     4     4     5   ar
     5     5     6   ar
     6     6     7   ar
     7     7     8   ar
     8     8     9   ar
     9     9    10   ar
    10    10    11   ar
    11    11    12   ar
    12    12    13   ar
    13     4    13   ar
    14     8    13   ar
    15     2    14    1
    16    14    15   ar
    17    15    16   ar
    18    16    17    1
    19    16    18   ar
    20    18    19    1
    21    18    20   ar
    22    20    21    1
    23    21    22    1
    24    21    23    1
    25    20    24   ar
    26    14    24   ar
    27     3    25    1
    28     3    26    1
    29    17    27    1
    30    19    28    1
    31    21    29    1
    32     5    30    1
    33     6    31    1
    34     7    32    1
    35     9    33    1
    36    10    34    1
    37    11    35    1
    38    12    36    1
    39    15    37    1
    40    22    38    1
    41    24    39    1
@<TRIPOS>MOLECULE
mol67_1_4
 39 41 0 0 0
SMALL
USER_CHARGES
****
VDW energy = 92.45
@<TRIPOS>ATOM
   1 O1       -6.3195     0.0314    -4.3629  O.2     1  <O>11      -0.2917
   2 C1       -6.0269     1.2087    -4.2154  C.2     1  <O>11       0.1676
   3 C2       -5.4450     1.6770    -2.9240  C.3     1  <O>11       0.0362
   4 C3       -6.1778     1.0587    -1.8012  C.ar    1  <O>11      -0.0322
   5 C4       -7.2927     1.7204    -1.2794  C.ar    1  <O>11      -0.0576
   6 C5       -8.0117     1.1404    -0.2389  C.ar    1  <O>11      -0.0609
   7 C6       -7.5994    -0.0845     0.2957  C.ar    1  <O>11      -0.0540
   8 C7       -6.4693    -0.7498    -0.2080  C.ar    1  <O>11      -0.0176
   9 C8       -6.0401    -1.9767     0.3224  C.ar    1  <O>11      -0.0540
  10 C9       -4.9179    -2.6244    -0.1960  C.ar    1  <O>11      -0.0612
  11 C10      -4.2123    -2.0563    -1.2537  C.ar    1  <O>11      -0.0612
  12 C11      -4.6273    -0.8376    -1.7926  C.ar    1  <O>11      -0.0538
  13 C12      -5.7510    -0.1717    -1.2771  C.ar    1  <O>11      -0.0143
  14 C13      -6.2460     2.1550    -5.3010  C.ar    1  <O>11       0.0234
  15 C14      -7.4368     2.1153    -6.0467  C.ar    1  <O>11      -0.0059
  16 C15      -7.6401     3.0169    -7.0973  C.ar    1  <O>11       0.1611
  17 O2       -8.7376     2.9683    -7.7810  O.3     1  <O>11      -0.5032
  18 C16      -6.6644     3.9678    -7.4090  C.ar    1  <O>11       0.1846
  19 O3       -6.8472     4.8039    -8.3795  O.3     1  <O>11      -0.5019
  20 C17      -5.4821     4.0106    -6.6609  C.ar    1  <O>11       0.1170
  21 N1       -4.4788     4.9916    -6.9865  N.4     1  <O>11      -0.2014
  22 O4       -4.5363     5.2891    -8.4036  O.3     1  <O>11      -0.2807
  23 F1       -3.1763     4.4737    -6.6568  F       1  <O>11      -0.0963
  24 C18      -5.2699     3.1166    -5.6115  C.ar    1  <O>11      -0.0215
  25 H1       -4.3945     1.3893    -2.8735  H       1  <O>11       0.0394
  26 H2       -5.5293     2.7619    -2.8588  H       1  <O>11       0.0394
  27 H3       -8.7233     3.6544    -8.4668  H       1  <O>11       0.2923
  28 H4       -6.0750     5.3867    -8.4548  H       1  <O>11       0.2924
  29 H5       -4.6517     5.8431    -6.4526  H       1  <O>11       0.2057
  30 H6       -7.5811     2.6338    -1.6636  H       1  <O>11       0.0621
  31 H7       -8.8480     1.6133     0.1379  H       1  <O>11       0.0618
  32 H8       -8.1334    -0.5059     1.0718  H       1  <O>11       0.0624
  33 H9       -6.5601    -2.4043     1.1044  H       1  <O>11       0.0624
  34 H10      -4.6109    -3.5246     0.2046  H       1  <O>11       0.0618
  35 H11      -3.3835    -2.5359    -1.6387  H       1  <O>11       0.0618
  36 H12      -4.1029    -0.4215    -2.5781  H       1  <O>11       0.0624
  37 H13      -8.1636     1.4190    -5.8187  H       1  <O>11       0.0662
  38 H14      -4.3719     4.4792    -8.9114  H       1  <O>11       0.2449
  39 H15      -4.3966     3.1615    -5.0635  H       1  <O>11       0.0647
@<TRIPOS>BOND
     1     1     2    2
     2     2     3    1
     3     3     4    1
     4     4     5   ar
     5     5     6   ar
     6     6     7   ar
     7     7     8   ar
     8     8     9   ar
     9     9    10   ar
    10    10    11   ar
    11    11    12   ar
    12    12    13   ar
    13     4    13   ar
    14     8    13   ar
    15     2    14    1
    16    14    15   ar
    17    15    16   ar
    18    16    17    1
    19    16    18   ar
    20    18    19    1
    21    18    20   ar
    22    20    21    1
    23    21    22    1
    24    21    23    1
    25    20    24   ar
    26    14    24   ar
    27     3    25    1
    28     3    26    1
    29    17    27    1
    30    19    28    1
    31    21    29    1
    32     5    30    1
    33     6    31    1
    34     7    32    1
    35     9    33    1
    36    10    34    1
    37    11    35    1
    38    12    36    1
    39    15    37    1
    40    22    38    1
    41    24    39    1
@<TRIPOS>MOLECULE
mol67_1_5
 39 41 0 0 0
SMALL
USER_CHARGES
****
VDW energy = 93.76
@<TRIPOS>ATOM
   1 O1       -6.3195     0.0314    -4.3629  O.2     1  <O>11      -0.2917
   2 C1       -6.0269     1.2087    -4.2154  C.2     1  <O>11       0.1676
   3 C2       -5.4450     1.6770    -2.9240  C.3     1  <O>11       0.0362
   4 C3       -6.1778     1.0587    -1.8012  C.ar    1  <O>11      -0.0322
   5 C4       -7.2927     1.7204    -1.2794  C.ar    1  <O>11      -0.0576
   6 C5       -8.0117     1.1404    -0.2389  C.ar    1  <O>11      -0.0609
   7 C6       -7.5994    -0.0845     0.2957  C.ar    1  <O>11      -0.0540
   8 C7       -6.4693    -0.7498    -0.2080  C.ar    1  <O>11      -0.0176
   9 C8       -6.0401    -1.9767     0.3224  C.ar    1  <O>11      -0.0540
  10 C9       -4.9179    -2.6244    -0.1960  C.ar    1  <O>11      -0.0612
  11 C10      -4.2123    -2.0563    -1.2537  C.ar    1  <O>11      -0.0612
  12 C11      -4.6273    -0.8376    -1.7926  C.ar    1  <O>11      -0.0538
  13 C12      -5.7510    -0.1717    -1.2771  C.ar    1  <O>11      -0.0143
  14 C13      -6.2460     2.1550    -5.3010  C.ar    1  <O>11       0.0234
  15 C14      -5.1658     2.8683    -5.8487  C.ar    1  <O>11      -0.0059
  16 C15      -5.3800     3.7861    -6.8829  C.ar    1  <O>11       0.1611
  17 O2       -4.3794     4.4416    -7.3763  O.3     1  <O>11      -0.5032
  18 C16      -6.6678     3.9960    -7.3838  C.ar    1  <O>11       0.1846
  19 O3       -6.8716     4.8435    -8.3401  O.3     1  <O>11      -0.5019
  20 C17      -7.7414     3.2796    -6.8421  C.ar    1  <O>11       0.1170
  21 N1       -9.0671     3.5000    -7.3607  N.4     1  <O>11      -0.2014
  22 O4       -9.0934     3.1754    -8.7727  O.3     1  <O>11      -0.2807
  23 F1       -9.4304     4.8814    -7.1784  F       1  <O>11      -0.0963
  24 C18      -7.5385     2.3622    -5.8113  C.ar    1  <O>11      -0.0215
  25 H1       -4.3945     1.3893    -2.8735  H       1  <O>11       0.0394
  26 H2       -5.5293     2.7619    -2.8588  H       1  <O>11       0.0394
  27 H3       -4.6932     5.0318    -8.0795  H       1  <O>11       0.2923
  28 H4       -7.8163     4.8619    -8.5608  H       1  <O>11       0.2924
  29 H5       -9.7291     2.9054    -6.8623  H       1  <O>11       0.2057
  30 H6       -7.5811     2.6338    -1.6636  H       1  <O>11       0.0621
  31 H7       -8.8480     1.6133     0.1379  H       1  <O>11       0.0618
  32 H8       -8.1334    -0.5059     1.0718  H       1  <O>11       0.0624
  33 H9       -6.5601    -2.4043     1.1044  H       1  <O>11       0.0624
  34 H10      -4.6109    -3.5246     0.2046  H       1  <O>11       0.0618
  35 H11      -3.3835    -2.5359    -1.6387  H       1  <O>11       0.0618
  36 H12      -4.1029    -0.4215    -2.5781  H       1  <O>11       0.0624
  37 H13      -4.2115     2.7146    -5.4869  H       1  <O>11       0.0662
  38 H14      -8.4639     3.7409    -9.2468  H       1  <O>11       0.2449
  39 H15      -8.3372     1.8359    -5.4237  H       1  <O>11       0.0647
@<TRIPOS>BOND
     1     1     2    2
     2     2     3    1
     3     3     4    1
     4     4     5   ar
     5     5     6   ar
     6     6     7   ar
     7     7     8   ar
     8     8     9   ar
     9     9    10   ar
    10    10    11   ar
    11    11    12   ar
    12    12    13   ar
    13     4    13   ar
    14     8    13   ar
    15     2    14    1
    16    14    15   ar
    17    15    16   ar
    18    16    17    1
    19    16    18   ar
    20    18    19    1
    21    18    20   ar
    22    20    21    1
    23    21    22    1
    24    21    23    1
    25    20    24   ar
    26    14    24   ar
    27     3    25    1
    28     3    26    1
    29    17    27    1
    30    19    28    1
    31    21    29    1
    32     5    30    1
    33     6    31    1
    34     7    32    1
    35     9    33    1
    36    10    34    1
    37    11    35    1
    38    12    36    1
    39    15    37    1
    40    22    38    1
    41    24    39    1
@<TRIPOS>MOLECULE
mol67_1_6
 39 41 0 0 0
SMALL
USER_CHARGES
****
VDW energy = 94.10
@<TRIPOS>ATOM
   1 O1       -6.3195     0.0314    -4.3629  O.2     1  <O>11      -0.2917
   2 C1       -6.0269     1.2087    -4.2154  C.2     1  <O>11       0.1676
   3 C2       -5.4450     1.6770    -2.9240  C.3     1  <O>11       0.0362
   4 C3       -6.1778     1.0587    -1.8012  C.ar    1  <O>11      -0.0322
   5 C4       -7.2927     1.7204    -1.2794  C.ar    1  <O>11      -0.0576
   6 C5       -8.0117     1.1404    -0.2389  C.ar    1  <O>11      -0.0609
   7 C6       -7.5994    -0.0845     0.2957  C.ar    1  <O>11      -0.0540
   8 C7       -6.4693    -0.7498    -0.2080  C.ar    1  <O>11      -0.0176
   9 C8       -6.0401    -1.9767     0.3224  C.ar    1  <O>11      -0.0540
  10 C9       -4.9179    -2.6244    -0.1960  C.ar    1  <O>11      -0.0612
  11 C10      -4.2123    -2.0563    -1.2537  C.ar    1  <O>11      -0.0612
  12 C11      -4.6273    -0.8376    -1.7926  C.ar    1  <O>11      -0.0538
  13 C12      -5.7510    -0.1717    -1.2771  C.ar    1  <O>11      -0.0143
  14 C13      -6.2460     2.1550    -5.3010  C.ar    1  <O>11       0.0234
  15 C14      -5.2369     2.3908    -6.2507  C.ar    1  <O>11      -0.0059
  16 C15      -5.4445     3.3094    -7.2854  C.ar    1  <O>11       0.1611
  17 O2       -4.5070     3.5231    -8.1512  O.3     1  <O>11      -0.5032
  18 C16      -6.6584     3.9945    -7.3869  C.ar    1  <O>11       0.1846
  19 O3       -6.8558     4.8452    -8.3418  O.3     1  <O>11      -0.5019
  20 C17      -7.6650     3.7534    -6.4445  C.ar    1  <O>11       0.1170
  21 N1       -8.9141     4.4627    -6.5524  N.4     1  <O>11      -0.2014
  22 O4       -9.5335     4.1588    -7.8267  O.3     1  <O>11      -0.2807
  23 F1       -8.6712     5.8791    -6.4619  F       1  <O>11      -0.0963
  24 C18      -7.4682     2.8394    -5.4095  C.ar    1  <O>11      -0.0215
  25 H1       -4.3945     1.3893    -2.8735  H       1  <O>11       0.0394
  26 H2       -5.5293     2.7619    -2.8588  H       1  <O>11       0.0394
  27 H3       -4.8064     4.1814    -8.7980  H       1  <O>11       0.2923
  28 H4       -7.7452     5.2243    -8.2593  H       1  <O>11       0.2924
  29 H5       -9.5338     4.1746    -5.7954  H       1  <O>11       0.2057
  30 H6       -7.5811     2.6338    -1.6636  H       1  <O>11       0.0621
  31 H7       -8.8480     1.6133     0.1379  H       1  <O>11       0.0618
  32 H8       -8.1334    -0.5059     1.0718  H       1  <O>11       0.0624
  33 H9       -6.5601    -2.4043     1.1044  H       1  <O>11       0.0624
  34 H10      -4.6109    -3.5246     0.2046  H       1  <O>11       0.0618
  35 H11      -3.3835    -2.5359    -1.6387  H       1  <O>11       0.0618
  36 H12      -4.1029    -0.4215    -2.5781  H       1  <O>11       0.0624
  37 H13      -4.3399     1.8846    -6.1845  H       1  <O>11       0.0662
  38 H14      -8.9441     4.4328    -8.5468  H       1  <O>11       0.2449
  39 H15      -8.2197     2.6660    -4.7239  H       1  <O>11       0.0647
@<TRIPOS>BOND
     1     1     2    2
     2     2     3    1
     3     3     4    1
     4     4     5   ar
     5     5     6   ar
     6     6     7   ar
     7     7     8   ar
     8     8     9   ar
     9     9    10   ar
    10    10    11   ar
    11    11    12   ar
    12    12    13   ar
    13     4    13   ar
    14     8    13   ar
    15     2    14    1
    16    14    15   ar
    17    15    16   ar
    18    16    17    1
    19    16    18   ar
    20    18    19    1
    21    18    20   ar
    22    20    21    1
    23    21    22    1
    24    21    23    1
    25    20    24   ar
    26    14    24   ar
    27     3    25    1
    28     3    26    1
    29    17    27    1
    30    19    28    1
    31    21    29    1
    32     5    30    1
    33     6    31    1
    34     7    32    1
    35     9    33    1
    36    10    34    1
    37    11    35    1
    38    12    36    1
    39    15    37    1
    40    22    38    1
    41    24    39    1
@<TRIPOS>MOLECULE
mol67_1_7
 39 41 0 0 0
SMALL
USER_CHARGES
****
VDW energy = 94.33
@<TRIPOS>ATOM
   1 O1       -6.3195     0.0314    -4.3629  O.2     1  <O>11      -0.2917
   2 C1       -6.0269     1.2087    -4.2154  C.2     1  <O>11       0.1676
   3 C2       -5.4450     1.6770    -2.9240  C.3     1  <O>11       0.0362
   4 C3       -6.1778     1.0587    -1.8012  C.ar    1  <O>11      -0.0322
   5 C4       -7.4574     0.5469    -2.0331  C.ar    1  <O>11      -0.0576
   6 C5       -8.1526    -0.0632    -0.9936  C.ar    1  <O>11      -0.0609
   7 C6       -7.5797    -0.1359     0.2803  C.ar    1  <O>11      -0.0540
   8 C7       -6.3019     0.3918     0.5299  C.ar    1  <O>11      -0.0176
   9 C8       -5.7168     0.3316     1.8045  C.ar    1  <O>11      -0.0540
  10 C9       -4.4437     0.8568     2.0305  C.ar    1  <O>11      -0.0612
  11 C10      -3.7374     1.4456     0.9847  C.ar    1  <O>11      -0.0612
  12 C11      -4.3052     1.5121    -0.2885  C.ar    1  <O>11      -0.0538
  13 C12      -5.5878     0.9932    -0.5291  C.ar    1  <O>11      -0.0143
  14 C13      -6.2460     2.1550    -5.3010  C.ar    1  <O>11       0.0234
  15 C14      -5.1658     2.8683    -5.8487  C.ar    1  <O>11      -0.0059
  16 C15      -5.3800     3.7861    -6.8829  C.ar    1  <O>11       0.1611
  17 O2       -4.3794     4.4416    -7.3763  O.3     1  <O>11      -0.5032
  18 C16      -6.6678     3.9960    -7.3838  C.ar    1  <O>11       0.1846
  19 O3       -6.8716     4.8435    -8.3401  O.3     1  <O>11      -0.5019
  20 C17      -7.7414     3.2796    -6.8421  C.ar    1  <O>11       0.1170
  21 N1       -9.0671     3.5000    -7.3607  N.4     1  <O>11      -0.2014
  22 O4       -9.1787     4.8639    -7.8373  O.3     1  <O>11      -0.2807
  23 F1      -10.0342     3.2749    -6.3178  F       1  <O>11      -0.0963
  24 C18      -7.5385     2.3622    -5.8113  C.ar    1  <O>11      -0.0215
  25 H1       -4.3945     1.3893    -2.8735  H       1  <O>11       0.0394
  26 H2       -5.5293     2.7619    -2.8588  H       1  <O>11       0.0394
  27 H3       -4.6932     5.0318    -8.0795  H       1  <O>11       0.2923
  28 H4       -7.8163     4.8619    -8.5608  H       1  <O>11       0.2924
  29 H5       -9.2411     2.8549    -8.1312  H       1  <O>11       0.2057
  30 H6       -7.8842     0.6211    -2.9697  H       1  <O>11       0.0621
  31 H7       -9.0895    -0.4615    -1.1623  H       1  <O>11       0.0618
  32 H8       -8.1036    -0.5838     1.0483  H       1  <O>11       0.0624
  33 H9       -6.2338    -0.1059     2.5831  H       1  <O>11       0.0624
  34 H10      -4.0257     0.8088     2.9728  H       1  <O>11       0.0618
  35 H11      -2.7951     1.8325     1.1509  H       1  <O>11       0.0618
  36 H12      -3.7772     1.9471    -1.0612  H       1  <O>11       0.0624
  37 H13      -4.2115     2.7146    -5.4869  H       1  <O>11       0.0662
  38 H14      -9.0132     5.4775    -7.1045  H       1  <O>11       0.2449
  39 H15      -8.3372     1.8359    -5.4237  H       1  <O>11       0.0647
@<TRIPOS>BOND
     1     1     2    2
     2     2     3    1
     3     3     4    1
     4     4     5   ar
     5     5     6   ar
     6     6     7   ar
     7     7     8   ar
     8     8     9   ar
     9     9    10   ar
    10    10    11   ar
    11    11    12   ar
    12    12    13   ar
    13     4    13   ar
    14     8    13   ar
    15     2    14    1
    16    14    15   ar
    17    15    16   ar
    18    16    17    1
    19    16    18   ar
    20    18    19    1
    21    18    20   ar
    22    20    21    1
    23    21    22    1
    24    21    23    1
    25    20    24   ar
    26    14    24   ar
    27     3    25    1
    28     3    26    1
    29    17    27    1
    30    19    28    1
    31    21    29    1
    32     5    30    1
    33     6    31    1
    34     7    32    1
    35     9    33    1
    36    10    34    1
    37    11    35    1
    38    12    36    1
    39    15    37    1
    40    22    38    1
    41    24    39    1
@<TRIPOS>MOLECULE
mol67_1_8
 39 41 0 0 0
SMALL
USER_CHARGES
****
VDW energy = 94.47
@<TRIPOS>ATOM
   1 O1       -6.3195     0.0314    -4.3629  O.2     1  <O>11      -0.2917
   2 C1       -6.0269     1.2087    -4.2154  C.2     1  <O>11       0.1676
   3 C2       -5.4450     1.6770    -2.9240  C.3     1  <O>11       0.0362
   4 C3       -6.1778     1.0587    -1.8012  C.ar    1  <O>11      -0.0322
   5 C4       -5.4748     0.2542    -0.9003  C.ar    1  <O>11      -0.0576
   6 C5       -6.1431    -0.3153     0.1791  C.ar    1  <O>11      -0.0609
   7 C6       -7.5160    -0.1025     0.3402  C.ar    1  <O>11      -0.0540
   8 C7       -8.2369     0.6889    -0.5694  C.ar    1  <O>11      -0.0176
   9 C8       -9.6162     0.9063    -0.4240  C.ar    1  <O>11      -0.0540
  10 C9      -10.3131     1.7006    -1.3356  C.ar    1  <O>11      -0.0612
  11 C10      -9.6400     2.2909    -2.4023  C.ar    1  <O>11      -0.0612
  12 C11      -8.2686     2.0850    -2.5598  C.ar    1  <O>11      -0.0538
  13 C12      -7.5556     1.2834    -1.6537  C.ar    1  <O>11      -0.0143
  14 C13      -6.2460     2.1550    -5.3010  C.ar    1  <O>11       0.0234
  15 C14      -7.4368     2.1153    -6.0467  C.ar    1  <O>11      -0.0059
  16 C15      -7.6401     3.0169    -7.0973  C.ar    1  <O>11       0.1611
  17 O2       -8.7376     2.9683    -7.7810  O.3     1  <O>11      -0.5032
  18 C16      -6.6644     3.9678    -7.4090  C.ar    1  <O>11       0.1846
  19 O3       -6.8472     4.8039    -8.3795  O.3     1  <O>11      -0.5019
  20 C17      -5.4821     4.0106    -6.6609  C.ar    1  <O>11       0.1170
  21 N1       -4.4788     4.9916    -6.9865  N.4     1  <O>11      -0.2014
  22 O4       -4.5363     5.2891    -8.4036  O.3     1  <O>11      -0.2807
  23 F1       -3.1763     4.4737    -6.6568  F       1  <O>11      -0.0963
  24 C18      -5.2699     3.1166    -5.6115  C.ar    1  <O>11      -0.0215
  25 H1       -4.3945     1.3893    -2.8735  H       1  <O>11       0.0394
  26 H2       -5.5293     2.7619    -2.8588  H       1  <O>11       0.0394
  27 H3       -8.7233     3.6544    -8.4668  H       1  <O>11       0.2923
  28 H4       -6.0750     5.3867    -8.4548  H       1  <O>11       0.2924
  29 H5       -4.6517     5.8431    -6.4526  H       1  <O>11       0.2057
  30 H6       -4.4659     0.0835    -1.0348  H       1  <O>11       0.0621
  31 H7       -5.6265    -0.8939     0.8598  H       1  <O>11       0.0618
  32 H8       -8.0068    -0.5333     1.1393  H       1  <O>11       0.0624
  33 H9      -10.1203     0.4740     0.3658  H       1  <O>11       0.0624
  34 H10     -11.3275     1.8505    -1.2192  H       1  <O>11       0.0618
  35 H11     -10.1546     2.8798    -3.0756  H       1  <O>11       0.0618
  36 H12      -7.7734     2.5265    -3.3503  H       1  <O>11       0.0624
  37 H13      -8.1636     1.4190    -5.8187  H       1  <O>11       0.0662
  38 H14      -4.3719     4.4792    -8.9114  H       1  <O>11       0.2449
  39 H15      -4.3966     3.1615    -5.0635  H       1  <O>11       0.0647
@<TRIPOS>BOND
     1     1     2    2
     2     2     3    1
     3     3     4    1
     4     4     5   ar
     5     5     6   ar
     6     6     7   ar
     7     7     8   ar
     8     8     9   ar
     9     9    10   ar
    10    10    11   ar
    11    11    12   ar
    12    12    13   ar
    13     4    13   ar
    14     8    13   ar
    15     2    14    1
    16    14    15   ar
    17    15    16   ar
    18    16    17    1
    19    16    18   ar
    20    18    19    1
    21    18    20   ar
    22    20    21    1
    23    21    22    1
    24    21    23    1
    25    20    24   ar
    26    14    24   ar
    27     3    25    1
    28     3    26    1
    29    17    27    1
    30    19    28    1
    31    21    29    1
    32     5    30    1
    33     6    31    1
    34     7    32    1
    35     9    33    1
    36    10    34    1
    37    11    35    1
    38    12    36    1
    39    15    37    1
    40    22    38    1
    41    24    39    1
@<TRIPOS>MOLECULE
mol67_1_9
 39 41 0 0 0
SMALL
USER_CHARGES
****
VDW energy = 95.36
@<TRIPOS>ATOM
   1 O1       -6.3195     0.0314    -4.3629  O.2     1  <O>11      -0.2917
   2 C1       -6.0269     1.2087    -4.2154  C.2     1  <O>11       0.1676
   3 C2       -5.4450     1.6770    -2.9240  C.3     1  <O>11       0.0362
   4 C3       -6.1778     1.0587    -1.8012  C.ar    1  <O>11      -0.0322
   5 C4       -7.4574     0.5469    -2.0331  C.ar    1  <O>11      -0.0576
   6 C5       -8.1526    -0.0632    -0.9936  C.ar    1  <O>11      -0.0609
   7 C6       -7.5797    -0.1359     0.2803  C.ar    1  <O>11      -0.0540
   8 C7       -6.3019     0.3918     0.5299  C.ar    1  <O>11      -0.0176
   9 C8       -5.7168     0.3316     1.8045  C.ar    1  <O>11      -0.0540
  10 C9       -4.4437     0.8568     2.0305  C.ar    1  <O>11      -0.0612
  11 C10      -3.7374     1.4456     0.9847  C.ar    1  <O>11      -0.0612
  12 C11      -4.3052     1.5121    -0.2885  C.ar    1  <O>11      -0.0538
  13 C12      -5.5878     0.9932    -0.5291  C.ar    1  <O>11      -0.0143
  14 C13      -6.2460     2.1550    -5.3010  C.ar    1  <O>11       0.0234
  15 C14      -7.0983     3.2578    -5.1192  C.ar    1  <O>11      -0.0059
  16 C15      -7.3174     4.1587    -6.1671  C.ar    1  <O>11       0.1611
  17 O2       -8.1082     5.1676    -5.9909  O.3     1  <O>11      -0.5032
  18 C16      -6.6858     3.9732    -7.4000  C.ar    1  <O>11       0.1846
  19 O3       -6.8849     4.8032    -8.3725  O.3     1  <O>11      -0.5019
  20 C17      -5.8318     2.8784    -7.5772  C.ar    1  <O>11       0.1170
  21 N1       -5.1839     2.6906    -8.8500  N.4     1  <O>11      -0.2014
  22 O4       -4.1830     3.7213    -9.0392  O.3     1  <O>11      -0.2807
  23 F1       -6.1623     2.7719    -9.9033  F       1  <O>11      -0.0963
  24 C18      -5.6064     1.9748    -6.5389  C.ar    1  <O>11      -0.0215
  25 H1       -4.3945     1.3893    -2.8735  H       1  <O>11       0.0394
  26 H2       -5.5293     2.7619    -2.8588  H       1  <O>11       0.0394
  27 H3       -8.1520     5.6918    -6.8061  H       1  <O>11       0.2923
  28 H4       -6.3721     4.5235    -9.1473  H       1  <O>11       0.2924
  29 H5       -4.7369     1.7741    -8.8706  H       1  <O>11       0.2057
  30 H6       -7.8842     0.6211    -2.9697  H       1  <O>11       0.0621
  31 H7       -9.0895    -0.4615    -1.1623  H       1  <O>11       0.0618
  32 H8       -8.1036    -0.5838     1.0483  H       1  <O>11       0.0624
  33 H9       -6.2338    -0.1059     2.5831  H       1  <O>11       0.0624
  34 H10      -4.0257     0.8088     2.9728  H       1  <O>11       0.0618
  35 H11      -2.7951     1.8325     1.1509  H       1  <O>11       0.0618
  36 H12      -3.7772     1.9471    -1.0612  H       1  <O>11       0.0624
  37 H13      -7.5640     3.4035    -4.2098  H       1  <O>11       0.0662
  38 H14      -4.6081     4.5929    -9.0195  H       1  <O>11       0.2449
  39 H15      -4.9703     1.1745    -6.6798  H       1  <O>11       0.0647
@<TRIPOS>BOND
     1     1     2    2
     2     2     3    1
     3     3     4    1
     4     4     5   ar
     5     5     6   ar
     6     6     7   ar
     7     7     8   ar
     8     8     9   ar
     9     9    10   ar
    10    10    11   ar
    11    11    12   ar
    12    12    13   ar
    13     4    13   ar
    14     8    13   ar
    15     2    14    1
    16    14    15   ar
    17    15    16   ar
    18    16    17    1
    19    16    18   ar
    20    18    19    1
    21    18    20   ar
    22    20    21    1
    23    21    22    1
    24    21    23    1
    25    20    24   ar
    26    14    24   ar
    27     3    25    1
    28     3    26    1
    29    17    27    1
    30    19    28    1
    31    21    29    1
    32     5    30    1
    33     6    31    1
    34     7    32    1
    35     9    33    1
    36    10    34    1
    37    11    35    1
    38    12    36    1
    39    15    37    1
    40    22    38    1
    41    24    39    1
@<TRIPOS>MOLECULE
mol67_1_10
 39 41 0 0 0
SMALL
USER_CHARGES
****
VDW energy = 95.62
@<TRIPOS>ATOM
   1 O1       -6.3195     0.0314    -4.3629  O.2     1  <O>11      -0.2917
   2 C1       -6.0269     1.2087    -4.2154  C.2     1  <O>11       0.1676
   3 C2       -5.4450     1.6770    -2.9240  C.3     1  <O>11       0.0362
   4 C3       -6.1778     1.0587    -1.8012  C.ar    1  <O>11      -0.0322
   5 C4       -5.7310    -0.1667    -1.2993  C.ar    1  <O>11      -0.0576
   6 C5       -6.3928    -0.7516    -0.2242  C.ar    1  <O>11      -0.0609
   7 C6       -7.5147    -0.1254     0.3285  C.ar    1  <O>11      -0.0540
   8 C7       -7.9843     1.0971    -0.1798  C.ar    1  <O>11      -0.0176
   9 C8       -9.1125     1.7343     0.3606  C.ar    1  <O>11      -0.0540
  10 C9       -9.5597     2.9515    -0.1551  C.ar    1  <O>11      -0.0612
  11 C10      -8.8831     3.5496    -1.2152  C.ar    1  <O>11      -0.0612
  12 C11      -7.7591     2.9290    -1.7625  C.ar    1  <O>11      -0.0538
  13 C12      -7.3014     1.7012    -1.2577  C.ar    1  <O>11      -0.0143
  14 C13      -6.2460     2.1550    -5.3010  C.ar    1  <O>11       0.0234
  15 C14      -7.0983     3.2578    -5.1192  C.ar    1  <O>11      -0.0059
  16 C15      -7.3174     4.1587    -6.1671  C.ar    1  <O>11       0.1611
  17 O2       -8.1082     5.1676    -5.9909  O.3     1  <O>11      -0.5032
  18 C16      -6.6858     3.9732    -7.4000  C.ar    1  <O>11       0.1846
  19 O3       -6.8849     4.8032    -8.3725  O.3     1  <O>11      -0.5019
  20 C17      -5.8318     2.8784    -7.5772  C.ar    1  <O>11       0.1170
  21 N1       -5.1839     2.6906    -8.8500  N.4     1  <O>11      -0.2014
  22 O4       -6.0241     3.2245    -9.9030  O.3     1  <O>11      -0.2807
  23 F1       -4.9663     1.2851    -9.0751  F       1  <O>11      -0.0963
  24 C18      -5.6064     1.9748    -6.5389  C.ar    1  <O>11      -0.0215
  25 H1       -4.3945     1.3893    -2.8735  H       1  <O>11       0.0394
  26 H2       -5.5293     2.7619    -2.8588  H       1  <O>11       0.0394
  27 H3       -8.1520     5.6918    -6.8061  H       1  <O>11       0.2923
  28 H4       -6.3721     4.5235    -9.1473  H       1  <O>11       0.2924
  29 H5       -4.2880     3.1779    -8.8493  H       1  <O>11       0.2057
  30 H6       -4.9151    -0.6349    -1.7235  H       1  <O>11       0.0621
  31 H7       -6.0564    -1.6463     0.1649  H       1  <O>11       0.0618
  32 H8       -8.0048    -0.5681     1.1214  H       1  <O>11       0.0624
  33 H9       -9.6167     1.2977     1.1481  H       1  <O>11       0.0624
  34 H10     -10.3920     3.4084     0.2493  H       1  <O>11       0.0618
  35 H11      -9.2123     4.4506    -1.5956  H       1  <O>11       0.0618
  36 H12      -7.2593     3.3771    -2.5464  H       1  <O>11       0.0624
  37 H13      -7.5640     3.4035    -4.2098  H       1  <O>11       0.0662
  38 H14      -6.8762     2.7611    -9.9037  H       1  <O>11       0.2449
  39 H15      -4.9703     1.1745    -6.6798  H       1  <O>11       0.0647
@<TRIPOS>BOND
     1     1     2    2
     2     2     3    1
     3     3     4    1
     4     4     5   ar
     5     5     6   ar
     6     6     7   ar
     7     7     8   ar
     8     8     9   ar
     9     9    10   ar
    10    10    11   ar
    11    11    12   ar
    12    12    13   ar
    13     4    13   ar
    14     8    13   ar
    15     2    14    1
    16    14    15   ar
    17    15    16   ar
    18    16    17    1
    19    16    18   ar
    20    18    19    1
    21    18    20   ar
    22    20    21    1
    23    21    22    1
    24    21    23    1
    25    20    24   ar
    26    14    24   ar
    27     3    25    1
    28     3    26    1
    29    17    27    1
    30    19    28    1
    31    21    29    1
    32     5    30    1
    33     6    31    1
    34     7    32    1
    35     9    33    1
    36    10    34    1
    37    11    35    1
    38    12    36    1
    39    15    37    1
    40    22    38    1
    41    24    39    1
@<TRIPOS>MOLECULE
mol67_1_11
 39 41 0 0 0
SMALL
USER_CHARGES
****
VDW energy = 96.95
@<TRIPOS>ATOM
   1 O1       -6.3195     0.0314    -4.3629  O.2     1  <O>11      -0.2917
   2 C1       -6.0269     1.2087    -4.2154  C.2     1  <O>11       0.1676
   3 C2       -5.4450     1.6770    -2.9240  C.3     1  <O>11       0.0362
   4 C3       -6.1778     1.0587    -1.8012  C.ar    1  <O>11      -0.0322
   5 C4       -7.4574     0.5469    -2.0331  C.ar    1  <O>11      -0.0576
   6 C5       -8.1526    -0.0632    -0.9936  C.ar    1  <O>11      -0.0609
   7 C6       -7.5797    -0.1359     0.2803  C.ar    1  <O>11      -0.0540
   8 C7       -6.3019     0.3918     0.5299  C.ar    1  <O>11      -0.0176
   9 C8       -5.7168     0.3316     1.8045  C.ar    1  <O>11      -0.0540
  10 C9       -4.4437     0.8568     2.0305  C.ar    1  <O>11      -0.0612
  11 C10      -3.7374     1.4456     0.9847  C.ar    1  <O>11      -0.0612
  12 C11      -4.3052     1.5121    -0.2885  C.ar    1  <O>11      -0.0538
  13 C12      -5.5878     0.9932    -0.5291  C.ar    1  <O>11      -0.0143
  14 C13      -6.2460     2.1550    -5.3010  C.ar    1  <O>11       0.0234
  15 C14      -7.4684     2.8405    -5.4082  C.ar    1  <O>11      -0.0059
  16 C15      -7.6817     3.7396    -6.4589  C.ar    1  <O>11       0.1611
  17 O2       -8.8126     4.3614    -6.5515  O.3     1  <O>11      -0.5032
  18 C16      -6.6793     3.9682    -7.4056  C.ar    1  <O>11       0.1846
  19 O3       -6.8711     4.7987    -8.3792  O.3     1  <O>11      -0.5019
  20 C17      -5.4599     3.2901    -7.2934  C.ar    1  <O>11       0.1170
  21 N1       -4.4301     3.5280    -8.2721  N.4     1  <O>11      -0.2014
  22 O4       -5.0400     3.8660    -9.5424  O.3     1  <O>11      -0.2807
  23 F1       -3.6292     2.3411    -8.4244  F       1  <O>11      -0.0963
  24 C18      -5.2372     2.3921    -6.2496  C.ar    1  <O>11      -0.0215
  25 H1       -4.3945     1.3893    -2.8735  H       1  <O>11       0.0394
  26 H2       -5.5293     2.7619    -2.8588  H       1  <O>11       0.0394
  27 H3       -8.8004     4.9435    -7.3276  H       1  <O>11       0.2923
  28 H4       -6.0776     4.8335    -8.9365  H       1  <O>11       0.2924
  29 H5       -3.8397     4.2996    -7.9620  H       1  <O>11       0.2057
  30 H6       -7.8842     0.6211    -2.9697  H       1  <O>11       0.0621
  31 H7       -9.0895    -0.4615    -1.1623  H       1  <O>11       0.0618
  32 H8       -8.1036    -0.5838     1.0483  H       1  <O>11       0.0624
  33 H9       -6.2338    -0.1059     2.5831  H       1  <O>11       0.0624
  34 H10      -4.0257     0.8088     2.9728  H       1  <O>11       0.0618
  35 H11      -2.7951     1.8325     1.1509  H       1  <O>11       0.0618
  36 H12      -3.7772     1.9471    -1.0612  H       1  <O>11       0.0624
  37 H13      -8.2111     2.6801    -4.7097  H       1  <O>11       0.0662
  38 H14      -5.6016     3.1322    -9.8374  H       1  <O>11       0.2449
  39 H15      -4.3320     1.9022    -6.1743  H       1  <O>11       0.0647
@<TRIPOS>BOND
     1     1     2    2
     2     2     3    1
     3     3     4    1
     4     4     5   ar
     5     5     6   ar
     6     6     7   ar
     7     7     8   ar
     8     8     9   ar
     9     9    10   ar
    10    10    11   ar
    11    11    12   ar
    12    12    13   ar
    13     4    13   ar
    14     8    13   ar
    15     2    14    1
    16    14    15   ar
    17    15    16   ar
    18    16    17    1
    19    16    18   ar
    20    18    19    1
    21    18    20   ar
    22    20    21    1
    23    21    22    1
    24    21    23    1
    25    20    24   ar
    26    14    24   ar
    27     3    25    1
    28     3    26    1
    29    17    27    1
    30    19    28    1
    31    21    29    1
    32     5    30    1
    33     6    31    1
    34     7    32    1
    35     9    33    1
    36    10    34    1
    37    11    35    1
    38    12    36    1
    39    15    37    1
    40    22    38    1
    41    24    39    1
@<TRIPOS>MOLECULE
mol67_1_12
 39 41 0 0 0
SMALL
USER_CHARGES
****
VDW energy = 99.82
@<TRIPOS>ATOM
   1 O1       -6.3195     0.0314    -4.3629  O.2     1  <O>11      -0.2917
   2 C1       -6.0269     1.2087    -4.2154  C.2     1  <O>11       0.1676
   3 C2       -5.4450     1.6770    -2.9240  C.3     1  <O>11       0.0362
   4 C3       -6.1778     1.0587    -1.8012  C.ar    1  <O>11      -0.0322
   5 C4       -7.4574     0.5469    -2.0331  C.ar    1  <O>11      -0.0576
   6 C5       -8.1526    -0.0632    -0.9936  C.ar    1  <O>11      -0.0609
   7 C6       -7.5797    -0.1359     0.2803  C.ar    1  <O>11      -0.0540
   8 C7       -6.3019     0.3918     0.5299  C.ar    1  <O>11      -0.0176
   9 C8       -5.7168     0.3316     1.8045  C.ar    1  <O>11      -0.0540
  10 C9       -4.4437     0.8568     2.0305  C.ar    1  <O>11      -0.0612
  11 C10      -3.7374     1.4456     0.9847  C.ar    1  <O>11      -0.0612
  12 C11      -4.3052     1.5121    -0.2885  C.ar    1  <O>11      -0.0538
  13 C12      -5.5878     0.9932    -0.5291  C.ar    1  <O>11      -0.0143
  14 C13      -6.2460     2.1550    -5.3010  C.ar    1  <O>11       0.0234
  15 C14      -7.4368     2.1153    -6.0467  C.ar    1  <O>11      -0.0059
  16 C15      -7.6401     3.0169    -7.0973  C.ar    1  <O>11       0.1611
  17 O2       -8.7376     2.9683    -7.7810  O.3     1  <O>11      -0.5032
  18 C16      -6.6644     3.9678    -7.4090  C.ar    1  <O>11       0.1846
  19 O3       -6.8472     4.8039    -8.3795  O.3     1  <O>11      -0.5019
  20 C17      -5.4821     4.0106    -6.6609  C.ar    1  <O>11       0.1170
  21 N1       -4.4788     4.9916    -6.9865  N.4     1  <O>11      -0.2014
  22 O4       -4.9581     6.3107    -6.6256  O.3     1  <O>11      -0.2807
  23 F1       -4.2070     4.9493    -8.4000  F       1  <O>11      -0.0963
  24 C18      -5.2699     3.1166    -5.6115  C.ar    1  <O>11      -0.0215
  25 H1       -4.3945     1.3893    -2.8735  H       1  <O>11       0.0394
  26 H2       -5.5293     2.7619    -2.8588  H       1  <O>11       0.0394
  27 H3       -8.7233     3.6544    -8.4668  H       1  <O>11       0.2923
  28 H4       -6.0750     5.3867    -8.4548  H       1  <O>11       0.2924
  29 H5       -3.6241     4.7866    -6.4693  H       1  <O>11       0.2057
  30 H6       -7.8842     0.6211    -2.9697  H       1  <O>11       0.0621
  31 H7       -9.0895    -0.4615    -1.1623  H       1  <O>11       0.0618
  32 H8       -8.1036    -0.5838     1.0483  H       1  <O>11       0.0624
  33 H9       -6.2338    -0.1059     2.5831  H       1  <O>11       0.0624
  34 H10      -4.0257     0.8088     2.9728  H       1  <O>11       0.0618
  35 H11      -2.7951     1.8325     1.1509  H       1  <O>11       0.0618
  36 H12      -3.7772     1.9471    -1.0612  H       1  <O>11       0.0624
  37 H13      -8.1636     1.4190    -5.8187  H       1  <O>11       0.0662
  38 H14      -5.7710     6.5057    -7.1176  H       1  <O>11       0.2449
  39 H15      -4.3966     3.1615    -5.0635  H       1  <O>11       0.0647
@<TRIPOS>BOND
     1     1     2    2
     2     2     3    1
     3     3     4    1
     4     4     5   ar
     5     5     6   ar
     6     6     7   ar
     7     7     8   ar
     8     8     9   ar
     9     9    10   ar
    10    10    11   ar
    11    11    12   ar
    12    12    13   ar
    13     4    13   ar
    14     8    13   ar
    15     2    14    1
    16    14    15   ar
    17    15    16   ar
    18    16    17    1
    19    16    18   ar
    20    18    19    1
    21    18    20   ar
    22    20    21    1
    23    21    22    1
    24    21    23    1
    25    20    24   ar
    26    14    24   ar
    27     3    25    1
    28     3    26    1
    29    17    27    1
    30    19    28    1
    31    21    29    1
    32     5    30    1
    33     6    31    1
    34     7    32    1
    35     9    33    1
    36    10    34    1
    37    11    35    1
    38    12    36    1
    39    15    37    1
    40    22    38    1
    41    24    39    1
@<TRIPOS>MOLECULE
mol67_1_13
 39 41 0 0 0
SMALL
USER_CHARGES
****
VDW energy = 99.89
@<TRIPOS>ATOM
   1 O1       -6.3195     0.0314    -4.3629  O.2     1  <O>11      -0.2917
   2 C1       -6.0269     1.2087    -4.2154  C.2     1  <O>11       0.1676
   3 C2       -5.4450     1.6770    -2.9240  C.3     1  <O>11       0.0362
   4 C3       -6.1778     1.0587    -1.8012  C.ar    1  <O>11      -0.0322
   5 C4       -7.4574     0.5469    -2.0331  C.ar    1  <O>11      -0.0576
   6 C5       -8.1526    -0.0632    -0.9936  C.ar    1  <O>11      -0.0609
   7 C6       -7.5797    -0.1359     0.2803  C.ar    1  <O>11      -0.0540
   8 C7       -6.3019     0.3918     0.5299  C.ar    1  <O>11      -0.0176
   9 C8       -5.7168     0.3316     1.8045  C.ar    1  <O>11      -0.0540
  10 C9       -4.4437     0.8568     2.0305  C.ar    1  <O>11      -0.0612
  11 C10      -3.7374     1.4456     0.9847  C.ar    1  <O>11      -0.0612
  12 C11      -4.3052     1.5121    -0.2885  C.ar    1  <O>11      -0.0538
  13 C12      -5.5878     0.9932    -0.5291  C.ar    1  <O>11      -0.0143
  14 C13      -6.2460     2.1550    -5.3010  C.ar    1  <O>11       0.0234
  15 C14      -7.4684     2.8405    -5.4082  C.ar    1  <O>11      -0.0059
  16 C15      -7.6817     3.7396    -6.4589  C.ar    1  <O>11       0.1611
  17 O2       -8.8126     4.3614    -6.5515  O.3     1  <O>11      -0.5032
  18 C16      -6.6793     3.9682    -7.4056  C.ar    1  <O>11       0.1846
  19 O3       -6.8711     4.7987    -8.3792  O.3     1  <O>11      -0.5019
  20 C17      -5.4599     3.2901    -7.2934  C.ar    1  <O>11       0.1170
  21 N1       -4.4301     3.5280    -8.2721  N.4     1  <O>11      -0.2014
  22 O4       -4.0650     4.9303    -8.2579  O.3     1  <O>11      -0.2807
  23 F1       -4.9185     3.1720    -9.5791  F       1  <O>11      -0.0963
  24 C18      -5.2372     2.3921    -6.2496  C.ar    1  <O>11      -0.0215
  25 H1       -4.3945     1.3893    -2.8735  H       1  <O>11       0.0394
  26 H2       -5.5293     2.7619    -2.8588  H       1  <O>11       0.0394
  27 H3       -8.8004     4.9435    -7.3276  H       1  <O>11       0.2923
  28 H4       -6.0776     4.8335    -8.9365  H       1  <O>11       0.2924
  29 H5       -3.6124     2.9611    -8.0482  H       1  <O>11       0.2057
  30 H6       -7.8842     0.6211    -2.9697  H       1  <O>11       0.0621
  31 H7       -9.0895    -0.4615    -1.1623  H       1  <O>11       0.0618
  32 H8       -8.1036    -0.5838     1.0483  H       1  <O>11       0.0624
  33 H9       -6.2338    -0.1059     2.5831  H       1  <O>11       0.0624
  34 H10      -4.0257     0.8088     2.9728  H       1  <O>11       0.0618
  35 H11      -2.7951     1.8325     1.1509  H       1  <O>11       0.0618
  36 H12      -3.7772     1.9471    -1.0612  H       1  <O>11       0.0624
  37 H13      -8.2111     2.6801    -4.7097  H       1  <O>11       0.0662
  38 H14      -4.8427     5.4696    -8.4708  H       1  <O>11       0.2449
  39 H15      -4.3320     1.9022    -6.1743  H       1  <O>11       0.0647
@<TRIPOS>BOND
     1     1     2    2
     2     2     3    1
     3     3     4    1
     4     4     5   ar
     5     5     6   ar
     6     6     7   ar
     7     7     8   ar
     8     8     9   ar
     9     9    10   ar
    10    10    11   ar
    11    11    12   ar
    12    12    13   ar
    13     4    13   ar
    14     8    13   ar
    15     2    14    1
    16    14    15   ar
    17    15    16   ar
    18    16    17    1
    19    16    18   ar
    20    18    19    1
    21    18    20   ar
    22    20    21    1
    23    21    22    1
    24    21    23    1
    25    20    24   ar
    26    14    24   ar
    27     3    25    1
    28     3    26    1
    29    17    27    1
    30    19    28    1
    31    21    29    1
    32     5    30    1
    33     6    31    1
    34     7    32    1
    35     9    33    1
    36    10    34    1
    37    11    35    1
    38    12    36    1
    39    15    37    1
    40    22    38    1
    41    24    39    1
@<TRIPOS>MOLECULE
mol67_1_14
 39 41 0 0 0
SMALL
USER_CHARGES
****
VDW energy = 100.84
@<TRIPOS>ATOM
   1 O1       -6.3195     0.0314    -4.3629  O.2     1  <O>11      -0.2917
   2 C1       -6.0269     1.2087    -4.2154  C.2     1  <O>11       0.1676
   3 C2       -5.4450     1.6770    -2.9240  C.3     1  <O>11       0.0362
   4 C3       -6.1778     1.0587    -1.8012  C.ar    1  <O>11      -0.0322
   5 C4       -7.4574     0.5469    -2.0331  C.ar    1  <O>11      -0.0576
   6 C5       -8.1526    -0.0632    -0.9936  C.ar    1  <O>11      -0.0609
   7 C6       -7.5797    -0.1359     0.2803  C.ar    1  <O>11      -0.0540
   8 C7       -6.3019     0.3918     0.5299  C.ar    1  <O>11      -0.0176
   9 C8       -5.7168     0.3316     1.8045  C.ar    1  <O>11      -0.0540
  10 C9       -4.4437     0.8568     2.0305  C.ar    1  <O>11      -0.0612
  11 C10      -3.7374     1.4456     0.9847  C.ar    1  <O>11      -0.0612
  12 C11      -4.3052     1.5121    -0.2885  C.ar    1  <O>11      -0.0538
  13 C12      -5.5878     0.9932    -0.5291  C.ar    1  <O>11      -0.0143
  14 C13      -6.2460     2.1550    -5.3010  C.ar    1  <O>11       0.0234
  15 C14      -7.4368     2.1153    -6.0467  C.ar    1  <O>11      -0.0059
  16 C15      -7.6401     3.0169    -7.0973  C.ar    1  <O>11       0.1611
  17 O2       -8.7376     2.9683    -7.7810  O.3     1  <O>11      -0.5032
  18 C16      -6.6644     3.9678    -7.4090  C.ar    1  <O>11       0.1846
  19 O3       -6.8472     4.8039    -8.3795  O.3     1  <O>11      -0.5019
  20 C17      -5.4821     4.0106    -6.6609  C.ar    1  <O>11       0.1170
  21 N1       -4.4788     4.9916    -6.9865  N.4     1  <O>11      -0.2014
  22 O4       -4.5363     5.2891    -8.4036  O.3     1  <O>11      -0.2807
  23 F1       -3.1763     4.4737    -6.6568  F       1  <O>11      -0.0963
  24 C18      -5.2699     3.1166    -5.6115  C.ar    1  <O>11      -0.0215
  25 H1       -4.3945     1.3893    -2.8735  H       1  <O>11       0.0394
  26 H2       -5.5293     2.7619    -2.8588  H       1  <O>11       0.0394
  27 H3       -8.7233     3.6544    -8.4668  H       1  <O>11       0.2923
  28 H4       -6.0750     5.3867    -8.4548  H       1  <O>11       0.2924
  29 H5       -4.6517     5.8431    -6.4526  H       1  <O>11       0.2057
  30 H6       -7.8842     0.6211    -2.9697  H       1  <O>11       0.0621
  31 H7       -9.0895    -0.4615    -1.1623  H       1  <O>11       0.0618
  32 H8       -8.1036    -0.5838     1.0483  H       1  <O>11       0.0624
  33 H9       -6.2338    -0.1059     2.5831  H       1  <O>11       0.0624
  34 H10      -4.0257     0.8088     2.9728  H       1  <O>11       0.0618
  35 H11      -2.7951     1.8325     1.1509  H       1  <O>11       0.0618
  36 H12      -3.7772     1.9471    -1.0612  H       1  <O>11       0.0624
  37 H13      -8.1636     1.4190    -5.8187  H       1  <O>11       0.0662
  38 H14      -4.3719     4.4792    -8.9114  H       1  <O>11       0.2449
  39 H15      -4.3966     3.1615    -5.0635  H       1  <O>11       0.0647
@<TRIPOS>BOND
     1     1     2    2
     2     2     3    1
     3     3     4    1
     4     4     5   ar
     5     5     6   ar
     6     6     7   ar
     7     7     8   ar
     8     8     9   ar
     9     9    10   ar
    10    10    11   ar
    11    11    12   ar
    12    12    13   ar
    13     4    13   ar
    14     8    13   ar
    15     2    14    1
    16    14    15   ar
    17    15    16   ar
    18    16    17    1
    19    16    18   ar
    20    18    19    1
    21    18    20   ar
    22    20    21    1
    23    21    22    1
    24    21    23    1
    25    20    24   ar
    26    14    24   ar
    27     3    25    1
    28     3    26    1
    29    17    27    1
    30    19    28    1
    31    21    29    1
    32     5    30    1
    33     6    31    1
    34     7    32    1
    35     9    33    1
    36    10    34    1
    37    11    35    1
    38    12    36    1
    39    15    37    1
    40    22    38    1
    41    24    39    1
@<TRIPOS>MOLECULE
mol67_1_15
 39 41 0 0 0
SMALL
USER_CHARGES
****
VDW energy = 102.62
@<TRIPOS>ATOM
   1 O1       -6.3195     0.0314    -4.3629  O.2     1  <O>11      -0.2917
   2 C1       -6.0269     1.2087    -4.2154  C.2     1  <O>11       0.1676
   3 C2       -5.4450     1.6770    -2.9240  C.3     1  <O>11       0.0362
   4 C3       -6.1778     1.0587    -1.8012  C.ar    1  <O>11      -0.0322
   5 C4       -7.4574     0.5469    -2.0331  C.ar    1  <O>11      -0.0576
   6 C5       -8.1526    -0.0632    -0.9936  C.ar    1  <O>11      -0.0609
   7 C6       -7.5797    -0.1359     0.2803  C.ar    1  <O>11      -0.0540
   8 C7       -6.3019     0.3918     0.5299  C.ar    1  <O>11      -0.0176
   9 C8       -5.7168     0.3316     1.8045  C.ar    1  <O>11      -0.0540
  10 C9       -4.4437     0.8568     2.0305  C.ar    1  <O>11      -0.0612
  11 C10      -3.7374     1.4456     0.9847  C.ar    1  <O>11      -0.0612
  12 C11      -4.3052     1.5121    -0.2885  C.ar    1  <O>11      -0.0538
  13 C12      -5.5878     0.9932    -0.5291  C.ar    1  <O>11      -0.0143
  14 C13      -6.2460     2.1550    -5.3010  C.ar    1  <O>11       0.0234
  15 C14      -5.2369     2.3908    -6.2507  C.ar    1  <O>11      -0.0059
  16 C15      -5.4445     3.3094    -7.2854  C.ar    1  <O>11       0.1611
  17 O2       -4.5070     3.5231    -8.1512  O.3     1  <O>11      -0.5032
  18 C16      -6.6584     3.9945    -7.3869  C.ar    1  <O>11       0.1846
  19 O3       -6.8558     4.8452    -8.3418  O.3     1  <O>11      -0.5019
  20 C17      -7.6650     3.7534    -6.4445  C.ar    1  <O>11       0.1170
  21 N1       -8.9141     4.4627    -6.5524  N.4     1  <O>11      -0.2014
  22 O4       -9.5335     4.1588    -7.8267  O.3     1  <O>11      -0.2807
  23 F1       -8.6712     5.8791    -6.4619  F       1  <O>11      -0.0963
  24 C18      -7.4682     2.8394    -5.4095  C.ar    1  <O>11      -0.0215
  25 H1       -4.3945     1.3893    -2.8735  H       1  <O>11       0.0394
  26 H2       -5.5293     2.7619    -2.8588  H       1  <O>11       0.0394
  27 H3       -4.8064     4.1814    -8.7980  H       1  <O>11       0.2923
  28 H4       -7.7452     5.2243    -8.2593  H       1  <O>11       0.2924
  29 H5       -9.5338     4.1746    -5.7954  H       1  <O>11       0.2057
  30 H6       -7.8842     0.6211    -2.9697  H       1  <O>11       0.0621
  31 H7       -9.0895    -0.4615    -1.1623  H       1  <O>11       0.0618
  32 H8       -8.1036    -0.5838     1.0483  H       1  <O>11       0.0624
  33 H9       -6.2338    -0.1059     2.5831  H       1  <O>11       0.0624
  34 H10      -4.0257     0.8088     2.9728  H       1  <O>11       0.0618
  35 H11      -2.7951     1.8325     1.1509  H       1  <O>11       0.0618
  36 H12      -3.7772     1.9471    -1.0612  H       1  <O>11       0.0624
  37 H13      -4.3399     1.8846    -6.1845  H       1  <O>11       0.0662
  38 H14      -8.9441     4.4328    -8.5468  H       1  <O>11       0.2449
  39 H15      -8.2197     2.6660    -4.7239  H       1  <O>11       0.0647
@<TRIPOS>BOND
     1     1     2    2
     2     2     3    1
     3     3     4    1
     4     4     5   ar
     5     5     6   ar
     6     6     7   ar
     7     7     8   ar
     8     8     9   ar
     9     9    10   ar
    10    10    11   ar
    11    11    12   ar
    12    12    13   ar
    13     4    13   ar
    14     8    13   ar
    15     2    14    1
    16    14    15   ar
    17    15    16   ar
    18    16    17    1
    19    16    18   ar
    20    18    19    1
    21    18    20   ar
    22    20    21    1
    23    21    22    1
    24    21    23    1
    25    20    24   ar
    26    14    24   ar
    27     3    25    1
    28     3    26    1
    29    17    27    1
    30    19    28    1
    31    21    29    1
    32     5    30    1
    33     6    31    1
    34     7    32    1
    35     9    33    1
    36    10    34    1
    37    11    35    1
    38    12    36    1
    39    15    37    1
    40    22    38    1
    41    24    39    1
@<TRIPOS>MOLECULE
mol67_1_16
 39 41 0 0 0
SMALL
USER_CHARGES
****
VDW energy = 105.58
@<TRIPOS>ATOM
   1 O1       -6.3195     0.0314    -4.3629  O.2     1  <O>11      -0.2917
   2 C1       -6.0269     1.2087    -4.2154  C.2     1  <O>11       0.1676
   3 C2       -5.4450     1.6770    -2.9240  C.3     1  <O>11       0.0362
   4 C3       -6.1778     1.0587    -1.8012  C.ar    1  <O>11      -0.0322
   5 C4       -7.2927     1.7204    -1.2794  C.ar    1  <O>11      -0.0576
   6 C5       -8.0117     1.1404    -0.2389  C.ar    1  <O>11      -0.0609
   7 C6       -7.5994    -0.0845     0.2957  C.ar    1  <O>11      -0.0540
   8 C7       -6.4693    -0.7498    -0.2080  C.ar    1  <O>11      -0.0176
   9 C8       -6.0401    -1.9767     0.3224  C.ar    1  <O>11      -0.0540
  10 C9       -4.9179    -2.6244    -0.1960  C.ar    1  <O>11      -0.0612
  11 C10      -4.2123    -2.0563    -1.2537  C.ar    1  <O>11      -0.0612
  12 C11      -4.6273    -0.8376    -1.7926  C.ar    1  <O>11      -0.0538
  13 C12      -5.7510    -0.1717    -1.2771  C.ar    1  <O>11      -0.0143
  14 C13      -6.2460     2.1550    -5.3010  C.ar    1  <O>11       0.0234
  15 C14      -6.7939     1.7208    -6.5204  C.ar    1  <O>11      -0.0059
  16 C15      -6.9919     2.6288    -7.5664  C.ar    1  <O>11       0.1611
  17 O2       -7.4918     2.2176    -8.6868  O.3     1  <O>11      -0.5032
  18 C16      -6.6530     3.9750    -7.4050  C.ar    1  <O>11       0.1846
  19 O3       -6.8340     4.8190    -8.3690  O.3     1  <O>11      -0.5019
  20 C17      -6.1141     4.4072    -6.1876  C.ar    1  <O>11       0.1170
  21 N1       -5.7653     5.7955    -6.0261  N.4     1  <O>11      -0.2014
  22 O4       -6.9467     6.6146    -6.2081  O.3     1  <O>11      -0.2807
  23 F1       -4.7737     6.1583    -7.0052  F       1  <O>11      -0.0963
  24 C18      -5.9131     3.5102    -5.1386  C.ar    1  <O>11      -0.0215
  25 H1       -4.3945     1.3893    -2.8735  H       1  <O>11       0.0394
  26 H2       -5.5293     2.7619    -2.8588  H       1  <O>11       0.0394
  27 H3       -7.5650     2.9636    -9.3027  H       1  <O>11       0.2923
  28 H4       -6.5458     5.7012    -8.0857  H       1  <O>11       0.2924
  29 H5       -5.3892     5.9437    -5.0898  H       1  <O>11       0.2057
  30 H6       -7.5811     2.6338    -1.6636  H       1  <O>11       0.0621
  31 H7       -8.8480     1.6133     0.1379  H       1  <O>11       0.0618
  32 H8       -8.1334    -0.5059     1.0718  H       1  <O>11       0.0624
  33 H9       -6.5601    -2.4043     1.1044  H       1  <O>11       0.0624
  34 H10      -4.6109    -3.5246     0.2046  H       1  <O>11       0.0618
  35 H11      -3.3835    -2.5359    -1.6387  H       1  <O>11       0.0618
  36 H12      -4.1029    -0.4215    -2.5781  H       1  <O>11       0.0624
  37 H13      -7.0509     0.7290    -6.6447  H       1  <O>11       0.0662
  38 H14      -7.3044     6.4738    -7.0986  H       1  <O>11       0.2449
  39 H15      -5.5202     3.8418    -4.2438  H       1  <O>11       0.0647
@<TRIPOS>BOND
     1     1     2    2
     2     2     3    1
     3     3     4    1
     4     4     5   ar
     5     5     6   ar
     6     6     7   ar
     7     7     8   ar
     8     8     9   ar
     9     9    10   ar
    10    10    11   ar
    11    11    12   ar
    12    12    13   ar
    13     4    13   ar
    14     8    13   ar
    15     2    14    1
    16    14    15   ar
    17    15    16   ar
    18    16    17    1
    19    16    18   ar
    20    18    19    1
    21    18    20   ar
    22    20    21    1
    23    21    22    1
    24    21    23    1
    25    20    24   ar
    26    14    24   ar
    27     3    25    1
    28     3    26    1
    29    17    27    1
    30    19    28    1
    31    21    29    1
    32     5    30    1
    33     6    31    1
    34     7    32    1
    35     9    33    1
    36    10    34    1
    37    11    35    1
    38    12    36    1
    39    15    37    1
    40    22    38    1
    41    24    39    1
@<TRIPOS>MOLECULE
mol67_1_17
 39 41 0 0 0
SMALL
USER_CHARGES
****
VDW energy = 110.76
@<TRIPOS>ATOM
   1 O1       -6.3195     0.0314    -4.3629  O.2     1  <O>11      -0.2917
   2 C1       -6.0269     1.2087    -4.2154  C.2     1  <O>11       0.1676
   3 C2       -5.4450     1.6770    -2.9240  C.3     1  <O>11       0.0362
   4 C3       -6.0155     2.9936    -2.5760  C.ar    1  <O>11      -0.0322
   5 C4       -5.1534     4.0843    -2.4336  C.ar    1  <O>11      -0.0576
   6 C5       -5.6754     5.3384    -2.1322  C.ar    1  <O>11      -0.0609
   7 C6       -7.0529     5.4941    -1.9466  C.ar    1  <O>11      -0.0540
   8 C7       -7.9272     4.4013    -2.0686  C.ar    1  <O>11      -0.0176
   9 C8       -9.3112     4.5412    -1.8791  C.ar    1  <O>11      -0.0540
  10 C9      -10.1636     3.4440    -2.0104  C.ar    1  <O>11      -0.0612
  11 C10      -9.6444     2.1936    -2.3363  C.ar    1  <O>11      -0.0612
  12 C11      -8.2707     2.0388    -2.5289  C.ar    1  <O>11      -0.0538
  13 C12      -7.4005     3.1326    -2.3941  C.ar    1  <O>11      -0.0143
  14 C13      -6.2460     2.1550    -5.3010  C.ar    1  <O>11       0.0234
  15 C14      -7.4368     2.1153    -6.0467  C.ar    1  <O>11      -0.0059
  16 C15      -7.6401     3.0169    -7.0973  C.ar    1  <O>11       0.1611
  17 O2       -8.7376     2.9683    -7.7810  O.3     1  <O>11      -0.5032
  18 C16      -6.6644     3.9678    -7.4090  C.ar    1  <O>11       0.1846
  19 O3       -6.8472     4.8039    -8.3795  O.3     1  <O>11      -0.5019
  20 C17      -5.4821     4.0106    -6.6609  C.ar    1  <O>11       0.1170
  21 N1       -4.4788     4.9916    -6.9865  N.4     1  <O>11      -0.2014
  22 O4       -3.3525     4.8476    -6.0862  O.3     1  <O>11      -0.2807
  23 F1       -5.0367     6.3121    -6.8507  F       1  <O>11      -0.0963
  24 C18      -5.2699     3.1166    -5.6115  C.ar    1  <O>11      -0.0215
  25 H1       -5.6820     0.9599    -2.1376  H       1  <O>11       0.0394
  26 H2       -4.3630     1.7650    -3.0229  H       1  <O>11       0.0394
  27 H3       -8.7233     3.6544    -8.4668  H       1  <O>11       0.2923
  28 H4       -6.0750     5.3867    -8.4548  H       1  <O>11       0.2924
  29 H5       -4.1668     4.8511    -7.9473  H       1  <O>11       0.2057
  30 H6       -4.1357     3.9604    -2.5514  H       1  <O>11       0.0621
  31 H7       -5.0471     6.1524    -2.0456  H       1  <O>11       0.0618
  32 H8       -7.4326     6.4257    -1.7166  H       1  <O>11       0.0624
  33 H9       -9.7026     5.4656    -1.6402  H       1  <O>11       0.0624
  34 H10     -11.1789     3.5594    -1.8659  H       1  <O>11       0.0618
  35 H11     -10.2746     1.3824    -2.4354  H       1  <O>11       0.0618
  36 H12      -7.8907     1.1108    -2.7727  H       1  <O>11       0.0624
  37 H13      -8.1636     1.4190    -5.8187  H       1  <O>11       0.0662
  38 H14      -3.6492     4.9813    -5.1725  H       1  <O>11       0.2449
  39 H15      -4.3966     3.1615    -5.0635  H       1  <O>11       0.0647
@<TRIPOS>BOND
     1     1     2    2
     2     2     3    1
     3     3     4    1
     4     4     5   ar
     5     5     6   ar
     6     6     7   ar
     7     7     8   ar
     8     8     9   ar
     9     9    10   ar
    10    10    11   ar
    11    11    12   ar
    12    12    13   ar
    13     4    13   ar
    14     8    13   ar
    15     2    14    1
    16    14    15   ar
    17    15    16   ar
    18    16    17    1
    19    16    18   ar
    20    18    19    1
    21    18    20   ar
    22    20    21    1
    23    21    22    1
    24    21    23    1
    25    20    24   ar
    26    14    24   ar
    27     3    25    1
    28     3    26    1
    29    17    27    1
    30    19    28    1
    31    21    29    1
    32     5    30    1
    33     6    31    1
    34     7    32    1
    35     9    33    1
    36    10    34    1
    37    11    35    1
    38    12    36    1
    39    15    37    1
    40    22    38    1
    41    24    39    1
@<TRIPOS>MOLECULE
mol67_1_18
 39 41 0 0 0
SMALL
USER_CHARGES
****
VDW energy = 113.64
@<TRIPOS>ATOM
   1 O1       -6.3195     0.0314    -4.3629  O.2     1  <O>11      -0.2917
   2 C1       -6.0269     1.2087    -4.2154  C.2     1  <O>11       0.1676
   3 C2       -5.4450     1.6770    -2.9240  C.3     1  <O>11       0.0362
   4 C3       -6.1778     1.0587    -1.8012  C.ar    1  <O>11      -0.0322
   5 C4       -6.8273     1.8884    -0.8831  C.ar    1  <O>11      -0.0576
   6 C5       -7.5451     1.3232     0.1663  C.ar    1  <O>11      -0.0609
   7 C6       -7.5894    -0.0671     0.3118  C.ar    1  <O>11      -0.0540
   8 C7       -6.9249    -0.9106    -0.5939  C.ar    1  <O>11      -0.0176
   9 C8       -6.9554    -2.3074    -0.4572  C.ar    1  <O>11      -0.0540
  10 C9       -6.2932    -3.1283    -1.3711  C.ar    1  <O>11      -0.0612
  11 C10      -5.5950    -2.5640    -2.4357  C.ar    1  <O>11      -0.0612
  12 C11      -5.5564    -1.1770    -2.5859  C.ar    1  <O>11      -0.0538
  13 C12      -6.2130    -0.3386    -1.6705  C.ar    1  <O>11      -0.0143
  14 C13      -6.2460     2.1550    -5.3010  C.ar    1  <O>11       0.0234
  15 C14      -7.0983     3.2578    -5.1192  C.ar    1  <O>11      -0.0059
  16 C15      -7.3174     4.1587    -6.1671  C.ar    1  <O>11       0.1611
  17 O2       -8.1082     5.1676    -5.9909  O.3     1  <O>11      -0.5032
  18 C16      -6.6858     3.9732    -7.4000  C.ar    1  <O>11       0.1846
  19 O3       -6.8849     4.8032    -8.3725  O.3     1  <O>11      -0.5019
  20 C17      -5.8318     2.8784    -7.5772  C.ar    1  <O>11       0.1170
  21 N1       -5.1839     2.6906    -8.8500  N.4     1  <O>11      -0.2014
  22 O4       -6.0241     3.2245    -9.9030  O.3     1  <O>11      -0.2807
  23 F1       -4.9663     1.2851    -9.0751  F       1  <O>11      -0.0963
  24 C18      -5.6064     1.9748    -6.5389  C.ar    1  <O>11      -0.0215
  25 H1       -4.3945     1.3893    -2.8735  H       1  <O>11       0.0394
  26 H2       -5.5293     2.7619    -2.8588  H       1  <O>11       0.0394
  27 H3       -8.1520     5.6918    -6.8061  H       1  <O>11       0.2923
  28 H4       -6.3721     4.5235    -9.1473  H       1  <O>11       0.2924
  29 H5       -4.2880     3.1779    -8.8493  H       1  <O>11       0.2057
  30 H6       -6.7748     2.9142    -0.9829  H       1  <O>11       0.0621
  31 H7       -8.0441     1.9291     0.8364  H       1  <O>11       0.0618
  32 H8       -8.1181    -0.4794     1.0963  H       1  <O>11       0.0624
  33 H9       -7.4733    -2.7320     0.3280  H       1  <O>11       0.0624
  34 H10      -6.3209    -4.1537    -1.2579  H       1  <O>11       0.0618
  35 H11      -5.1068    -3.1707    -3.1129  H       1  <O>11       0.0618
  36 H12      -5.0399    -0.7632    -3.3777  H       1  <O>11       0.0624
  37 H13      -7.5640     3.4035    -4.2098  H       1  <O>11       0.0662
  38 H14      -6.8762     2.7611    -9.9037  H       1  <O>11       0.2449
  39 H15      -4.9703     1.1745    -6.6798  H       1  <O>11       0.0647
@<TRIPOS>BOND
     1     1     2    2
     2     2     3    1
     3     3     4    1
     4     4     5   ar
     5     5     6   ar
     6     6     7   ar
     7     7     8   ar
     8     8     9   ar
     9     9    10   ar
    10    10    11   ar
    11    11    12   ar
    12    12    13   ar
    13     4    13   ar
    14     8    13   ar
    15     2    14    1
    16    14    15   ar
    17    15    16   ar
    18    16    17    1
    19    16    18   ar
    20    18    19    1
    21    18    20   ar
    22    20    21    1
    23    21    22    1
    24    21    23    1
    25    20    24   ar
    26    14    24   ar
    27     3    25    1
    28     3    26    1
    29    17    27    1
    30    19    28    1
    31    21    29    1
    32     5    30    1
    33     6    31    1
    34     7    32    1
    35     9    33    1
    36    10    34    1
    37    11    35    1
    38    12    36    1
    39    15    37    1
    40    22    38    1
    41    24    39    1
@<TRIPOS>MOLECULE
mol67_1_19
 39 41 0 0 0
SMALL
USER_CHARGES
****
VDW energy = 114.85
@<TRIPOS>ATOM
   1 O1       -6.3195     0.0314    -4.3629  O.2     1  <O>11      -0.2917
   2 C1       -6.0269     1.2087    -4.2154  C.2     1  <O>11       0.1676
   3 C2       -5.4450     1.6770    -2.9240  C.3     1  <O>11       0.0362
   4 C3       -6.1778     1.0587    -1.8012  C.ar    1  <O>11      -0.0322
   5 C4       -6.8273     1.8884    -0.8831  C.ar    1  <O>11      -0.0576
   6 C5       -7.5451     1.3232     0.1663  C.ar    1  <O>11      -0.0609
   7 C6       -7.5894    -0.0671     0.3118  C.ar    1  <O>11      -0.0540
   8 C7       -6.9249    -0.9106    -0.5939  C.ar    1  <O>11      -0.0176
   9 C8       -6.9554    -2.3074    -0.4572  C.ar    1  <O>11      -0.0540
  10 C9       -6.2932    -3.1283    -1.3711  C.ar    1  <O>11      -0.0612
  11 C10      -5.5950    -2.5640    -2.4357  C.ar    1  <O>11      -0.0612
  12 C11      -5.5564    -1.1770    -2.5859  C.ar    1  <O>11      -0.0538
  13 C12      -6.2130    -0.3386    -1.6705  C.ar    1  <O>11      -0.0143
  14 C13      -6.2460     2.1550    -5.3010  C.ar    1  <O>11       0.0234
  15 C14      -7.4368     2.1153    -6.0467  C.ar    1  <O>11      -0.0059
  16 C15      -7.6401     3.0169    -7.0973  C.ar    1  <O>11       0.1611
  17 O2       -8.7376     2.9683    -7.7810  O.3     1  <O>11      -0.5032
  18 C16      -6.6644     3.9678    -7.4090  C.ar    1  <O>11       0.1846
  19 O3       -6.8472     4.8039    -8.3795  O.3     1  <O>11      -0.5019
  20 C17      -5.4821     4.0106    -6.6609  C.ar    1  <O>11       0.1170
  21 N1       -4.4788     4.9916    -6.9865  N.4     1  <O>11      -0.2014
  22 O4       -4.0347     4.7933    -8.3516  O.3     1  <O>11      -0.2807
  23 F1       -3.3597     4.8490    -6.0917  F       1  <O>11      -0.0963
  24 C18      -5.2699     3.1166    -5.6115  C.ar    1  <O>11      -0.0215
  25 H1       -4.3945     1.3893    -2.8735  H       1  <O>11       0.0394
  26 H2       -5.5293     2.7619    -2.8588  H       1  <O>11       0.0394
  27 H3       -8.7233     3.6544    -8.4668  H       1  <O>11       0.2923
  28 H4       -6.0750     5.3867    -8.4548  H       1  <O>11       0.2924
  29 H5       -4.8750     5.9264    -6.8898  H       1  <O>11       0.2057
  30 H6       -6.7748     2.9142    -0.9829  H       1  <O>11       0.0621
  31 H7       -8.0441     1.9291     0.8364  H       1  <O>11       0.0618
  32 H8       -8.1181    -0.4794     1.0963  H       1  <O>11       0.0624
  33 H9       -7.4733    -2.7320     0.3280  H       1  <O>11       0.0624
  34 H10      -6.3209    -4.1537    -1.2579  H       1  <O>11       0.0618
  35 H11      -5.1068    -3.1707    -3.1129  H       1  <O>11       0.0618
  36 H12      -5.0399    -0.7632    -3.3777  H       1  <O>11       0.0624
  37 H13      -8.1636     1.4190    -5.8187  H       1  <O>11       0.0662
  38 H14      -3.6579     3.9043    -8.4436  H       1  <O>11       0.2449
  39 H15      -4.3966     3.1615    -5.0635  H       1  <O>11       0.0647
@<TRIPOS>BOND
     1     1     2    2
     2     2     3    1
     3     3     4    1
     4     4     5   ar
     5     5     6   ar
     6     6     7   ar
     7     7     8   ar
     8     8     9   ar
     9     9    10   ar
    10    10    11   ar
    11    11    12   ar
    12    12    13   ar
    13     4    13   ar
    14     8    13   ar
    15     2    14    1
    16    14    15   ar
    17    15    16   ar
    18    16    17    1
    19    16    18   ar
    20    18    19    1
    21    18    20   ar
    22    20    21    1
    23    21    22    1
    24    21    23    1
    25    20    24   ar
    26    14    24   ar
    27     3    25    1
    28     3    26    1
    29    17    27    1
    30    19    28    1
    31    21    29    1
    32     5    30    1
    33     6    31    1
    34     7    32    1
    35     9    33    1
    36    10    34    1
    37    11    35    1
    38    12    36    1
    39    15    37    1
    40    22    38    1
    41    24    39    1
@<TRIPOS>MOLECULE
mol67_1_20
 39 41 0 0 0
SMALL
USER_CHARGES
****
VDW energy = 114.86
@<TRIPOS>ATOM
   1 O1       -6.3195     0.0314    -4.3629  O.2     1  <O>11      -0.2917
   2 C1       -6.0269     1.2087    -4.2154  C.2     1  <O>11       0.1676
   3 C2       -5.4450     1.6770    -2.9240  C.3     1  <O>11       0.0362
   4 C3       -6.1778     1.0587    -1.8012  C.ar    1  <O>11      -0.0322
   5 C4       -5.7310    -0.1667    -1.2993  C.ar    1  <O>11      -0.0576
   6 C5       -6.3928    -0.7516    -0.2242  C.ar    1  <O>11      -0.0609
   7 C6       -7.5147    -0.1254     0.3285  C.ar    1  <O>11      -0.0540
   8 C7       -7.9843     1.0971    -0.1798  C.ar    1  <O>11      -0.0176
   9 C8       -9.1125     1.7343     0.3606  C.ar    1  <O>11      -0.0540
  10 C9       -9.5597     2.9515    -0.1551  C.ar    1  <O>11      -0.0612
  11 C10      -8.8831     3.5496    -1.2152  C.ar    1  <O>11      -0.0612
  12 C11      -7.7591     2.9290    -1.7625  C.ar    1  <O>11      -0.0538
  13 C12      -7.3014     1.7012    -1.2577  C.ar    1  <O>11      -0.0143
  14 C13      -6.2460     2.1550    -5.3010  C.ar    1  <O>11       0.0234
  15 C14      -7.4368     2.1153    -6.0467  C.ar    1  <O>11      -0.0059
  16 C15      -7.6401     3.0169    -7.0973  C.ar    1  <O>11       0.1611
  17 O2       -8.7376     2.9683    -7.7810  O.3     1  <O>11      -0.5032
  18 C16      -6.6644     3.9678    -7.4090  C.ar    1  <O>11       0.1846
  19 O3       -6.8472     4.8039    -8.3795  O.3     1  <O>11      -0.5019
  20 C17      -5.4821     4.0106    -6.6609  C.ar    1  <O>11       0.1170
  21 N1       -4.4788     4.9916    -6.9865  N.4     1  <O>11      -0.2014
  22 O4       -3.7486     5.3518    -5.7878  O.3     1  <O>11      -0.2807
  23 F1       -5.1127     6.1633    -7.5333  F       1  <O>11      -0.0963
  24 C18      -5.2699     3.1166    -5.6115  C.ar    1  <O>11      -0.0215
  25 H1       -4.3945     1.3893    -2.8735  H       1  <O>11       0.0394
  26 H2       -5.5293     2.7619    -2.8588  H       1  <O>11       0.0394
  27 H3       -8.7233     3.6544    -8.4668  H       1  <O>11       0.2923
  28 H4       -6.0750     5.3867    -8.4548  H       1  <O>11       0.2924
  29 H5       -3.8340     4.6015    -7.6736  H       1  <O>11       0.2057
  30 H6       -4.9151    -0.6349    -1.7235  H       1  <O>11       0.0621
  31 H7       -6.0564    -1.6463     0.1649  H       1  <O>11       0.0618
  32 H8       -8.0048    -0.5681     1.1214  H       1  <O>11       0.0624
  33 H9       -9.6167     1.2977     1.1481  H       1  <O>11       0.0624
  34 H10     -10.3920     3.4084     0.2493  H       1  <O>11       0.0618
  35 H11      -9.2123     4.4506    -1.5956  H       1  <O>11       0.0618
  36 H12      -7.2593     3.3771    -2.5464  H       1  <O>11       0.0624
  37 H13      -8.1636     1.4190    -5.8187  H       1  <O>11       0.0662
  38 H14      -4.3618     5.7228    -5.1343  H       1  <O>11       0.2449
  39 H15      -4.3966     3.1615    -5.0635  H       1  <O>11       0.0647
@<TRIPOS>BOND
     1     1     2    2
     2     2     3    1
     3     3     4    1
     4     4     5   ar
     5     5     6   ar
     6     6     7   ar
     7     7     8   ar
     8     8     9   ar
     9     9    10   ar
    10    10    11   ar
    11    11    12   ar
    12    12    13   ar
    13     4    13   ar
    14     8    13   ar
    15     2    14    1
    16    14    15   ar
    17    15    16   ar
    18    16    17    1
    19    16    18   ar
    20    18    19    1
    21    18    20   ar
    22    20    21    1
    23    21    22    1
    24    21    23    1
    25    20    24   ar
    26    14    24   ar
    27     3    25    1
    28     3    26    1
    29    17    27    1
    30    19    28    1
    31    21    29    1
    32     5    30    1
    33     6    31    1
    34     7    32    1
    35     9    33    1
    36    10    34    1
    37    11    35    1
    38    12    36    1
    39    15    37    1
    40    22    38    1
    41    24    39    1
@<TRIPOS>MOLECULE
mol67_1_21
 39 41 0 0 0
SMALL
USER_CHARGES
****
VDW energy = 116.12
@<TRIPOS>ATOM
   1 O1       -6.3195     0.0314    -4.3629  O.2     1  <O>11      -0.2917
   2 C1       -6.0269     1.2087    -4.2154  C.2     1  <O>11       0.1676
   3 C2       -5.4450     1.6770    -2.9240  C.3     1  <O>11       0.0362
   4 C3       -6.1778     1.0587    -1.8012  C.ar    1  <O>11      -0.0322
   5 C4       -7.4574     0.5469    -2.0331  C.ar    1  <O>11      -0.0576
   6 C5       -8.1526    -0.0632    -0.9936  C.ar    1  <O>11      -0.0609
   7 C6       -7.5797    -0.1359     0.2803  C.ar    1  <O>11      -0.0540
   8 C7       -6.3019     0.3918     0.5299  C.ar    1  <O>11      -0.0176
   9 C8       -5.7168     0.3316     1.8045  C.ar    1  <O>11      -0.0540
  10 C9       -4.4437     0.8568     2.0305  C.ar    1  <O>11      -0.0612
  11 C10      -3.7374     1.4456     0.9847  C.ar    1  <O>11      -0.0612
  12 C11      -4.3052     1.5121    -0.2885  C.ar    1  <O>11      -0.0538
  13 C12      -5.5878     0.9932    -0.5291  C.ar    1  <O>11      -0.0143
  14 C13      -6.2460     2.1550    -5.3010  C.ar    1  <O>11       0.0234
  15 C14      -7.4368     2.1153    -6.0467  C.ar    1  <O>11      -0.0059
  16 C15      -7.6401     3.0169    -7.0973  C.ar    1  <O>11       0.1611
  17 O2       -8.7376     2.9683    -7.7810  O.3     1  <O>11      -0.5032
  18 C16      -6.6644     3.9678    -7.4090  C.ar    1  <O>11       0.1846
  19 O3       -6.8472     4.8039    -8.3795  O.3     1  <O>11      -0.5019
  20 C17      -5.4821     4.0106    -6.6609  C.ar    1  <O>11       0.1170
  21 N1       -4.4788     4.9916    -6.9865  N.4     1  <O>11      -0.2014
  22 O4       -3.3525     4.8476    -6.0862  O.3     1  <O>11      -0.2807
  23 F1       -5.0367     6.3121    -6.8507  F       1  <O>11      -0.0963
  24 C18      -5.2699     3.1166    -5.6115  C.ar    1  <O>11      -0.0215
  25 H1       -4.3945     1.3893    -2.8735  H       1  <O>11       0.0394
  26 H2       -5.5293     2.7619    -2.8588  H       1  <O>11       0.0394
  27 H3       -8.7233     3.6544    -8.4668  H       1  <O>11       0.2923
  28 H4       -6.0750     5.3867    -8.4548  H       1  <O>11       0.2924
  29 H5       -4.1668     4.8511    -7.9473  H       1  <O>11       0.2057
  30 H6       -7.8842     0.6211    -2.9697  H       1  <O>11       0.0621
  31 H7       -9.0895    -0.4615    -1.1623  H       1  <O>11       0.0618
  32 H8       -8.1036    -0.5838     1.0483  H       1  <O>11       0.0624
  33 H9       -6.2338    -0.1059     2.5831  H       1  <O>11       0.0624
  34 H10      -4.0257     0.8088     2.9728  H       1  <O>11       0.0618
  35 H11      -2.7951     1.8325     1.1509  H       1  <O>11       0.0618
  36 H12      -3.7772     1.9471    -1.0612  H       1  <O>11       0.0624
  37 H13      -8.1636     1.4190    -5.8187  H       1  <O>11       0.0662
  38 H14      -3.6492     4.9813    -5.1725  H       1  <O>11       0.2449
  39 H15      -4.3966     3.1615    -5.0635  H       1  <O>11       0.0647
@<TRIPOS>BOND
     1     1     2    2
     2     2     3    1
     3     3     4    1
     4     4     5   ar
     5     5     6   ar
     6     6     7   ar
     7     7     8   ar
     8     8     9   ar
     9     9    10   ar
    10    10    11   ar
    11    11    12   ar
    12    12    13   ar
    13     4    13   ar
    14     8    13   ar
    15     2    14    1
    16    14    15   ar
    17    15    16   ar
    18    16    17    1
    19    16    18   ar
    20    18    19    1
    21    18    20   ar
    22    20    21    1
    23    21    22    1
    24    21    23    1
    25    20    24   ar
    26    14    24   ar
    27     3    25    1
    28     3    26    1
    29    17    27    1
    30    19    28    1
    31    21    29    1
    32     5    30    1
    33     6    31    1
    34     7    32    1
    35     9    33    1
    36    10    34    1
    37    11    35    1
    38    12    36    1
    39    15    37    1
    40    22    38    1
    41    24    39    1
@<TRIPOS>MOLECULE
mol67_1_22
 39 41 0 0 0
SMALL
USER_CHARGES
****
VDW energy = 117.75
@<TRIPOS>ATOM
   1 O1       -6.3195     0.0314    -4.3629  O.2     1  <O>11      -0.2917
   2 C1       -6.0269     1.2087    -4.2154  C.2     1  <O>11       0.1676
   3 C2       -5.4450     1.6770    -2.9240  C.3     1  <O>11       0.0362
   4 C3       -6.1778     1.0587    -1.8012  C.ar    1  <O>11      -0.0322
   5 C4       -6.8273     1.8884    -0.8831  C.ar    1  <O>11      -0.0576
   6 C5       -7.5451     1.3232     0.1663  C.ar    1  <O>11      -0.0609
   7 C6       -7.5894    -0.0671     0.3118  C.ar    1  <O>11      -0.0540
   8 C7       -6.9249    -0.9106    -0.5939  C.ar    1  <O>11      -0.0176
   9 C8       -6.9554    -2.3074    -0.4572  C.ar    1  <O>11      -0.0540
  10 C9       -6.2932    -3.1283    -1.3711  C.ar    1  <O>11      -0.0612
  11 C10      -5.5950    -2.5640    -2.4357  C.ar    1  <O>11      -0.0612
  12 C11      -5.5564    -1.1770    -2.5859  C.ar    1  <O>11      -0.0538
  13 C12      -6.2130    -0.3386    -1.6705  C.ar    1  <O>11      -0.0143
  14 C13      -6.2460     2.1550    -5.3010  C.ar    1  <O>11       0.0234
  15 C14      -7.4368     2.1153    -6.0467  C.ar    1  <O>11      -0.0059
  16 C15      -7.6401     3.0169    -7.0973  C.ar    1  <O>11       0.1611
  17 O2       -8.7376     2.9683    -7.7810  O.3     1  <O>11      -0.5032
  18 C16      -6.6644     3.9678    -7.4090  C.ar    1  <O>11       0.1846
  19 O3       -6.8472     4.8039    -8.3795  O.3     1  <O>11      -0.5019
  20 C17      -5.4821     4.0106    -6.6609  C.ar    1  <O>11       0.1170
  21 N1       -4.4788     4.9916    -6.9865  N.4     1  <O>11      -0.2014
  22 O4       -4.5363     5.2891    -8.4036  O.3     1  <O>11      -0.2807
  23 F1       -3.1763     4.4737    -6.6568  F       1  <O>11      -0.0963
  24 C18      -5.2699     3.1166    -5.6115  C.ar    1  <O>11      -0.0215
  25 H1       -4.3945     1.3893    -2.8735  H       1  <O>11       0.0394
  26 H2       -5.5293     2.7619    -2.8588  H       1  <O>11       0.0394
  27 H3       -8.7233     3.6544    -8.4668  H       1  <O>11       0.2923
  28 H4       -6.0750     5.3867    -8.4548  H       1  <O>11       0.2924
  29 H5       -4.6517     5.8431    -6.4526  H       1  <O>11       0.2057
  30 H6       -6.7748     2.9142    -0.9829  H       1  <O>11       0.0621
  31 H7       -8.0441     1.9291     0.8364  H       1  <O>11       0.0618
  32 H8       -8.1181    -0.4794     1.0963  H       1  <O>11       0.0624
  33 H9       -7.4733    -2.7320     0.3280  H       1  <O>11       0.0624
  34 H10      -6.3209    -4.1537    -1.2579  H       1  <O>11       0.0618
  35 H11      -5.1068    -3.1707    -3.1129  H       1  <O>11       0.0618
  36 H12      -5.0399    -0.7632    -3.3777  H       1  <O>11       0.0624
  37 H13      -8.1636     1.4190    -5.8187  H       1  <O>11       0.0662
  38 H14      -4.3719     4.4792    -8.9114  H       1  <O>11       0.2449
  39 H15      -4.3966     3.1615    -5.0635  H       1  <O>11       0.0647
@<TRIPOS>BOND
     1     1     2    2
     2     2     3    1
     3     3     4    1
     4     4     5   ar
     5     5     6   ar
     6     6     7   ar
     7     7     8   ar
     8     8     9   ar
     9     9    10   ar
    10    10    11   ar
    11    11    12   ar
    12    12    13   ar
    13     4    13   ar
    14     8    13   ar
    15     2    14    1
    16    14    15   ar
    17    15    16   ar
    18    16    17    1
    19    16    18   ar
    20    18    19    1
    21    18    20   ar
    22    20    21    1
    23    21    22    1
    24    21    23    1
    25    20    24   ar
    26    14    24   ar
    27     3    25    1
    28     3    26    1
    29    17    27    1
    30    19    28    1
    31    21    29    1
    32     5    30    1
    33     6    31    1
    34     7    32    1
    35     9    33    1
    36    10    34    1
    37    11    35    1
    38    12    36    1
    39    15    37    1
    40    22    38    1
    41    24    39    1
@<TRIPOS>MOLECULE
mol67_1_23
 39 41 0 0 0
SMALL
USER_CHARGES
****
VDW energy = 121.58
@<TRIPOS>ATOM
   1 O1       -6.3195     0.0314    -4.3629  O.2     1  <O>11      -0.2917
   2 C1       -6.0269     1.2087    -4.2154  C.2     1  <O>11       0.1676
   3 C2       -5.4450     1.6770    -2.9240  C.3     1  <O>11       0.0362
   4 C3       -6.1778     1.0587    -1.8012  C.ar    1  <O>11      -0.0322
   5 C4       -6.8273     1.8884    -0.8831  C.ar    1  <O>11      -0.0576
   6 C5       -7.5451     1.3232     0.1663  C.ar    1  <O>11      -0.0609
   7 C6       -7.5894    -0.0671     0.3118  C.ar    1  <O>11      -0.0540
   8 C7       -6.9249    -0.9106    -0.5939  C.ar    1  <O>11      -0.0176
   9 C8       -6.9554    -2.3074    -0.4572  C.ar    1  <O>11      -0.0540
  10 C9       -6.2932    -3.1283    -1.3711  C.ar    1  <O>11      -0.0612
  11 C10      -5.5950    -2.5640    -2.4357  C.ar    1  <O>11      -0.0612
  12 C11      -5.5564    -1.1770    -2.5859  C.ar    1  <O>11      -0.0538
  13 C12      -6.2130    -0.3386    -1.6705  C.ar    1  <O>11      -0.0143
  14 C13      -6.2460     2.1550    -5.3010  C.ar    1  <O>11       0.0234
  15 C14      -7.4368     2.1153    -6.0467  C.ar    1  <O>11      -0.0059
  16 C15      -7.6401     3.0169    -7.0973  C.ar    1  <O>11       0.1611
  17 O2       -8.7376     2.9683    -7.7810  O.3     1  <O>11      -0.5032
  18 C16      -6.6644     3.9678    -7.4090  C.ar    1  <O>11       0.1846
  19 O3       -6.8472     4.8039    -8.3795  O.3     1  <O>11      -0.5019
  20 C17      -5.4821     4.0106    -6.6609  C.ar    1  <O>11       0.1170
  21 N1       -4.4788     4.9916    -6.9865  N.4     1  <O>11      -0.2014
  22 O4       -5.0402     6.3205    -6.8493  O.3     1  <O>11      -0.2807
  23 F1       -4.0370     4.7944    -8.3428  F       1  <O>11      -0.0963
  24 C18      -5.2699     3.1166    -5.6115  C.ar    1  <O>11      -0.0215
  25 H1       -4.3945     1.3893    -2.8735  H       1  <O>11       0.0394
  26 H2       -5.5293     2.7619    -2.8588  H       1  <O>11       0.0394
  27 H3       -8.7233     3.6544    -8.4668  H       1  <O>11       0.2923
  28 H4       -6.0750     5.3867    -8.4548  H       1  <O>11       0.2924
  29 H5       -3.6867     4.8895    -6.3523  H       1  <O>11       0.2057
  30 H6       -6.7748     2.9142    -0.9829  H       1  <O>11       0.0621
  31 H7       -8.0441     1.9291     0.8364  H       1  <O>11       0.0618
  32 H8       -8.1181    -0.4794     1.0963  H       1  <O>11       0.0624
  33 H9       -7.4733    -2.7320     0.3280  H       1  <O>11       0.0624
  34 H10      -6.3209    -4.1537    -1.2579  H       1  <O>11       0.0618
  35 H11      -5.1068    -3.1707    -3.1129  H       1  <O>11       0.0618
  36 H12      -5.0399    -0.7632    -3.3777  H       1  <O>11       0.0624
  37 H13      -8.1636     1.4190    -5.8187  H       1  <O>11       0.0662
  38 H14      -5.7936     6.4176    -7.4525  H       1  <O>11       0.2449
  39 H15      -4.3966     3.1615    -5.0635  H       1  <O>11       0.0647
@<TRIPOS>BOND
     1     1     2    2
     2     2     3    1
     3     3     4    1
     4     4     5   ar
     5     5     6   ar
     6     6     7   ar
     7     7     8   ar
     8     8     9   ar
     9     9    10   ar
    10    10    11   ar
    11    11    12   ar
    12    12    13   ar
    13     4    13   ar
    14     8    13   ar
    15     2    14    1
    16    14    15   ar
    17    15    16   ar
    18    16    17    1
    19    16    18   ar
    20    18    19    1
    21    18    20   ar
    22    20    21    1
    23    21    22    1
    24    21    23    1
    25    20    24   ar
    26    14    24   ar
    27     3    25    1
    28     3    26    1
    29    17    27    1
    30    19    28    1
    31    21    29    1
    32     5    30    1
    33     6    31    1
    34     7    32    1
    35     9    33    1
    36    10    34    1
    37    11    35    1
    38    12    36    1
    39    15    37    1
    40    22    38    1
    41    24    39    1
@<TRIPOS>MOLECULE
mol67_1_24
 39 41 0 0 0
SMALL
USER_CHARGES
****
VDW energy = 122.11
@<TRIPOS>ATOM
   1 O1       -6.3195     0.0314    -4.3629  O.2     1  <O>11      -0.2917
   2 C1       -6.0269     1.2087    -4.2154  C.2     1  <O>11       0.1676
   3 C2       -5.4450     1.6770    -2.9240  C.3     1  <O>11       0.0362
   4 C3       -6.1778     1.0587    -1.8012  C.ar    1  <O>11      -0.0322
   5 C4       -5.4748     0.2542    -0.9003  C.ar    1  <O>11      -0.0576
   6 C5       -6.1431    -0.3153     0.1791  C.ar    1  <O>11      -0.0609
   7 C6       -7.5160    -0.1025     0.3402  C.ar    1  <O>11      -0.0540
   8 C7       -8.2369     0.6889    -0.5694  C.ar    1  <O>11      -0.0176
   9 C8       -9.6162     0.9063    -0.4240  C.ar    1  <O>11      -0.0540
  10 C9      -10.3131     1.7006    -1.3356  C.ar    1  <O>11      -0.0612
  11 C10      -9.6400     2.2909    -2.4023  C.ar    1  <O>11      -0.0612
  12 C11      -8.2686     2.0850    -2.5598  C.ar    1  <O>11      -0.0538
  13 C12      -7.5556     1.2834    -1.6537  C.ar    1  <O>11      -0.0143
  14 C13      -6.2460     2.1550    -5.3010  C.ar    1  <O>11       0.0234
  15 C14      -5.2369     2.3908    -6.2507  C.ar    1  <O>11      -0.0059
  16 C15      -5.4445     3.3094    -7.2854  C.ar    1  <O>11       0.1611
  17 O2       -4.5070     3.5231    -8.1512  O.3     1  <O>11      -0.5032
  18 C16      -6.6584     3.9945    -7.3869  C.ar    1  <O>11       0.1846
  19 O3       -6.8558     4.8452    -8.3418  O.3     1  <O>11      -0.5019
  20 C17      -7.6650     3.7534    -6.4445  C.ar    1  <O>11       0.1170
  21 N1       -8.9141     4.4627    -6.5524  N.4     1  <O>11      -0.2014
  22 O4       -9.5335     4.1588    -7.8267  O.3     1  <O>11      -0.2807
  23 F1       -8.6712     5.8791    -6.4619  F       1  <O>11      -0.0963
  24 C18      -7.4682     2.8394    -5.4095  C.ar    1  <O>11      -0.0215
  25 H1       -4.3945     1.3893    -2.8735  H       1  <O>11       0.0394
  26 H2       -5.5293     2.7619    -2.8588  H       1  <O>11       0.0394
  27 H3       -4.8064     4.1814    -8.7980  H       1  <O>11       0.2923
  28 H4       -7.7452     5.2243    -8.2593  H       1  <O>11       0.2924
  29 H5       -9.5338     4.1746    -5.7954  H       1  <O>11       0.2057
  30 H6       -4.4659     0.0835    -1.0348  H       1  <O>11       0.0621
  31 H7       -5.6265    -0.8939     0.8598  H       1  <O>11       0.0618
  32 H8       -8.0068    -0.5333     1.1393  H       1  <O>11       0.0624
  33 H9      -10.1203     0.4740     0.3658  H       1  <O>11       0.0624
  34 H10     -11.3275     1.8505    -1.2192  H       1  <O>11       0.0618
  35 H11     -10.1546     2.8798    -3.0756  H       1  <O>11       0.0618
  36 H12      -7.7734     2.5265    -3.3503  H       1  <O>11       0.0624
  37 H13      -4.3399     1.8846    -6.1845  H       1  <O>11       0.0662
  38 H14      -8.9441     4.4328    -8.5468  H       1  <O>11       0.2449
  39 H15      -8.2197     2.6660    -4.7239  H       1  <O>11       0.0647
@<TRIPOS>BOND
     1     1     2    2
     2     2     3    1
     3     3     4    1
     4     4     5   ar
     5     5     6   ar
     6     6     7   ar
     7     7     8   ar
     8     8     9   ar
     9     9    10   ar
    10    10    11   ar
    11    11    12   ar
    12    12    13   ar
    13     4    13   ar
    14     8    13   ar
    15     2    14    1
    16    14    15   ar
    17    15    16   ar
    18    16    17    1
    19    16    18   ar
    20    18    19    1
    21    18    20   ar
    22    20    21    1
    23    21    22    1
    24    21    23    1
    25    20    24   ar
    26    14    24   ar
    27     3    25    1
    28     3    26    1
    29    17    27    1
    30    19    28    1
    31    21    29    1
    32     5    30    1
    33     6    31    1
    34     7    32    1
    35     9    33    1
    36    10    34    1
    37    11    35    1
    38    12    36    1
    39    15    37    1
    40    22    38    1
    41    24    39    1
@<TRIPOS>MOLECULE
mol67_1_25
 39 41 0 0 0
SMALL
USER_CHARGES
****
VDW energy = 122.90
@<TRIPOS>ATOM
   1 O1       -6.3195     0.0314    -4.3629  O.2     1  <O>11      -0.2917
   2 C1       -6.0269     1.2087    -4.2154  C.2     1  <O>11       0.1676
   3 C2       -5.4450     1.6770    -2.9240  C.3     1  <O>11       0.0362
   4 C3       -6.1778     1.0587    -1.8012  C.ar    1  <O>11      -0.0322
   5 C4       -5.7310    -0.1667    -1.2993  C.ar    1  <O>11      -0.0576
   6 C5       -6.3928    -0.7516    -0.2242  C.ar    1  <O>11      -0.0609
   7 C6       -7.5147    -0.1254     0.3285  C.ar    1  <O>11      -0.0540
   8 C7       -7.9843     1.0971    -0.1798  C.ar    1  <O>11      -0.0176
   9 C8       -9.1125     1.7343     0.3606  C.ar    1  <O>11      -0.0540
  10 C9       -9.5597     2.9515    -0.1551  C.ar    1  <O>11      -0.0612
  11 C10      -8.8831     3.5496    -1.2152  C.ar    1  <O>11      -0.0612
  12 C11      -7.7591     2.9290    -1.7625  C.ar    1  <O>11      -0.0538
  13 C12      -7.3014     1.7012    -1.2577  C.ar    1  <O>11      -0.0143
  14 C13      -6.2460     2.1550    -5.3010  C.ar    1  <O>11       0.0234
  15 C14      -7.0983     3.2578    -5.1192  C.ar    1  <O>11      -0.0059
  16 C15      -7.3174     4.1587    -6.1671  C.ar    1  <O>11       0.1611
  17 O2       -8.1082     5.1676    -5.9909  O.3     1  <O>11      -0.5032
  18 C16      -6.6858     3.9732    -7.4000  C.ar    1  <O>11       0.1846
  19 O3       -6.8849     4.8032    -8.3725  O.3     1  <O>11      -0.5019
  20 C17      -5.8318     2.8784    -7.5772  C.ar    1  <O>11       0.1170
  21 N1       -5.1839     2.6906    -8.8500  N.4     1  <O>11      -0.2014
  22 O4       -3.9093     2.0307    -8.6503  O.3     1  <O>11      -0.2807
  23 F1       -4.9696     3.9709    -9.4732  F       1  <O>11      -0.0963
  24 C18      -5.6064     1.9748    -6.5389  C.ar    1  <O>11      -0.0215
  25 H1       -4.3945     1.3893    -2.8735  H       1  <O>11       0.0394
  26 H2       -5.5293     2.7619    -2.8588  H       1  <O>11       0.0394
  27 H3       -8.1520     5.6918    -6.8061  H       1  <O>11       0.2923
  28 H4       -6.3721     4.5235    -9.1473  H       1  <O>11       0.2924
  29 H5       -5.7750     2.1149    -9.4494  H       1  <O>11       0.2057
  30 H6       -4.9151    -0.6349    -1.7235  H       1  <O>11       0.0621
  31 H7       -6.0564    -1.6463     0.1649  H       1  <O>11       0.0618
  32 H8       -8.0048    -0.5681     1.1214  H       1  <O>11       0.0624
  33 H9       -9.6167     1.2977     1.1481  H       1  <O>11       0.0624
  34 H10     -10.3920     3.4084     0.2493  H       1  <O>11       0.0618
  35 H11      -9.2123     4.4506    -1.5956  H       1  <O>11       0.0618
  36 H12      -7.2593     3.3771    -2.5464  H       1  <O>11       0.0624
  37 H13      -7.5640     3.4035    -4.2098  H       1  <O>11       0.0662
  38 H14      -3.3470     2.5782    -8.0802  H       1  <O>11       0.2449
  39 H15      -4.9703     1.1745    -6.6798  H       1  <O>11       0.0647
@<TRIPOS>BOND
     1     1     2    2
     2     2     3    1
     3     3     4    1
     4     4     5   ar
     5     5     6   ar
     6     6     7   ar
     7     7     8   ar
     8     8     9   ar
     9     9    10   ar
    10    10    11   ar
    11    11    12   ar
    12    12    13   ar
    13     4    13   ar
    14     8    13   ar
    15     2    14    1
    16    14    15   ar
    17    15    16   ar
    18    16    17    1
    19    16    18   ar
    20    18    19    1
    21    18    20   ar
    22    20    21    1
    23    21    22    1
    24    21    23    1
    25    20    24   ar
    26    14    24   ar
    27     3    25    1
    28     3    26    1
    29    17    27    1
    30    19    28    1
    31    21    29    1
    32     5    30    1
    33     6    31    1
    34     7    32    1
    35     9    33    1
    36    10    34    1
    37    11    35    1
    38    12    36    1
    39    15    37    1
    40    22    38    1
    41    24    39    1
@<TRIPOS>MOLECULE
mol67_1_26
 39 41 0 0 0
SMALL
USER_CHARGES
****
VDW energy = 125.32
@<TRIPOS>ATOM
   1 O1       -6.3195     0.0314    -4.3629  O.2     1  <O>11      -0.2917
   2 C1       -6.0269     1.2087    -4.2154  C.2     1  <O>11       0.1676
   3 C2       -5.4450     1.6770    -2.9240  C.3     1  <O>11       0.0362
   4 C3       -6.1778     1.0587    -1.8012  C.ar    1  <O>11      -0.0322
   5 C4       -7.4574     0.5469    -2.0331  C.ar    1  <O>11      -0.0576
   6 C5       -8.1526    -0.0632    -0.9936  C.ar    1  <O>11      -0.0609
   7 C6       -7.5797    -0.1359     0.2803  C.ar    1  <O>11      -0.0540
   8 C7       -6.3019     0.3918     0.5299  C.ar    1  <O>11      -0.0176
   9 C8       -5.7168     0.3316     1.8045  C.ar    1  <O>11      -0.0540
  10 C9       -4.4437     0.8568     2.0305  C.ar    1  <O>11      -0.0612
  11 C10      -3.7374     1.4456     0.9847  C.ar    1  <O>11      -0.0612
  12 C11      -4.3052     1.5121    -0.2885  C.ar    1  <O>11      -0.0538
  13 C12      -5.5878     0.9932    -0.5291  C.ar    1  <O>11      -0.0143
  14 C13      -6.2460     2.1550    -5.3010  C.ar    1  <O>11       0.0234
  15 C14      -5.2369     2.3908    -6.2507  C.ar    1  <O>11      -0.0059
  16 C15      -5.4445     3.3094    -7.2854  C.ar    1  <O>11       0.1611
  17 O2       -4.5070     3.5231    -8.1512  O.3     1  <O>11      -0.5032
  18 C16      -6.6584     3.9945    -7.3869  C.ar    1  <O>11       0.1846
  19 O3       -6.8558     4.8452    -8.3418  O.3     1  <O>11      -0.5019
  20 C17      -7.6650     3.7534    -6.4445  C.ar    1  <O>11       0.1170
  21 N1       -8.9141     4.4627    -6.5524  N.4     1  <O>11      -0.2014
  22 O4       -9.9831     3.6418    -6.0201  O.3     1  <O>11      -0.2807
  23 F1       -9.1797     4.7593    -7.9362  F       1  <O>11      -0.0963
  24 C18      -7.4682     2.8394    -5.4095  C.ar    1  <O>11      -0.0215
  25 H1       -4.3945     1.3893    -2.8735  H       1  <O>11       0.0394
  26 H2       -5.5293     2.7619    -2.8588  H       1  <O>11       0.0394
  27 H3       -4.8064     4.1814    -8.7980  H       1  <O>11       0.2923
  28 H4       -7.7452     5.2243    -8.2593  H       1  <O>11       0.2924
  29 H5       -8.8567     5.3324    -6.0228  H       1  <O>11       0.2057
  30 H6       -7.8842     0.6211    -2.9697  H       1  <O>11       0.0621
  31 H7       -9.0895    -0.4615    -1.1623  H       1  <O>11       0.0618
  32 H8       -8.1036    -0.5838     1.0483  H       1  <O>11       0.0624
  33 H9       -6.2338    -0.1059     2.5831  H       1  <O>11       0.0624
  34 H10      -4.0257     0.8088     2.9728  H       1  <O>11       0.0618
  35 H11      -2.7951     1.8325     1.1509  H       1  <O>11       0.0618
  36 H12      -3.7772     1.9471    -1.0612  H       1  <O>11       0.0624
  37 H13      -4.3399     1.8846    -6.1845  H       1  <O>11       0.0662
  38 H14     -10.0377     2.8147    -6.5237  H       1  <O>11       0.2449
  39 H15      -8.2197     2.6660    -4.7239  H       1  <O>11       0.0647
@<TRIPOS>BOND
     1     1     2    2
     2     2     3    1
     3     3     4    1
     4     4     5   ar
     5     5     6   ar
     6     6     7   ar
     7     7     8   ar
     8     8     9   ar
     9     9    10   ar
    10    10    11   ar
    11    11    12   ar
    12    12    13   ar
    13     4    13   ar
    14     8    13   ar
    15     2    14    1
    16    14    15   ar
    17    15    16   ar
    18    16    17    1
    19    16    18   ar
    20    18    19    1
    21    18    20   ar
    22    20    21    1
    23    21    22    1
    24    21    23    1
    25    20    24   ar
    26    14    24   ar
    27     3    25    1
    28     3    26    1
    29    17    27    1
    30    19    28    1
    31    21    29    1
    32     5    30    1
    33     6    31    1
    34     7    32    1
    35     9    33    1
    36    10    34    1
    37    11    35    1
    38    12    36    1
    39    15    37    1
    40    22    38    1
    41    24    39    1
@<TRIPOS>MOLECULE
mol67_1_27
 39 41 0 0 0
SMALL
USER_CHARGES
****
VDW energy = 130.31
@<TRIPOS>ATOM
   1 O1       -6.3195     0.0314    -4.3629  O.2     1  <O>11      -0.2917
   2 C1       -6.0269     1.2087    -4.2154  C.2     1  <O>11       0.1676
   3 C2       -5.4450     1.6770    -2.9240  C.3     1  <O>11       0.0362
   4 C3       -4.3805     2.6641    -3.1932  C.ar    1  <O>11      -0.0322
   5 C4       -4.7213     4.0171    -3.2714  C.ar    1  <O>11      -0.0576
   6 C5       -3.7276     4.9644    -3.4979  C.ar    1  <O>11      -0.0609
   7 C6       -2.4015     4.5558    -3.6730  C.ar    1  <O>11      -0.0540
   8 C7       -2.0498     3.1969    -3.6153  C.ar    1  <O>11      -0.0176
   9 C8       -0.7242     2.7714    -3.7952  C.ar    1  <O>11      -0.0540
  10 C9       -0.3945     1.4170    -3.7284  C.ar    1  <O>11      -0.0612
  11 C10      -1.3848     0.4705    -3.4773  C.ar    1  <O>11      -0.0612
  12 C11      -2.7072     0.8781    -3.2952  C.ar    1  <O>11      -0.0538
  13 C12      -3.0544     2.2369    -3.3656  C.ar    1  <O>11      -0.0143
  14 C13      -6.2460     2.1550    -5.3010  C.ar    1  <O>11       0.0234
  15 C14      -7.4368     2.1153    -6.0467  C.ar    1  <O>11      -0.0059
  16 C15      -7.6401     3.0169    -7.0973  C.ar    1  <O>11       0.1611
  17 O2       -8.7376     2.9683    -7.7810  O.3     1  <O>11      -0.5032
  18 C16      -6.6644     3.9678    -7.4090  C.ar    1  <O>11       0.1846
  19 O3       -6.8472     4.8039    -8.3795  O.3     1  <O>11      -0.5019
  20 C17      -5.4821     4.0106    -6.6609  C.ar    1  <O>11       0.1170
  21 N1       -4.4788     4.9916    -6.9865  N.4     1  <O>11      -0.2014
  22 O4       -4.5363     5.2891    -8.4036  O.3     1  <O>11      -0.2807
  23 F1       -3.1763     4.4737    -6.6568  F       1  <O>11      -0.0963
  24 C18      -5.2699     3.1166    -5.6115  C.ar    1  <O>11      -0.0215
  25 H1       -6.2258     2.1413    -2.3210  H       1  <O>11       0.0394
  26 H2       -5.0247     0.8279    -2.3849  H       1  <O>11       0.0394
  27 H3       -8.7233     3.6544    -8.4668  H       1  <O>11       0.2923
  28 H4       -6.0750     5.3867    -8.4548  H       1  <O>11       0.2924
  29 H5       -4.6517     5.8431    -6.4526  H       1  <O>11       0.2057
  30 H6       -5.7042     4.3120    -3.1618  H       1  <O>11       0.0621
  31 H7       -3.9687     5.9671    -3.5366  H       1  <O>11       0.0618
  32 H8       -1.6706     5.2630    -3.8473  H       1  <O>11       0.0624
  33 H9        0.0147     3.4679    -3.9788  H       1  <O>11       0.0624
  34 H10       0.5833     1.1167    -3.8651  H       1  <O>11       0.0618
  35 H11      -1.1411    -0.5310    -3.4260  H       1  <O>11       0.0618
  36 H12      -3.4373     0.1735    -3.1068  H       1  <O>11       0.0624
  37 H13      -8.1636     1.4190    -5.8187  H       1  <O>11       0.0662
  38 H14      -4.3719     4.4792    -8.9114  H       1  <O>11       0.2449
  39 H15      -4.3966     3.1615    -5.0635  H       1  <O>11       0.0647
@<TRIPOS>BOND
     1     1     2    2
     2     2     3    1
     3     3     4    1
     4     4     5   ar
     5     5     6   ar
     6     6     7   ar
     7     7     8   ar
     8     8     9   ar
     9     9    10   ar
    10    10    11   ar
    11    11    12   ar
    12    12    13   ar
    13     4    13   ar
    14     8    13   ar
    15     2    14    1
    16    14    15   ar
    17    15    16   ar
    18    16    17    1
    19    16    18   ar
    20    18    19    1
    21    18    20   ar
    22    20    21    1
    23    21    22    1
    24    21    23    1
    25    20    24   ar
    26    14    24   ar
    27     3    25    1
    28     3    26    1
    29    17    27    1
    30    19    28    1
    31    21    29    1
    32     5    30    1
    33     6    31    1
    34     7    32    1
    35     9    33    1
    36    10    34    1
    37    11    35    1
    38    12    36    1
    39    15    37    1
    40    22    38    1
    41    24    39    1
@<TRIPOS>MOLECULE
mol67_1_28
 39 41 0 0 0
SMALL
USER_CHARGES
****
VDW energy = 133.09
@<TRIPOS>ATOM
   1 O1       -6.3195     0.0314    -4.3629  O.2     1  <O>11      -0.2917
   2 C1       -6.0269     1.2087    -4.2154  C.2     1  <O>11       0.1676
   3 C2       -5.4450     1.6770    -2.9240  C.3     1  <O>11       0.0362
   4 C3       -6.1778     1.0587    -1.8012  C.ar    1  <O>11      -0.0322
   5 C4       -6.8273     1.8884    -0.8831  C.ar    1  <O>11      -0.0576
   6 C5       -7.5451     1.3232     0.1663  C.ar    1  <O>11      -0.0609
   7 C6       -7.5894    -0.0671     0.3118  C.ar    1  <O>11      -0.0540
   8 C7       -6.9249    -0.9106    -0.5939  C.ar    1  <O>11      -0.0176
   9 C8       -6.9554    -2.3074    -0.4572  C.ar    1  <O>11      -0.0540
  10 C9       -6.2932    -3.1283    -1.3711  C.ar    1  <O>11      -0.0612
  11 C10      -5.5950    -2.5640    -2.4357  C.ar    1  <O>11      -0.0612
  12 C11      -5.5564    -1.1770    -2.5859  C.ar    1  <O>11      -0.0538
  13 C12      -6.2130    -0.3386    -1.6705  C.ar    1  <O>11      -0.0143
  14 C13      -6.2460     2.1550    -5.3010  C.ar    1  <O>11       0.0234
  15 C14      -7.4368     2.1153    -6.0467  C.ar    1  <O>11      -0.0059
  16 C15      -7.6401     3.0169    -7.0973  C.ar    1  <O>11       0.1611
  17 O2       -8.7376     2.9683    -7.7810  O.3     1  <O>11      -0.5032
  18 C16      -6.6644     3.9678    -7.4090  C.ar    1  <O>11       0.1846
  19 O3       -6.8472     4.8039    -8.3795  O.3     1  <O>11      -0.5019
  20 C17      -5.4821     4.0106    -6.6609  C.ar    1  <O>11       0.1170
  21 N1       -4.4788     4.9916    -6.9865  N.4     1  <O>11      -0.2014
  22 O4       -3.3525     4.8476    -6.0862  O.3     1  <O>11      -0.2807
  23 F1       -5.0367     6.3121    -6.8507  F       1  <O>11      -0.0963
  24 C18      -5.2699     3.1166    -5.6115  C.ar    1  <O>11      -0.0215
  25 H1       -4.3945     1.3893    -2.8735  H       1  <O>11       0.0394
  26 H2       -5.5293     2.7619    -2.8588  H       1  <O>11       0.0394
  27 H3       -8.7233     3.6544    -8.4668  H       1  <O>11       0.2923
  28 H4       -6.0750     5.3867    -8.4548  H       1  <O>11       0.2924
  29 H5       -4.1668     4.8511    -7.9473  H       1  <O>11       0.2057
  30 H6       -6.7748     2.9142    -0.9829  H       1  <O>11       0.0621
  31 H7       -8.0441     1.9291     0.8364  H       1  <O>11       0.0618
  32 H8       -8.1181    -0.4794     1.0963  H       1  <O>11       0.0624
  33 H9       -7.4733    -2.7320     0.3280  H       1  <O>11       0.0624
  34 H10      -6.3209    -4.1537    -1.2579  H       1  <O>11       0.0618
  35 H11      -5.1068    -3.1707    -3.1129  H       1  <O>11       0.0618
  36 H12      -5.0399    -0.7632    -3.3777  H       1  <O>11       0.0624
  37 H13      -8.1636     1.4190    -5.8187  H       1  <O>11       0.0662
  38 H14      -3.6492     4.9813    -5.1725  H       1  <O>11       0.2449
  39 H15      -4.3966     3.1615    -5.0635  H       1  <O>11       0.0647
@<TRIPOS>BOND
     1     1     2    2
     2     2     3    1
     3     3     4    1
     4     4     5   ar
     5     5     6   ar
     6     6     7   ar
     7     7     8   ar
     8     8     9   ar
     9     9    10   ar
    10    10    11   ar
    11    11    12   ar
    12    12    13   ar
    13     4    13   ar
    14     8    13   ar
    15     2    14    1
    16    14    15   ar
    17    15    16   ar
    18    16    17    1
    19    16    18   ar
    20    18    19    1
    21    18    20   ar
    22    20    21    1
    23    21    22    1
    24    21    23    1
    25    20    24   ar
    26    14    24   ar
    27     3    25    1
    28     3    26    1
    29    17    27    1
    30    19    28    1
    31    21    29    1
    32     5    30    1
    33     6    31    1
    34     7    32    1
    35     9    33    1
    36    10    34    1
    37    11    35    1
    38    12    36    1
    39    15    37    1
    40    22    38    1
    41    24    39    1
@<TRIPOS>MOLECULE
mol67_1_29
 39 41 0 0 0
SMALL
USER_CHARGES
****
VDW energy = 140.12
@<TRIPOS>ATOM
   1 O1       -6.3195     0.0314    -4.3629  O.2     1  <O>11      -0.2917
   2 C1       -6.0269     1.2087    -4.2154  C.2     1  <O>11       0.1676
   3 C2       -5.4450     1.6770    -2.9240  C.3     1  <O>11       0.0362
   4 C3       -4.3805     2.6641    -3.1932  C.ar    1  <O>11      -0.0322
   5 C4       -4.5134     3.9554    -2.6757  C.ar    1  <O>11      -0.0576
   6 C5       -3.5078     4.8914    -2.8964  C.ar    1  <O>11      -0.0609
   7 C6       -2.3862     4.5438    -3.6562  C.ar    1  <O>11      -0.0540
   8 C7       -2.2504     3.2545    -4.1973  C.ar    1  <O>11      -0.0176
   9 C8       -1.1333     2.8930    -4.9668  C.ar    1  <O>11      -0.0540
  10 C9       -1.0146     1.6051    -5.4908  C.ar    1  <O>11      -0.0612
  11 C10      -2.0091     0.6605    -5.2495  C.ar    1  <O>11      -0.0612
  12 C11      -3.1252     1.0043    -4.4854  C.ar    1  <O>11      -0.0538
  13 C12      -3.2608     2.2983    -3.9569  C.ar    1  <O>11      -0.0143
  14 C13      -6.2460     2.1550    -5.3010  C.ar    1  <O>11       0.0234
  15 C14      -7.4368     2.1153    -6.0467  C.ar    1  <O>11      -0.0059
  16 C15      -7.6401     3.0169    -7.0973  C.ar    1  <O>11       0.1611
  17 O2       -8.7376     2.9683    -7.7810  O.3     1  <O>11      -0.5032
  18 C16      -6.6644     3.9678    -7.4090  C.ar    1  <O>11       0.1846
  19 O3       -6.8472     4.8039    -8.3795  O.3     1  <O>11      -0.5019
  20 C17      -5.4821     4.0106    -6.6609  C.ar    1  <O>11       0.1170
  21 N1       -4.4788     4.9916    -6.9865  N.4     1  <O>11      -0.2014
  22 O4       -4.5363     5.2891    -8.4036  O.3     1  <O>11      -0.2807
  23 F1       -3.1763     4.4737    -6.6568  F       1  <O>11      -0.0963
  24 C18      -5.2699     3.1166    -5.6115  C.ar    1  <O>11      -0.0215
  25 H1       -6.2258     2.1413    -2.3210  H       1  <O>11       0.0394
  26 H2       -5.0247     0.8279    -2.3849  H       1  <O>11       0.0394
  27 H3       -8.7233     3.6544    -8.4668  H       1  <O>11       0.2923
  28 H4       -6.0750     5.3867    -8.4548  H       1  <O>11       0.2924
  29 H5       -4.6517     5.8431    -6.4526  H       1  <O>11       0.2057
  30 H6       -5.3524     4.2133    -2.1329  H       1  <O>11       0.0621
  31 H7       -3.5895     5.8408    -2.5002  H       1  <O>11       0.0618
  32 H8       -1.6472     5.2449    -3.8216  H       1  <O>11       0.0624
  33 H9       -0.3916     3.5875    -5.1470  H       1  <O>11       0.0624
  34 H10      -0.1898     1.3526    -6.0573  H       1  <O>11       0.0618
  35 H11      -1.9208    -0.2926    -5.6353  H       1  <O>11       0.0618
  36 H12      -3.8585     0.3004    -4.3071  H       1  <O>11       0.0624
  37 H13      -8.1636     1.4190    -5.8187  H       1  <O>11       0.0662
  38 H14      -4.3719     4.4792    -8.9114  H       1  <O>11       0.2449
  39 H15      -4.3966     3.1615    -5.0635  H       1  <O>11       0.0647
@<TRIPOS>BOND
     1     1     2    2
     2     2     3    1
     3     3     4    1
     4     4     5   ar
     5     5     6   ar
     6     6     7   ar
     7     7     8   ar
     8     8     9   ar
     9     9    10   ar
    10    10    11   ar
    11    11    12   ar
    12    12    13   ar
    13     4    13   ar
    14     8    13   ar
    15     2    14    1
    16    14    15   ar
    17    15    16   ar
    18    16    17    1
    19    16    18   ar
    20    18    19    1
    21    18    20   ar
    22    20    21    1
    23    21    22    1
    24    21    23    1
    25    20    24   ar
    26    14    24   ar
    27     3    25    1
    28     3    26    1
    29    17    27    1
    30    19    28    1
    31    21    29    1
    32     5    30    1
    33     6    31    1
    34     7    32    1
    35     9    33    1
    36    10    34    1
    37    11    35    1
    38    12    36    1
    39    15    37    1
    40    22    38    1
    41    24    39    1
@<TRIPOS>MOLECULE
mol67_1_30
 39 41 0 0 0
SMALL
USER_CHARGES
****
VDW energy = 140.95
@<TRIPOS>ATOM
   1 O1       -6.3195     0.0314    -4.3629  O.2     1  <O>11      -0.2917
   2 C1       -6.0269     1.2087    -4.2154  C.2     1  <O>11       0.1676
   3 C2       -5.4450     1.6770    -2.9240  C.3     1  <O>11       0.0362
   4 C3       -6.1778     1.0587    -1.8012  C.ar    1  <O>11      -0.0322
   5 C4       -6.8273     1.8884    -0.8831  C.ar    1  <O>11      -0.0576
   6 C5       -7.5451     1.3232     0.1663  C.ar    1  <O>11      -0.0609
   7 C6       -7.5894    -0.0671     0.3118  C.ar    1  <O>11      -0.0540
   8 C7       -6.9249    -0.9106    -0.5939  C.ar    1  <O>11      -0.0176
   9 C8       -6.9554    -2.3074    -0.4572  C.ar    1  <O>11      -0.0540
  10 C9       -6.2932    -3.1283    -1.3711  C.ar    1  <O>11      -0.0612
  11 C10      -5.5950    -2.5640    -2.4357  C.ar    1  <O>11      -0.0612
  12 C11      -5.5564    -1.1770    -2.5859  C.ar    1  <O>11      -0.0538
  13 C12      -6.2130    -0.3386    -1.6705  C.ar    1  <O>11      -0.0143
  14 C13      -6.2460     2.1550    -5.3010  C.ar    1  <O>11       0.0234
  15 C14      -7.0983     3.2578    -5.1192  C.ar    1  <O>11      -0.0059
  16 C15      -7.3174     4.1587    -6.1671  C.ar    1  <O>11       0.1611
  17 O2       -8.1082     5.1676    -5.9909  O.3     1  <O>11      -0.5032
  18 C16      -6.6858     3.9732    -7.4000  C.ar    1  <O>11       0.1846
  19 O3       -6.8849     4.8032    -8.3725  O.3     1  <O>11      -0.5019
  20 C17      -5.8318     2.8784    -7.5772  C.ar    1  <O>11       0.1170
  21 N1       -5.1839     2.6906    -8.8500  N.4     1  <O>11      -0.2014
  22 O4       -3.9093     2.0307    -8.6503  O.3     1  <O>11      -0.2807
  23 F1       -4.9696     3.9709    -9.4732  F       1  <O>11      -0.0963
  24 C18      -5.6064     1.9748    -6.5389  C.ar    1  <O>11      -0.0215
  25 H1       -4.3945     1.3893    -2.8735  H       1  <O>11       0.0394
  26 H2       -5.5293     2.7619    -2.8588  H       1  <O>11       0.0394
  27 H3       -8.1520     5.6918    -6.8061  H       1  <O>11       0.2923
  28 H4       -6.3721     4.5235    -9.1473  H       1  <O>11       0.2924
  29 H5       -5.7750     2.1149    -9.4494  H       1  <O>11       0.2057
  30 H6       -6.7748     2.9142    -0.9829  H       1  <O>11       0.0621
  31 H7       -8.0441     1.9291     0.8364  H       1  <O>11       0.0618
  32 H8       -8.1181    -0.4794     1.0963  H       1  <O>11       0.0624
  33 H9       -7.4733    -2.7320     0.3280  H       1  <O>11       0.0624
  34 H10      -6.3209    -4.1537    -1.2579  H       1  <O>11       0.0618
  35 H11      -5.1068    -3.1707    -3.1129  H       1  <O>11       0.0618
  36 H12      -5.0399    -0.7632    -3.3777  H       1  <O>11       0.0624
  37 H13      -7.5640     3.4035    -4.2098  H       1  <O>11       0.0662
  38 H14      -3.3470     2.5782    -8.0802  H       1  <O>11       0.2449
  39 H15      -4.9703     1.1745    -6.6798  H       1  <O>11       0.0647
@<TRIPOS>BOND
     1     1     2    2
     2     2     3    1
     3     3     4    1
     4     4     5   ar
     5     5     6   ar
     6     6     7   ar
     7     7     8   ar
     8     8     9   ar
     9     9    10   ar
    10    10    11   ar
    11    11    12   ar
    12    12    13   ar
    13     4    13   ar
    14     8    13   ar
    15     2    14    1
    16    14    15   ar
    17    15    16   ar
    18    16    17    1
    19    16    18   ar
    20    18    19    1
    21    18    20   ar
    22    20    21    1
    23    21    22    1
    24    21    23    1
    25    20    24   ar
    26    14    24   ar
    27     3    25    1
    28     3    26    1
    29    17    27    1
    30    19    28    1
    31    21    29    1
    32     5    30    1
    33     6    31    1
    34     7    32    1
    35     9    33    1
    36    10    34    1
    37    11    35    1
    38    12    36    1
    39    15    37    1
    40    22    38    1
    41    24    39    1
