@<TRIPOS>MOLECULE
mol68_1_1
 37 39 0 0 0
SMALL
USER_CHARGES
****
VDW energy = 192.43
@<TRIPOS>ATOM
   1 O1       -7.0008     4.0341     0.0422  O.2     1  <O>11      -0.2651
   2 C1       -6.8891     5.2237     0.2984  C.2     1  <O>11       0.3005
   3 N1       -7.9530     6.0660     0.1150  N.am    1  <O>11      -0.2298
   4 N2       -9.1490     5.5730    -0.3580  N.pl3   1  <O>11      -0.2641
   5 C2       -9.3530     5.4102    -1.7853  C.ar    1  <O>11       0.0466
   6 C3       -9.6672     6.5209    -2.5875  C.ar    1  <O>11      -0.0392
   7 C4       -9.8754     6.3612    -3.9621  C.ar    1  <O>11      -0.0578
   8 C5       -9.7694     5.0970    -4.5471  C.ar    1  <O>11      -0.0315
   9 C6       -9.4512     3.9927    -3.7489  C.ar    1  <O>11       0.1234
  10 N3       -9.3445     2.6908    -4.3572  N.4     1  <O>11       0.0060
  11 O2       -8.3375     2.7258    -5.3987  O.2     1  <O>11      -0.1300
  12 O3      -10.6217     2.3217    -4.9354  O.2     1  <O>11      -0.3961
  13 C7       -9.2394     4.1423    -2.3775  C.ar    1  <O>11      -0.0093
  14 C8       -5.5960     5.7570     0.8100  C.2     1  <O>11       0.2507
  15 O4       -5.4850     6.9470     1.0660  O.2     1  <O>11      -0.2816
  16 C9       -4.5060     4.8940     0.9980  C.ar    1  <O>11       0.0519
  17 C10      -3.5826     4.6812    -0.0078  C.ar    1  <O>11       0.0137
  18 N4       -2.6491     3.7883     0.4942  N.ar    1  <O>11      -0.3599
  19 C11      -2.9645     3.4349     1.7945  C.ar    1  <O>11       0.0472
  20 C12      -2.3338     2.5689     2.7061  C.ar    1  <O>11      -0.0378
  21 C13      -2.9088     2.4098     3.9695  C.ar    1  <O>11      -0.0598
  22 C14      -4.0722     3.0869     4.3203  C.ar    1  <O>11      -0.0611
  23 C15      -4.6919     3.9465     3.4089  C.ar    1  <O>11      -0.0519
  24 C16      -4.1319     4.1239     2.1281  C.ar    1  <O>11       0.0106
  25 H1       -7.8590     7.0590     0.3290  H       1  <O>11       0.1731
  26 H2       -9.8910     5.3223     0.2955  H       1  <O>11       0.1700
  27 H3       -1.8503     3.4457    -0.0195  H       1  <O>11       0.1654
  28 H4       -9.7445     7.4576    -2.1612  H       1  <O>11       0.0636
  29 H5      -10.1080     7.1800    -4.5456  H       1  <O>11       0.0619
  30 H6       -9.9246     4.9784    -5.5605  H       1  <O>11       0.0640
  31 H7      -11.3808     2.2543    -4.3903  H       1  <O>11       0.3292
  32 H8       -8.9995     3.3217    -1.7994  H       1  <O>11       0.0659
  33 H9       -3.5872     5.1045    -0.9489  H       1  <O>11       0.0814
  34 H10      -1.4705     2.0653     2.4490  H       1  <O>11       0.0638
  35 H11      -2.4630     1.7792     4.6540  H       1  <O>11       0.0618
  36 H12      -4.4801     2.9539     5.2589  H       1  <O>11       0.0618
  37 H13      -5.5544     4.4481     3.6724  H       1  <O>11       0.0624
@<TRIPOS>BOND
     1     1     2    2
     2     2     3   am
     3     3     4    1
     4     4     5    1
     5     5     6   ar
     6     6     7   ar
     7     7     8   ar
     8     8     9   ar
     9     9    10    1
    10    10    11    2
    11    10    12    1
    12     9    13   ar
    13     5    13   ar
    14     2    14    1
    15    14    15    2
    16    14    16    1
    17    16    17   ar
    18    17    18   ar
    19    18    19   ar
    20    19    20   ar
    21    20    21   ar
    22    21    22   ar
    23    22    23   ar
    24    23    24   ar
    25    16    24   ar
    26    19    24   ar
    27     3    25    1
    28     4    26    1
    29    18    27    1
    30     6    28    1
    31     7    29    1
    32     8    30    1
    33    12    31    1
    34    13    32    1
    35    17    33    1
    36    20    34    1
    37    21    35    1
    38    22    36    1
    39    23    37    1
@<TRIPOS>MOLECULE
mol68_1_2
 37 39 0 0 0
SMALL
USER_CHARGES
****
VDW energy = 192.53
@<TRIPOS>ATOM
   1 O1       -7.0008     4.0341     0.0422  O.2     1  <O>11      -0.2651
   2 C1       -6.8891     5.2237     0.2984  C.2     1  <O>11       0.3005
   3 N1       -7.9530     6.0660     0.1150  N.am    1  <O>11      -0.2298
   4 N2       -9.1490     5.5730    -0.3580  N.pl3   1  <O>11      -0.2641
   5 C2       -9.3530     5.4102    -1.7853  C.ar    1  <O>11       0.0466
   6 C3       -9.3951     6.5345    -2.6279  C.ar    1  <O>11      -0.0392
   7 C4       -9.6036     6.3774    -4.0028  C.ar    1  <O>11      -0.0578
   8 C5       -9.7685     5.1017    -4.5478  C.ar    1  <O>11      -0.0315
   9 C6       -9.7210     3.9827    -3.7092  C.ar    1  <O>11       0.1234
  10 N3       -9.8930     2.6692    -4.2763  N.4     1  <O>11       0.0060
  11 O2       -8.8810     2.4444    -5.2889  O.2     1  <O>11      -0.1300
  12 O3      -11.2073     2.5722    -4.8803  O.2     1  <O>11      -0.3961
  13 C7       -9.5111     4.1289    -2.3372  C.ar    1  <O>11      -0.0093
  14 C8       -5.5960     5.7570     0.8100  C.2     1  <O>11       0.2507
  15 O4       -5.4850     6.9470     1.0660  O.2     1  <O>11      -0.2816
  16 C9       -4.5060     4.8940     0.9980  C.ar    1  <O>11       0.0519
  17 C10      -3.5826     4.6812    -0.0078  C.ar    1  <O>11       0.0137
  18 N4       -2.6491     3.7883     0.4942  N.ar    1  <O>11      -0.3599
  19 C11      -2.9645     3.4349     1.7945  C.ar    1  <O>11       0.0472
  20 C12      -2.3338     2.5689     2.7061  C.ar    1  <O>11      -0.0378
  21 C13      -2.9088     2.4098     3.9695  C.ar    1  <O>11      -0.0598
  22 C14      -4.0722     3.0869     4.3203  C.ar    1  <O>11      -0.0611
  23 C15      -4.6919     3.9465     3.4089  C.ar    1  <O>11      -0.0519
  24 C16      -4.1319     4.1239     2.1281  C.ar    1  <O>11       0.0106
  25 H1       -7.8590     7.0590     0.3290  H       1  <O>11       0.1731
  26 H2       -9.8910     5.3223     0.2955  H       1  <O>11       0.1700
  27 H3       -1.8503     3.4457    -0.0195  H       1  <O>11       0.1654
  28 H4       -9.2716     7.4792    -2.2313  H       1  <O>11       0.0636
  29 H5       -9.6358     7.2068    -4.6162  H       1  <O>11       0.0619
  30 H6       -9.9240     4.9855    -5.5614  H       1  <O>11       0.0640
  31 H7      -11.9742     2.6934    -4.3556  H       1  <O>11       0.3292
  32 H8       -9.4721     3.2961    -1.7290  H       1  <O>11       0.0659
  33 H9       -3.5872     5.1045    -0.9489  H       1  <O>11       0.0814
  34 H10      -1.4705     2.0653     2.4490  H       1  <O>11       0.0638
  35 H11      -2.4630     1.7792     4.6540  H       1  <O>11       0.0618
  36 H12      -4.4801     2.9539     5.2589  H       1  <O>11       0.0618
  37 H13      -5.5544     4.4481     3.6724  H       1  <O>11       0.0624
@<TRIPOS>BOND
     1     1     2    2
     2     2     3   am
     3     3     4    1
     4     4     5    1
     5     5     6   ar
     6     6     7   ar
     7     7     8   ar
     8     8     9   ar
     9     9    10    1
    10    10    11    2
    11    10    12    1
    12     9    13   ar
    13     5    13   ar
    14     2    14    1
    15    14    15    2
    16    14    16    1
    17    16    17   ar
    18    17    18   ar
    19    18    19   ar
    20    19    20   ar
    21    20    21   ar
    22    21    22   ar
    23    22    23   ar
    24    23    24   ar
    25    16    24   ar
    26    19    24   ar
    27     3    25    1
    28     4    26    1
    29    18    27    1
    30     6    28    1
    31     7    29    1
    32     8    30    1
    33    12    31    1
    34    13    32    1
    35    17    33    1
    36    20    34    1
    37    21    35    1
    38    22    36    1
    39    23    37    1
@<TRIPOS>MOLECULE
mol68_1_3
 37 39 0 0 0
SMALL
USER_CHARGES
****
VDW energy = 195.24
@<TRIPOS>ATOM
   1 O1       -7.0008     4.0341     0.0422  O.2     1  <O>11      -0.2651
   2 C1       -6.8891     5.2237     0.2984  C.2     1  <O>11       0.3005
   3 N1       -7.9530     6.0660     0.1150  N.am    1  <O>11      -0.2298
   4 N2       -9.1490     5.5730    -0.3580  N.pl3   1  <O>11      -0.2641
   5 C2      -10.2760     6.4660    -0.5521  C.ar    1  <O>11       0.0466
   6 C3      -10.2191     7.4773    -1.5269  C.ar    1  <O>11      -0.0392
   7 C4      -11.3019     8.3457    -1.7055  C.ar    1  <O>11      -0.0578
   8 C5      -12.4482     8.2116    -0.9183  C.ar    1  <O>11      -0.0315
   9 C6      -12.5062     7.2012     0.0480  C.ar    1  <O>11       0.1234
  10 N3      -13.6904     7.0682     0.8583  N.4     1  <O>11       0.0060
  11 O2      -14.8403     6.8589     0.0016  O.2     1  <O>11      -0.1300
  12 O3      -13.8828     8.2773     1.6345  O.2     1  <O>11      -0.3961
  13 C7      -11.4325     6.3288     0.2320  C.ar    1  <O>11      -0.0093
  14 C8       -5.5960     5.7570     0.8100  C.2     1  <O>11       0.2507
  15 O4       -5.4850     6.9470     1.0660  O.2     1  <O>11      -0.2816
  16 C9       -4.5060     4.8940     0.9980  C.ar    1  <O>11       0.0519
  17 C10      -3.5826     4.6812    -0.0078  C.ar    1  <O>11       0.0137
  18 N4       -2.6491     3.7883     0.4942  N.ar    1  <O>11      -0.3599
  19 C11      -2.9645     3.4349     1.7945  C.ar    1  <O>11       0.0472
  20 C12      -2.3338     2.5689     2.7061  C.ar    1  <O>11      -0.0378
  21 C13      -2.9088     2.4098     3.9695  C.ar    1  <O>11      -0.0598
  22 C14      -4.0722     3.0869     4.3203  C.ar    1  <O>11      -0.0611
  23 C15      -4.6919     3.9465     3.4089  C.ar    1  <O>11      -0.0519
  24 C16      -4.1319     4.1239     2.1281  C.ar    1  <O>11       0.0106
  25 H1       -7.8590     7.0590     0.3290  H       1  <O>11       0.1731
  26 H2       -9.2420     4.5800    -0.5719  H       1  <O>11       0.1700
  27 H3       -1.8503     3.4457    -0.0195  H       1  <O>11       0.1654
  28 H4       -9.3759     7.5796    -2.1129  H       1  <O>11       0.0636
  29 H5      -11.2535     9.0877    -2.4212  H       1  <O>11       0.0619
  30 H6      -13.2462     8.8528    -1.0485  H       1  <O>11       0.0640
  31 H7      -13.2245     8.5544     2.2411  H       1  <O>11       0.3292
  32 H8      -11.4886     5.5836     0.9437  H       1  <O>11       0.0659
  33 H9       -3.5872     5.1045    -0.9489  H       1  <O>11       0.0814
  34 H10      -1.4705     2.0653     2.4490  H       1  <O>11       0.0638
  35 H11      -2.4630     1.7792     4.6540  H       1  <O>11       0.0618
  36 H12      -4.4801     2.9539     5.2589  H       1  <O>11       0.0618
  37 H13      -5.5544     4.4481     3.6724  H       1  <O>11       0.0624
@<TRIPOS>BOND
     1     1     2    2
     2     2     3   am
     3     3     4    1
     4     4     5    1
     5     5     6   ar
     6     6     7   ar
     7     7     8   ar
     8     8     9   ar
     9     9    10    1
    10    10    11    2
    11    10    12    1
    12     9    13   ar
    13     5    13   ar
    14     2    14    1
    15    14    15    2
    16    14    16    1
    17    16    17   ar
    18    17    18   ar
    19    18    19   ar
    20    19    20   ar
    21    20    21   ar
    22    21    22   ar
    23    22    23   ar
    24    23    24   ar
    25    16    24   ar
    26    19    24   ar
    27     3    25    1
    28     4    26    1
    29    18    27    1
    30     6    28    1
    31     7    29    1
    32     8    30    1
    33    12    31    1
    34    13    32    1
    35    17    33    1
    36    20    34    1
    37    21    35    1
    38    22    36    1
    39    23    37    1
@<TRIPOS>MOLECULE
mol68_1_4
 37 39 0 0 0
SMALL
USER_CHARGES
****
VDW energy = 195.35
@<TRIPOS>ATOM
   1 O1       -7.0008     4.0341     0.0422  O.2     1  <O>11      -0.2651
   2 C1       -6.8891     5.2237     0.2984  C.2     1  <O>11       0.3005
   3 N1       -7.9530     6.0660     0.1150  N.am    1  <O>11      -0.2298
   4 N2       -9.1490     5.5730    -0.3580  N.pl3   1  <O>11      -0.2641
   5 C2      -10.2760     6.4660    -0.5521  C.ar    1  <O>11       0.0466
   6 C3      -10.8821     7.0922     0.5508  C.ar    1  <O>11      -0.0392
   7 C4      -11.9765     7.9443     0.3639  C.ar    1  <O>11      -0.0578
   8 C5      -12.4722     8.1808    -0.9206  C.ar    1  <O>11      -0.0315
   9 C6      -11.8648     7.5614    -2.0185  C.ar    1  <O>11       0.1234
  10 N3      -12.3810     7.8077    -3.3412  N.4     1  <O>11       0.0060
  11 O2      -12.3383     9.2294    -3.6189  O.2     1  <O>11      -0.1300
  12 O3      -13.7522     7.3437    -3.4186  O.2     1  <O>11      -0.3961
  13 C7      -10.7715     6.7120    -1.8426  C.ar    1  <O>11      -0.0093
  14 C8       -5.5960     5.7570     0.8100  C.2     1  <O>11       0.2507
  15 O4       -5.4850     6.9470     1.0660  O.2     1  <O>11      -0.2816
  16 C9       -4.5060     4.8940     0.9980  C.ar    1  <O>11       0.0519
  17 C10      -3.5826     4.6812    -0.0078  C.ar    1  <O>11       0.0137
  18 N4       -2.6491     3.7883     0.4942  N.ar    1  <O>11      -0.3599
  19 C11      -2.9645     3.4349     1.7945  C.ar    1  <O>11       0.0472
  20 C12      -2.3338     2.5689     2.7061  C.ar    1  <O>11      -0.0378
  21 C13      -2.9088     2.4098     3.9695  C.ar    1  <O>11      -0.0598
  22 C14      -4.0722     3.0869     4.3203  C.ar    1  <O>11      -0.0611
  23 C15      -4.6919     3.9465     3.4089  C.ar    1  <O>11      -0.0519
  24 C16      -4.1319     4.1239     2.1281  C.ar    1  <O>11       0.0106
  25 H1       -7.8590     7.0590     0.3290  H       1  <O>11       0.1731
  26 H2       -9.2420     4.5800    -0.5719  H       1  <O>11       0.1700
  27 H3       -1.8503     3.4457    -0.0195  H       1  <O>11       0.1654
  28 H4      -10.5187     6.9231     1.5018  H       1  <O>11       0.0636
  29 H5      -12.4188     8.3994     1.1777  H       1  <O>11       0.0619
  30 H6      -13.2803     8.8076    -1.0588  H       1  <O>11       0.0640
  31 H7      -13.9509     6.4412    -3.2635  H       1  <O>11       0.3292
  32 H8      -10.3277     6.2652    -2.6601  H       1  <O>11       0.0659
  33 H9       -3.5872     5.1045    -0.9489  H       1  <O>11       0.0814
  34 H10      -1.4705     2.0653     2.4490  H       1  <O>11       0.0638
  35 H11      -2.4630     1.7792     4.6540  H       1  <O>11       0.0618
  36 H12      -4.4801     2.9539     5.2589  H       1  <O>11       0.0618
  37 H13      -5.5544     4.4481     3.6724  H       1  <O>11       0.0624
@<TRIPOS>BOND
     1     1     2    2
     2     2     3   am
     3     3     4    1
     4     4     5    1
     5     5     6   ar
     6     6     7   ar
     7     7     8   ar
     8     8     9   ar
     9     9    10    1
    10    10    11    2
    11    10    12    1
    12     9    13   ar
    13     5    13   ar
    14     2    14    1
    15    14    15    2
    16    14    16    1
    17    16    17   ar
    18    17    18   ar
    19    18    19   ar
    20    19    20   ar
    21    20    21   ar
    22    21    22   ar
    23    22    23   ar
    24    23    24   ar
    25    16    24   ar
    26    19    24   ar
    27     3    25    1
    28     4    26    1
    29    18    27    1
    30     6    28    1
    31     7    29    1
    32     8    30    1
    33    12    31    1
    34    13    32    1
    35    17    33    1
    36    20    34    1
    37    21    35    1
    38    22    36    1
    39    23    37    1
@<TRIPOS>MOLECULE
mol68_1_5
 37 39 0 0 0
SMALL
USER_CHARGES
****
VDW energy = 196.08
@<TRIPOS>ATOM
   1 O1       -7.0008     4.0341     0.0422  O.2     1  <O>11      -0.2651
   2 C1       -6.8891     5.2237     0.2984  C.2     1  <O>11       0.3005
   3 N1       -7.9530     6.0660     0.1150  N.am    1  <O>11      -0.2298
   4 N2       -9.1490     5.5730    -0.3580  N.pl3   1  <O>11      -0.2641
   5 C2       -9.3530     5.4102    -1.7853  C.ar    1  <O>11       0.0466
   6 C3       -9.0131     4.2009    -2.4163  C.ar    1  <O>11      -0.0392
   7 C4       -9.1993     4.0488    -3.7950  C.ar    1  <O>11      -0.0578
   8 C5       -9.7272     5.0967    -4.5531  C.ar    1  <O>11      -0.0315
   9 C6      -10.0704     6.2981    -3.9233  C.ar    1  <O>11       0.1234
  10 N3      -10.6133     7.3763    -4.7103  N.4     1  <O>11       0.0060
  11 O2      -11.8168     6.9262    -5.3805  O.2     1  <O>11      -0.1300
  12 O3       -9.6381     7.7904    -5.6999  O.2     1  <O>11      -0.3961
  13 C7       -9.8908     6.4587    -2.5487  C.ar    1  <O>11      -0.0093
  14 C8       -5.5960     5.7570     0.8100  C.2     1  <O>11       0.2507
  15 O4       -5.4850     6.9470     1.0660  O.2     1  <O>11      -0.2816
  16 C9       -4.5060     4.8940     0.9980  C.ar    1  <O>11       0.0519
  17 C10      -3.5826     4.6812    -0.0078  C.ar    1  <O>11       0.0137
  18 N4       -2.6491     3.7883     0.4942  N.ar    1  <O>11      -0.3599
  19 C11      -2.9645     3.4349     1.7945  C.ar    1  <O>11       0.0472
  20 C12      -2.3338     2.5689     2.7061  C.ar    1  <O>11      -0.0378
  21 C13      -2.9088     2.4098     3.9695  C.ar    1  <O>11      -0.0598
  22 C14      -4.0722     3.0869     4.3203  C.ar    1  <O>11      -0.0611
  23 C15      -4.6919     3.9465     3.4089  C.ar    1  <O>11      -0.0519
  24 C16      -4.1319     4.1239     2.1281  C.ar    1  <O>11       0.0106
  25 H1       -7.8590     7.0590     0.3290  H       1  <O>11       0.1731
  26 H2       -9.8910     5.3223     0.2955  H       1  <O>11       0.1700
  27 H3       -1.8503     3.4457    -0.0195  H       1  <O>11       0.1654
  28 H4       -8.6250     3.4226    -1.8609  H       1  <O>11       0.0636
  29 H5       -8.9457     3.1594    -4.2531  H       1  <O>11       0.0619
  30 H6       -9.8630     4.9856    -5.5701  H       1  <O>11       0.0640
  31 H7       -8.8005     8.1099    -5.4272  H       1  <O>11       0.3292
  32 H8      -10.1529     7.3471    -2.0938  H       1  <O>11       0.0659
  33 H9       -3.5872     5.1045    -0.9489  H       1  <O>11       0.0814
  34 H10      -1.4705     2.0653     2.4490  H       1  <O>11       0.0638
  35 H11      -2.4630     1.7792     4.6540  H       1  <O>11       0.0618
  36 H12      -4.4801     2.9539     5.2589  H       1  <O>11       0.0618
  37 H13      -5.5544     4.4481     3.6724  H       1  <O>11       0.0624
@<TRIPOS>BOND
     1     1     2    2
     2     2     3   am
     3     3     4    1
     4     4     5    1
     5     5     6   ar
     6     6     7   ar
     7     7     8   ar
     8     8     9   ar
     9     9    10    1
    10    10    11    2
    11    10    12    1
    12     9    13   ar
    13     5    13   ar
    14     2    14    1
    15    14    15    2
    16    14    16    1
    17    16    17   ar
    18    17    18   ar
    19    18    19   ar
    20    19    20   ar
    21    20    21   ar
    22    21    22   ar
    23    22    23   ar
    24    23    24   ar
    25    16    24   ar
    26    19    24   ar
    27     3    25    1
    28     4    26    1
    29    18    27    1
    30     6    28    1
    31     7    29    1
    32     8    30    1
    33    12    31    1
    34    13    32    1
    35    17    33    1
    36    20    34    1
    37    21    35    1
    38    22    36    1
    39    23    37    1
@<TRIPOS>MOLECULE
mol68_1_6
 37 39 0 0 0
SMALL
USER_CHARGES
****
VDW energy = 198.08
@<TRIPOS>ATOM
   1 O1       -7.0008     4.0341     0.0422  O.2     1  <O>11      -0.2651
   2 C1       -6.8891     5.2237     0.2984  C.2     1  <O>11       0.3005
   3 N1       -7.9530     6.0660     0.1150  N.am    1  <O>11      -0.2298
   4 N2       -9.1490     5.5730    -0.3580  N.pl3   1  <O>11      -0.2641
   5 C2       -9.3530     5.4102    -1.7853  C.ar    1  <O>11       0.0466
   6 C3      -10.5714     4.9075    -2.2741  C.ar    1  <O>11      -0.0392
   7 C4      -10.7632     4.7397    -3.6502  C.ar    1  <O>11      -0.0578
   8 C5       -9.7461     5.0735    -4.5478  C.ar    1  <O>11      -0.0315
   9 C6       -8.5356     5.5790    -4.0607  C.ar    1  <O>11       0.1234
  10 N3       -7.4893     5.9204    -4.9909  N.4     1  <O>11       0.0060
  11 O2       -6.1998     5.7356    -4.3558  O.2     1  <O>11      -0.1300
  12 O3       -7.6332     7.3060    -5.3924  O.2     1  <O>11      -0.3961
  13 C7       -8.3357     5.7522    -2.6904  C.ar    1  <O>11      -0.0093
  14 C8       -5.5960     5.7570     0.8100  C.2     1  <O>11       0.2507
  15 O4       -5.4850     6.9470     1.0660  O.2     1  <O>11      -0.2816
  16 C9       -4.5060     4.8940     0.9980  C.ar    1  <O>11       0.0519
  17 C10      -3.5826     4.6812    -0.0078  C.ar    1  <O>11       0.0137
  18 N4       -2.6491     3.7883     0.4942  N.ar    1  <O>11      -0.3599
  19 C11      -2.9645     3.4349     1.7945  C.ar    1  <O>11       0.0472
  20 C12      -2.3338     2.5689     2.7061  C.ar    1  <O>11      -0.0378
  21 C13      -2.9088     2.4098     3.9695  C.ar    1  <O>11      -0.0598
  22 C14      -4.0722     3.0869     4.3203  C.ar    1  <O>11      -0.0611
  23 C15      -4.6919     3.9465     3.4089  C.ar    1  <O>11      -0.0519
  24 C16      -4.1319     4.1239     2.1281  C.ar    1  <O>11       0.0106
  25 H1       -7.8590     7.0590     0.3290  H       1  <O>11       0.1731
  26 H2       -9.8910     5.3223     0.2955  H       1  <O>11       0.1700
  27 H3       -1.8503     3.4457    -0.0195  H       1  <O>11       0.1654
  28 H4      -11.3272     4.6615    -1.6159  H       1  <O>11       0.0636
  29 H5      -11.6590     4.3681    -4.0031  H       1  <O>11       0.0619
  30 H6       -9.8864     4.9483    -5.5625  H       1  <O>11       0.0640
  31 H7       -8.4168     7.5908    -5.8201  H       1  <O>11       0.3292
  32 H8       -7.4410     6.1313    -2.3428  H       1  <O>11       0.0659
  33 H9       -3.5872     5.1045    -0.9489  H       1  <O>11       0.0814
  34 H10      -1.4705     2.0653     2.4490  H       1  <O>11       0.0638
  35 H11      -2.4630     1.7792     4.6540  H       1  <O>11       0.0618
  36 H12      -4.4801     2.9539     5.2589  H       1  <O>11       0.0618
  37 H13      -5.5544     4.4481     3.6724  H       1  <O>11       0.0624
@<TRIPOS>BOND
     1     1     2    2
     2     2     3   am
     3     3     4    1
     4     4     5    1
     5     5     6   ar
     6     6     7   ar
     7     7     8   ar
     8     8     9   ar
     9     9    10    1
    10    10    11    2
    11    10    12    1
    12     9    13   ar
    13     5    13   ar
    14     2    14    1
    15    14    15    2
    16    14    16    1
    17    16    17   ar
    18    17    18   ar
    19    18    19   ar
    20    19    20   ar
    21    20    21   ar
    22    21    22   ar
    23    22    23   ar
    24    23    24   ar
    25    16    24   ar
    26    19    24   ar
    27     3    25    1
    28     4    26    1
    29    18    27    1
    30     6    28    1
    31     7    29    1
    32     8    30    1
    33    12    31    1
    34    13    32    1
    35    17    33    1
    36    20    34    1
    37    21    35    1
    38    22    36    1
    39    23    37    1
@<TRIPOS>MOLECULE
mol68_1_7
 37 39 0 0 0
SMALL
USER_CHARGES
****
VDW energy = 198.23
@<TRIPOS>ATOM
   1 O1       -7.0008     4.0341     0.0422  O.2     1  <O>11      -0.2651
   2 C1       -6.8891     5.2237     0.2984  C.2     1  <O>11       0.3005
   3 N1       -7.9530     6.0660     0.1150  N.am    1  <O>11      -0.2298
   4 N2       -9.1490     5.5730    -0.3580  N.pl3   1  <O>11      -0.2641
   5 C2       -9.3530     5.4102    -1.7853  C.ar    1  <O>11       0.0466
   6 C3      -10.5714     4.9075    -2.2741  C.ar    1  <O>11      -0.0392
   7 C4      -10.7632     4.7397    -3.6502  C.ar    1  <O>11      -0.0578
   8 C5       -9.7461     5.0735    -4.5478  C.ar    1  <O>11      -0.0315
   9 C6       -8.5356     5.5790    -4.0607  C.ar    1  <O>11       0.1234
  10 N3       -7.4893     5.9204    -4.9909  N.4     1  <O>11       0.0060
  11 O2       -8.0081     6.8379    -5.9855  O.2     1  <O>11      -0.1300
  12 O3       -7.0150     4.7179    -5.6470  O.2     1  <O>11      -0.3961
  13 C7       -8.3357     5.7522    -2.6904  C.ar    1  <O>11      -0.0093
  14 C8       -5.5960     5.7570     0.8100  C.2     1  <O>11       0.2507
  15 O4       -5.4850     6.9470     1.0660  O.2     1  <O>11      -0.2816
  16 C9       -4.5060     4.8940     0.9980  C.ar    1  <O>11       0.0519
  17 C10      -4.3060     4.2492     2.2037  C.ar    1  <O>11       0.0137
  18 N4       -3.1588     3.4855     2.0588  N.ar    1  <O>11      -0.3599
  19 C11      -2.6326     3.6348     0.7876  C.ar    1  <O>11       0.0472
  20 C12      -1.4943     3.0782     0.1767  C.ar    1  <O>11      -0.0378
  21 C13      -1.2153     3.4345    -1.1453  C.ar    1  <O>11      -0.0598
  22 C14      -2.0376     4.3144    -1.8414  C.ar    1  <O>11      -0.0611
  23 C15      -3.1674     4.8621    -1.2273  C.ar    1  <O>11      -0.0519
  24 C16      -3.4704     4.5188     0.1054  C.ar    1  <O>11       0.0106
  25 H1       -7.8590     7.0590     0.3290  H       1  <O>11       0.1731
  26 H2       -9.8910     5.3223     0.2955  H       1  <O>11       0.1700
  27 H3       -2.7645     2.9012     2.7818  H       1  <O>11       0.1654
  28 H4      -11.3272     4.6615    -1.6159  H       1  <O>11       0.0636
  29 H5      -11.6590     4.3681    -4.0031  H       1  <O>11       0.0619
  30 H6       -9.8864     4.9483    -5.5625  H       1  <O>11       0.0640
  31 H7       -6.6471     4.0213    -5.1396  H       1  <O>11       0.3292
  32 H8       -7.4410     6.1313    -2.3428  H       1  <O>11       0.0659
  33 H9       -4.8958     4.3222     3.0474  H       1  <O>11       0.0814
  34 H10      -0.8824     2.4250     0.6904  H       1  <O>11       0.0638
  35 H11      -0.3852     3.0383    -1.6131  H       1  <O>11       0.0618
  36 H12      -1.8122     4.5643    -2.8170  H       1  <O>11       0.0618
  37 H13      -3.7760     5.5139    -1.7466  H       1  <O>11       0.0624
@<TRIPOS>BOND
     1     1     2    2
     2     2     3   am
     3     3     4    1
     4     4     5    1
     5     5     6   ar
     6     6     7   ar
     7     7     8   ar
     8     8     9   ar
     9     9    10    1
    10    10    11    2
    11    10    12    1
    12     9    13   ar
    13     5    13   ar
    14     2    14    1
    15    14    15    2
    16    14    16    1
    17    16    17   ar
    18    17    18   ar
    19    18    19   ar
    20    19    20   ar
    21    20    21   ar
    22    21    22   ar
    23    22    23   ar
    24    23    24   ar
    25    16    24   ar
    26    19    24   ar
    27     3    25    1
    28     4    26    1
    29    18    27    1
    30     6    28    1
    31     7    29    1
    32     8    30    1
    33    12    31    1
    34    13    32    1
    35    17    33    1
    36    20    34    1
    37    21    35    1
    38    22    36    1
    39    23    37    1
@<TRIPOS>MOLECULE
mol68_1_8
 37 39 0 0 0
SMALL
USER_CHARGES
****
VDW energy = 198.25
@<TRIPOS>ATOM
   1 O1       -7.0008     4.0341     0.0422  O.2     1  <O>11      -0.2651
   2 C1       -6.8891     5.2237     0.2984  C.2     1  <O>11       0.3005
   3 N1       -7.9530     6.0660     0.1150  N.am    1  <O>11      -0.2298
   4 N2       -9.1490     5.5730    -0.3580  N.pl3   1  <O>11      -0.2641
   5 C2       -9.3530     5.4102    -1.7853  C.ar    1  <O>11       0.0466
   6 C3      -10.5714     4.9075    -2.2741  C.ar    1  <O>11      -0.0392
   7 C4      -10.7632     4.7397    -3.6502  C.ar    1  <O>11      -0.0578
   8 C5       -9.7461     5.0735    -4.5478  C.ar    1  <O>11      -0.0315
   9 C6       -8.5356     5.5790    -4.0607  C.ar    1  <O>11       0.1234
  10 N3       -7.4893     5.9204    -4.9909  N.4     1  <O>11       0.0060
  11 O2       -8.0081     6.8379    -5.9855  O.2     1  <O>11      -0.1300
  12 O3       -7.0150     4.7179    -5.6470  O.2     1  <O>11      -0.3961
  13 C7       -8.3357     5.7522    -2.6904  C.ar    1  <O>11      -0.0093
  14 C8       -5.5960     5.7570     0.8100  C.2     1  <O>11       0.2507
  15 O4       -5.4850     6.9470     1.0660  O.2     1  <O>11      -0.2816
  16 C9       -4.5060     4.8940     0.9980  C.ar    1  <O>11       0.0519
  17 C10      -3.5826     4.6812    -0.0078  C.ar    1  <O>11       0.0137
  18 N4       -2.6491     3.7883     0.4942  N.ar    1  <O>11      -0.3599
  19 C11      -2.9645     3.4349     1.7945  C.ar    1  <O>11       0.0472
  20 C12      -2.3338     2.5689     2.7061  C.ar    1  <O>11      -0.0378
  21 C13      -2.9088     2.4098     3.9695  C.ar    1  <O>11      -0.0598
  22 C14      -4.0722     3.0869     4.3203  C.ar    1  <O>11      -0.0611
  23 C15      -4.6919     3.9465     3.4089  C.ar    1  <O>11      -0.0519
  24 C16      -4.1319     4.1239     2.1281  C.ar    1  <O>11       0.0106
  25 H1       -7.8590     7.0590     0.3290  H       1  <O>11       0.1731
  26 H2       -9.8910     5.3223     0.2955  H       1  <O>11       0.1700
  27 H3       -1.8503     3.4457    -0.0195  H       1  <O>11       0.1654
  28 H4      -11.3272     4.6615    -1.6159  H       1  <O>11       0.0636
  29 H5      -11.6590     4.3681    -4.0031  H       1  <O>11       0.0619
  30 H6       -9.8864     4.9483    -5.5625  H       1  <O>11       0.0640
  31 H7       -6.6471     4.0213    -5.1396  H       1  <O>11       0.3292
  32 H8       -7.4410     6.1313    -2.3428  H       1  <O>11       0.0659
  33 H9       -3.5872     5.1045    -0.9489  H       1  <O>11       0.0814
  34 H10      -1.4705     2.0653     2.4490  H       1  <O>11       0.0638
  35 H11      -2.4630     1.7792     4.6540  H       1  <O>11       0.0618
  36 H12      -4.4801     2.9539     5.2589  H       1  <O>11       0.0618
  37 H13      -5.5544     4.4481     3.6724  H       1  <O>11       0.0624
@<TRIPOS>BOND
     1     1     2    2
     2     2     3   am
     3     3     4    1
     4     4     5    1
     5     5     6   ar
     6     6     7   ar
     7     7     8   ar
     8     8     9   ar
     9     9    10    1
    10    10    11    2
    11    10    12    1
    12     9    13   ar
    13     5    13   ar
    14     2    14    1
    15    14    15    2
    16    14    16    1
    17    16    17   ar
    18    17    18   ar
    19    18    19   ar
    20    19    20   ar
    21    20    21   ar
    22    21    22   ar
    23    22    23   ar
    24    23    24   ar
    25    16    24   ar
    26    19    24   ar
    27     3    25    1
    28     4    26    1
    29    18    27    1
    30     6    28    1
    31     7    29    1
    32     8    30    1
    33    12    31    1
    34    13    32    1
    35    17    33    1
    36    20    34    1
    37    21    35    1
    38    22    36    1
    39    23    37    1
@<TRIPOS>MOLECULE
mol68_1_9
 37 39 0 0 0
SMALL
USER_CHARGES
****
VDW energy = 198.34
@<TRIPOS>ATOM
   1 O1       -7.0008     4.0341     0.0422  O.2     1  <O>11      -0.2651
   2 C1       -6.8891     5.2237     0.2984  C.2     1  <O>11       0.3005
   3 N1       -7.9530     6.0660     0.1150  N.am    1  <O>11      -0.2298
   4 N2       -9.1490     5.5730    -0.3580  N.pl3   1  <O>11      -0.2641
   5 C2       -9.3530     5.4102    -1.7853  C.ar    1  <O>11       0.0466
   6 C3       -8.5932     4.4736    -2.5075  C.ar    1  <O>11      -0.0392
   7 C4       -8.7823     4.3255    -3.8862  C.ar    1  <O>11      -0.0578
   8 C5       -9.7299     5.1052    -4.5537  C.ar    1  <O>11      -0.0315
   9 C6      -10.4898     6.0333    -3.8332  C.ar    1  <O>11       0.1234
  10 N3      -11.4649     6.8361    -4.5269  N.4     1  <O>11       0.0060
  11 O2      -12.4228     5.9702    -5.1848  O.2     1  <O>11      -0.1300
  12 O3      -10.7977     7.6562    -5.5188  O.2     1  <O>11      -0.3961
  13 C7      -10.3102     6.1867    -2.4577  C.ar    1  <O>11      -0.0093
  14 C8       -5.5960     5.7570     0.8100  C.2     1  <O>11       0.2507
  15 O4       -5.4850     6.9470     1.0660  O.2     1  <O>11      -0.2816
  16 C9       -4.5060     4.8940     0.9980  C.ar    1  <O>11       0.0519
  17 C10      -3.5826     4.6812    -0.0078  C.ar    1  <O>11       0.0137
  18 N4       -2.6491     3.7883     0.4942  N.ar    1  <O>11      -0.3599
  19 C11      -2.9645     3.4349     1.7945  C.ar    1  <O>11       0.0472
  20 C12      -2.3338     2.5689     2.7061  C.ar    1  <O>11      -0.0378
  21 C13      -2.9088     2.4098     3.9695  C.ar    1  <O>11      -0.0598
  22 C14      -4.0722     3.0869     4.3203  C.ar    1  <O>11      -0.0611
  23 C15      -4.6919     3.9465     3.4089  C.ar    1  <O>11      -0.0519
  24 C16      -4.1319     4.1239     2.1281  C.ar    1  <O>11       0.0106
  25 H1       -7.8590     7.0590     0.3290  H       1  <O>11       0.1731
  26 H2       -9.8910     5.3223     0.2955  H       1  <O>11       0.1700
  27 H3       -1.8503     3.4457    -0.0195  H       1  <O>11       0.1654
  28 H4       -7.8934     3.8933    -2.0192  H       1  <O>11       0.0636
  29 H5       -8.2199     3.6379    -4.4114  H       1  <O>11       0.0619
  30 H6       -9.8686     4.9975    -5.5707  H       1  <O>11       0.0640
  31 H7      -10.1448     8.2738    -5.2537  H       1  <O>11       0.3292
  32 H8      -10.8803     6.8702    -1.9354  H       1  <O>11       0.0659
  33 H9       -3.5872     5.1045    -0.9489  H       1  <O>11       0.0814
  34 H10      -1.4705     2.0653     2.4490  H       1  <O>11       0.0638
  35 H11      -2.4630     1.7792     4.6540  H       1  <O>11       0.0618
  36 H12      -4.4801     2.9539     5.2589  H       1  <O>11       0.0618
  37 H13      -5.5544     4.4481     3.6724  H       1  <O>11       0.0624
@<TRIPOS>BOND
     1     1     2    2
     2     2     3   am
     3     3     4    1
     4     4     5    1
     5     5     6   ar
     6     6     7   ar
     7     7     8   ar
     8     8     9   ar
     9     9    10    1
    10    10    11    2
    11    10    12    1
    12     9    13   ar
    13     5    13   ar
    14     2    14    1
    15    14    15    2
    16    14    16    1
    17    16    17   ar
    18    17    18   ar
    19    18    19   ar
    20    19    20   ar
    21    20    21   ar
    22    21    22   ar
    23    22    23   ar
    24    23    24   ar
    25    16    24   ar
    26    19    24   ar
    27     3    25    1
    28     4    26    1
    29    18    27    1
    30     6    28    1
    31     7    29    1
    32     8    30    1
    33    12    31    1
    34    13    32    1
    35    17    33    1
    36    20    34    1
    37    21    35    1
    38    22    36    1
    39    23    37    1
@<TRIPOS>MOLECULE
mol68_1_10
 37 39 0 0 0
SMALL
USER_CHARGES
****
VDW energy = 198.61
@<TRIPOS>ATOM
   1 O1       -7.0008     4.0341     0.0422  O.2     1  <O>11      -0.2651
   2 C1       -6.8891     5.2237     0.2984  C.2     1  <O>11       0.3005
   3 N1       -7.9530     6.0660     0.1150  N.am    1  <O>11      -0.2298
   4 N2       -9.1490     5.5730    -0.3580  N.pl3   1  <O>11      -0.2641
   5 C2       -9.3530     5.4102    -1.7853  C.ar    1  <O>11       0.0466
   6 C3       -9.3951     6.5345    -2.6279  C.ar    1  <O>11      -0.0392
   7 C4       -9.6036     6.3774    -4.0028  C.ar    1  <O>11      -0.0578
   8 C5       -9.7685     5.1017    -4.5478  C.ar    1  <O>11      -0.0315
   9 C6       -9.7210     3.9827    -3.7092  C.ar    1  <O>11       0.1234
  10 N3       -9.8930     2.6692    -4.2763  N.4     1  <O>11       0.0060
  11 O2      -10.4967     1.7937    -3.2918  O.2     1  <O>11      -0.1300
  12 O3       -8.6013     2.1377    -4.6644  O.2     1  <O>11      -0.3961
  13 C7       -9.5111     4.1289    -2.3372  C.ar    1  <O>11      -0.0093
  14 C8       -5.5960     5.7570     0.8100  C.2     1  <O>11       0.2507
  15 O4       -5.4850     6.9470     1.0660  O.2     1  <O>11      -0.2816
  16 C9       -4.5060     4.8940     0.9980  C.ar    1  <O>11       0.0519
  17 C10      -3.5826     4.6812    -0.0078  C.ar    1  <O>11       0.0137
  18 N4       -2.6491     3.7883     0.4942  N.ar    1  <O>11      -0.3599
  19 C11      -2.9645     3.4349     1.7945  C.ar    1  <O>11       0.0472
  20 C12      -2.3338     2.5689     2.7061  C.ar    1  <O>11      -0.0378
  21 C13      -2.9088     2.4098     3.9695  C.ar    1  <O>11      -0.0598
  22 C14      -4.0722     3.0869     4.3203  C.ar    1  <O>11      -0.0611
  23 C15      -4.6919     3.9465     3.4089  C.ar    1  <O>11      -0.0519
  24 C16      -4.1319     4.1239     2.1281  C.ar    1  <O>11       0.0106
  25 H1       -7.8590     7.0590     0.3290  H       1  <O>11       0.1731
  26 H2       -9.8910     5.3223     0.2955  H       1  <O>11       0.1700
  27 H3       -1.8503     3.4457    -0.0195  H       1  <O>11       0.1654
  28 H4       -9.2716     7.4792    -2.2313  H       1  <O>11       0.0636
  29 H5       -9.6358     7.2068    -4.6162  H       1  <O>11       0.0619
  30 H6       -9.9240     4.9855    -5.5614  H       1  <O>11       0.0640
  31 H7       -8.0796     2.5902    -5.2978  H       1  <O>11       0.3292
  32 H8       -9.4721     3.2961    -1.7290  H       1  <O>11       0.0659
  33 H9       -3.5872     5.1045    -0.9489  H       1  <O>11       0.0814
  34 H10      -1.4705     2.0653     2.4490  H       1  <O>11       0.0638
  35 H11      -2.4630     1.7792     4.6540  H       1  <O>11       0.0618
  36 H12      -4.4801     2.9539     5.2589  H       1  <O>11       0.0618
  37 H13      -5.5544     4.4481     3.6724  H       1  <O>11       0.0624
@<TRIPOS>BOND
     1     1     2    2
     2     2     3   am
     3     3     4    1
     4     4     5    1
     5     5     6   ar
     6     6     7   ar
     7     7     8   ar
     8     8     9   ar
     9     9    10    1
    10    10    11    2
    11    10    12    1
    12     9    13   ar
    13     5    13   ar
    14     2    14    1
    15    14    15    2
    16    14    16    1
    17    16    17   ar
    18    17    18   ar
    19    18    19   ar
    20    19    20   ar
    21    20    21   ar
    22    21    22   ar
    23    22    23   ar
    24    23    24   ar
    25    16    24   ar
    26    19    24   ar
    27     3    25    1
    28     4    26    1
    29    18    27    1
    30     6    28    1
    31     7    29    1
    32     8    30    1
    33    12    31    1
    34    13    32    1
    35    17    33    1
    36    20    34    1
    37    21    35    1
    38    22    36    1
    39    23    37    1
@<TRIPOS>MOLECULE
mol68_1_11
 37 39 0 0 0
SMALL
USER_CHARGES
****
VDW energy = 198.86
@<TRIPOS>ATOM
   1 O1       -7.0008     4.0341     0.0422  O.2     1  <O>11      -0.2651
   2 C1       -6.8891     5.2237     0.2984  C.2     1  <O>11       0.3005
   3 N1       -7.9530     6.0660     0.1150  N.am    1  <O>11      -0.2298
   4 N2       -9.1490     5.5730    -0.3580  N.pl3   1  <O>11      -0.2641
   5 C2       -9.3530     5.4102    -1.7853  C.ar    1  <O>11       0.0466
   6 C3       -9.8923     6.4604    -2.5484  C.ar    1  <O>11      -0.0392
   7 C4      -10.0997     6.2984    -3.9229  C.ar    1  <O>11      -0.0578
   8 C5       -9.7694     5.0929    -4.5467  C.ar    1  <O>11      -0.0315
   9 C6       -9.2275     4.0499    -3.7874  C.ar    1  <O>11       0.1234
  10 N3       -8.8899     2.8080    -4.4355  N.4     1  <O>11       0.0060
  11 O2       -8.0092     3.0721    -5.5557  O.2     1  <O>11      -0.1300
  12 O3      -10.0996     2.1691    -4.9152  O.2     1  <O>11      -0.3961
  13 C7       -9.0147     4.2026    -2.4165  C.ar    1  <O>11      -0.0093
  14 C8       -5.5960     5.7570     0.8100  C.2     1  <O>11       0.2507
  15 O4       -5.4850     6.9470     1.0660  O.2     1  <O>11      -0.2816
  16 C9       -4.5060     4.8940     0.9980  C.ar    1  <O>11       0.0519
  17 C10      -3.2210     5.2867     0.6753  C.ar    1  <O>11       0.0137
  18 N4       -2.3928     4.2171     0.9761  N.ar    1  <O>11      -0.3599
  19 C11      -3.1285     3.1597     1.4820  C.ar    1  <O>11       0.0472
  20 C12      -2.7444     1.8785     1.9176  C.ar    1  <O>11      -0.0378
  21 C13      -3.7402     1.0130     2.3776  C.ar    1  <O>11      -0.0598
  22 C14      -5.0750     1.4032     2.4058  C.ar    1  <O>11      -0.0611
  23 C15      -5.4480     2.6785     1.9722  C.ar    1  <O>11      -0.0519
  24 C16      -4.4626     3.5701     1.5034  C.ar    1  <O>11       0.0106
  25 H1       -7.8590     7.0590     0.3290  H       1  <O>11       0.1731
  26 H2       -9.8910     5.3223     0.2955  H       1  <O>11       0.1700
  27 H3       -1.3918     4.2130     0.8444  H       1  <O>11       0.1654
  28 H4      -10.1360     7.3540    -2.0934  H       1  <O>11       0.0636
  29 H5      -10.4981     7.0722    -4.4776  H       1  <O>11       0.0619
  30 H6       -9.9238     4.9724    -5.5599  H       1  <O>11       0.0640
  31 H7      -10.7752     1.9316    -4.3110  H       1  <O>11       0.3292
  32 H8       -8.6090     3.4286    -1.8675  H       1  <O>11       0.0659
  33 H9       -2.9341     6.1984     0.2862  H       1  <O>11       0.0814
  34 H10      -1.7550     1.5861     1.8981  H       1  <O>11       0.0638
  35 H11      -3.4810     0.0681     2.7018  H       1  <O>11       0.0618
  36 H12      -5.7942     0.7474     2.7489  H       1  <O>11       0.0618
  37 H13      -6.4390     2.9655     1.9952  H       1  <O>11       0.0624
@<TRIPOS>BOND
     1     1     2    2
     2     2     3   am
     3     3     4    1
     4     4     5    1
     5     5     6   ar
     6     6     7   ar
     7     7     8   ar
     8     8     9   ar
     9     9    10    1
    10    10    11    2
    11    10    12    1
    12     9    13   ar
    13     5    13   ar
    14     2    14    1
    15    14    15    2
    16    14    16    1
    17    16    17   ar
    18    17    18   ar
    19    18    19   ar
    20    19    20   ar
    21    20    21   ar
    22    21    22   ar
    23    22    23   ar
    24    23    24   ar
    25    16    24   ar
    26    19    24   ar
    27     3    25    1
    28     4    26    1
    29    18    27    1
    30     6    28    1
    31     7    29    1
    32     8    30    1
    33    12    31    1
    34    13    32    1
    35    17    33    1
    36    20    34    1
    37    21    35    1
    38    22    36    1
    39    23    37    1
@<TRIPOS>MOLECULE
mol68_1_12
 37 39 0 0 0
SMALL
USER_CHARGES
****
VDW energy = 199.73
@<TRIPOS>ATOM
   1 O1       -7.0008     4.0341     0.0422  O.2     1  <O>11      -0.2651
   2 C1       -6.8891     5.2237     0.2984  C.2     1  <O>11       0.3005
   3 N1       -7.9530     6.0660     0.1150  N.am    1  <O>11      -0.2298
   4 N2       -9.1490     5.5730    -0.3580  N.pl3   1  <O>11      -0.2641
   5 C2       -9.3530     5.4102    -1.7853  C.ar    1  <O>11       0.0466
   6 C3       -8.5932     4.4736    -2.5075  C.ar    1  <O>11      -0.0392
   7 C4       -8.7823     4.3255    -3.8862  C.ar    1  <O>11      -0.0578
   8 C5       -9.7299     5.1052    -4.5537  C.ar    1  <O>11      -0.0315
   9 C6      -10.4898     6.0333    -3.8332  C.ar    1  <O>11       0.1234
  10 N3      -11.4649     6.8361    -4.5269  N.4     1  <O>11       0.0060
  11 O2      -11.6070     8.1116    -3.8538  O.2     1  <O>11      -0.1300
  12 O3      -12.7417     6.1494    -4.5302  O.2     1  <O>11      -0.3961
  13 C7      -10.3102     6.1867    -2.4577  C.ar    1  <O>11      -0.0093
  14 C8       -5.5960     5.7570     0.8100  C.2     1  <O>11       0.2507
  15 O4       -5.4850     6.9470     1.0660  O.2     1  <O>11      -0.2816
  16 C9       -4.5060     4.8940     0.9980  C.ar    1  <O>11       0.0519
  17 C10      -3.5826     4.6812    -0.0078  C.ar    1  <O>11       0.0137
  18 N4       -2.6491     3.7883     0.4942  N.ar    1  <O>11      -0.3599
  19 C11      -2.9645     3.4349     1.7945  C.ar    1  <O>11       0.0472
  20 C12      -2.3338     2.5689     2.7061  C.ar    1  <O>11      -0.0378
  21 C13      -2.9088     2.4098     3.9695  C.ar    1  <O>11      -0.0598
  22 C14      -4.0722     3.0869     4.3203  C.ar    1  <O>11      -0.0611
  23 C15      -4.6919     3.9465     3.4089  C.ar    1  <O>11      -0.0519
  24 C16      -4.1319     4.1239     2.1281  C.ar    1  <O>11       0.0106
  25 H1       -7.8590     7.0590     0.3290  H       1  <O>11       0.1731
  26 H2       -9.8910     5.3223     0.2955  H       1  <O>11       0.1700
  27 H3       -1.8503     3.4457    -0.0195  H       1  <O>11       0.1654
  28 H4       -7.8934     3.8933    -2.0192  H       1  <O>11       0.0636
  29 H5       -8.2199     3.6379    -4.4114  H       1  <O>11       0.0619
  30 H6       -9.8686     4.9975    -5.5707  H       1  <O>11       0.0640
  31 H7      -12.8187     5.3055    -4.9301  H       1  <O>11       0.3292
  32 H8      -10.8803     6.8702    -1.9354  H       1  <O>11       0.0659
  33 H9       -3.5872     5.1045    -0.9489  H       1  <O>11       0.0814
  34 H10      -1.4705     2.0653     2.4490  H       1  <O>11       0.0638
  35 H11      -2.4630     1.7792     4.6540  H       1  <O>11       0.0618
  36 H12      -4.4801     2.9539     5.2589  H       1  <O>11       0.0618
  37 H13      -5.5544     4.4481     3.6724  H       1  <O>11       0.0624
@<TRIPOS>BOND
     1     1     2    2
     2     2     3   am
     3     3     4    1
     4     4     5    1
     5     5     6   ar
     6     6     7   ar
     7     7     8   ar
     8     8     9   ar
     9     9    10    1
    10    10    11    2
    11    10    12    1
    12     9    13   ar
    13     5    13   ar
    14     2    14    1
    15    14    15    2
    16    14    16    1
    17    16    17   ar
    18    17    18   ar
    19    18    19   ar
    20    19    20   ar
    21    20    21   ar
    22    21    22   ar
    23    22    23   ar
    24    23    24   ar
    25    16    24   ar
    26    19    24   ar
    27     3    25    1
    28     4    26    1
    29    18    27    1
    30     6    28    1
    31     7    29    1
    32     8    30    1
    33    12    31    1
    34    13    32    1
    35    17    33    1
    36    20    34    1
    37    21    35    1
    38    22    36    1
    39    23    37    1
@<TRIPOS>MOLECULE
mol68_1_13
 37 39 0 0 0
SMALL
USER_CHARGES
****
VDW energy = 200.32
@<TRIPOS>ATOM
   1 O1       -7.0008     4.0341     0.0422  O.2     1  <O>11      -0.2651
   2 C1       -6.8891     5.2237     0.2984  C.2     1  <O>11       0.3005
   3 N1       -7.9530     6.0660     0.1150  N.am    1  <O>11      -0.2298
   4 N2       -9.1490     5.5730    -0.3580  N.pl3   1  <O>11      -0.2641
   5 C2       -9.8563     4.5478     0.3862  C.ar    1  <O>11       0.0466
   6 C3      -11.0773     4.0406    -0.0914  C.ar    1  <O>11      -0.0392
   7 C4      -11.7648     3.0602     0.6330  C.ar    1  <O>11      -0.0578
   8 C5      -11.2407     2.5764     1.8342  C.ar    1  <O>11      -0.0315
   9 C6      -10.0225     3.0777     2.3060  C.ar    1  <O>11       0.1234
  10 N3       -9.4871     2.5763     3.5464  N.4     1  <O>11       0.0060
  11 O2       -9.4014     1.1309     3.4857  O.2     1  <O>11      -0.1300
  12 O3      -10.3587     2.9608     4.6392  O.2     1  <O>11      -0.3961
  13 C7       -9.3283     4.0538     1.5897  C.ar    1  <O>11      -0.0093
  14 C8       -5.5960     5.7570     0.8100  C.2     1  <O>11       0.2507
  15 O4       -5.4850     6.9470     1.0660  O.2     1  <O>11      -0.2816
  16 C9       -4.5060     4.8940     0.9980  C.ar    1  <O>11       0.0519
  17 C10      -4.3060     4.2492     2.2037  C.ar    1  <O>11       0.0137
  18 N4       -3.1588     3.4855     2.0588  N.ar    1  <O>11      -0.3599
  19 C11      -2.6326     3.6348     0.7876  C.ar    1  <O>11       0.0472
  20 C12      -1.4943     3.0782     0.1767  C.ar    1  <O>11      -0.0378
  21 C13      -1.2153     3.4345    -1.1453  C.ar    1  <O>11      -0.0598
  22 C14      -2.0376     4.3144    -1.8414  C.ar    1  <O>11      -0.0611
  23 C15      -3.1674     4.8621    -1.2273  C.ar    1  <O>11      -0.0519
  24 C16      -3.4704     4.5188     0.1054  C.ar    1  <O>11       0.0106
  25 H1       -7.8590     7.0590     0.3290  H       1  <O>11       0.1731
  26 H2       -9.5373     5.9291    -1.2315  H       1  <O>11       0.1700
  27 H3       -2.7645     2.9012     2.7818  H       1  <O>11       0.1654
  28 H4      -11.4681     4.3925    -0.9793  H       1  <O>11       0.0636
  29 H5      -12.6619     2.6933     0.2785  H       1  <O>11       0.0619
  30 H6      -11.7482     1.8547     2.3696  H       1  <O>11       0.0640
  31 H7      -10.5198     3.8673     4.8133  H       1  <O>11       0.3292
  32 H8       -8.4278     4.4121     1.9443  H       1  <O>11       0.0659
  33 H9       -4.8958     4.3222     3.0474  H       1  <O>11       0.0814
  34 H10      -0.8824     2.4250     0.6904  H       1  <O>11       0.0638
  35 H11      -0.3852     3.0383    -1.6131  H       1  <O>11       0.0618
  36 H12      -1.8122     4.5643    -2.8170  H       1  <O>11       0.0618
  37 H13      -3.7760     5.5139    -1.7466  H       1  <O>11       0.0624
@<TRIPOS>BOND
     1     1     2    2
     2     2     3   am
     3     3     4    1
     4     4     5    1
     5     5     6   ar
     6     6     7   ar
     7     7     8   ar
     8     8     9   ar
     9     9    10    1
    10    10    11    2
    11    10    12    1
    12     9    13   ar
    13     5    13   ar
    14     2    14    1
    15    14    15    2
    16    14    16    1
    17    16    17   ar
    18    17    18   ar
    19    18    19   ar
    20    19    20   ar
    21    20    21   ar
    22    21    22   ar
    23    22    23   ar
    24    23    24   ar
    25    16    24   ar
    26    19    24   ar
    27     3    25    1
    28     4    26    1
    29    18    27    1
    30     6    28    1
    31     7    29    1
    32     8    30    1
    33    12    31    1
    34    13    32    1
    35    17    33    1
    36    20    34    1
    37    21    35    1
    38    22    36    1
    39    23    37    1
@<TRIPOS>MOLECULE
mol68_1_14
 37 39 0 0 0
SMALL
USER_CHARGES
****
VDW energy = 200.69
@<TRIPOS>ATOM
   1 O1       -7.0008     4.0341     0.0422  O.2     1  <O>11      -0.2651
   2 C1       -6.8891     5.2237     0.2984  C.2     1  <O>11       0.3005
   3 N1       -7.9530     6.0660     0.1150  N.am    1  <O>11      -0.2298
   4 N2       -9.1490     5.5730    -0.3580  N.pl3   1  <O>11      -0.2641
   5 C2       -9.3530     5.4102    -1.7853  C.ar    1  <O>11       0.0466
   6 C3       -9.3951     6.5345    -2.6279  C.ar    1  <O>11      -0.0392
   7 C4       -9.6036     6.3774    -4.0028  C.ar    1  <O>11      -0.0578
   8 C5       -9.7685     5.1017    -4.5478  C.ar    1  <O>11      -0.0315
   9 C6       -9.7210     3.9827    -3.7092  C.ar    1  <O>11       0.1234
  10 N3       -9.8930     2.6692    -4.2763  N.4     1  <O>11       0.0060
  11 O2       -9.9396     1.6864    -3.2123  O.2     1  <O>11      -0.1300
  12 O3       -8.7792     2.3731    -5.1557  O.2     1  <O>11      -0.3961
  13 C7       -9.5111     4.1289    -2.3372  C.ar    1  <O>11      -0.0093
  14 C8       -5.5960     5.7570     0.8100  C.2     1  <O>11       0.2507
  15 O4       -5.4850     6.9470     1.0660  O.2     1  <O>11      -0.2816
  16 C9       -4.5060     4.8940     0.9980  C.ar    1  <O>11       0.0519
  17 C10      -3.5826     4.6812    -0.0078  C.ar    1  <O>11       0.0137
  18 N4       -2.6491     3.7883     0.4942  N.ar    1  <O>11      -0.3599
  19 C11      -2.9645     3.4349     1.7945  C.ar    1  <O>11       0.0472
  20 C12      -2.3338     2.5689     2.7061  C.ar    1  <O>11      -0.0378
  21 C13      -2.9088     2.4098     3.9695  C.ar    1  <O>11      -0.0598
  22 C14      -4.0722     3.0869     4.3203  C.ar    1  <O>11      -0.0611
  23 C15      -4.6919     3.9465     3.4089  C.ar    1  <O>11      -0.0519
  24 C16      -4.1319     4.1239     2.1281  C.ar    1  <O>11       0.0106
  25 H1       -7.8590     7.0590     0.3290  H       1  <O>11       0.1731
  26 H2       -9.8910     5.3223     0.2955  H       1  <O>11       0.1700
  27 H3       -1.8503     3.4457    -0.0195  H       1  <O>11       0.1654
  28 H4       -9.2716     7.4792    -2.2313  H       1  <O>11       0.0636
  29 H5       -9.6358     7.2068    -4.6162  H       1  <O>11       0.0619
  30 H6       -9.9240     4.9855    -5.5614  H       1  <O>11       0.0640
  31 H7       -8.6107     2.9191    -5.8984  H       1  <O>11       0.3292
  32 H8       -9.4721     3.2961    -1.7290  H       1  <O>11       0.0659
  33 H9       -3.5872     5.1045    -0.9489  H       1  <O>11       0.0814
  34 H10      -1.4705     2.0653     2.4490  H       1  <O>11       0.0638
  35 H11      -2.4630     1.7792     4.6540  H       1  <O>11       0.0618
  36 H12      -4.4801     2.9539     5.2589  H       1  <O>11       0.0618
  37 H13      -5.5544     4.4481     3.6724  H       1  <O>11       0.0624
@<TRIPOS>BOND
     1     1     2    2
     2     2     3   am
     3     3     4    1
     4     4     5    1
     5     5     6   ar
     6     6     7   ar
     7     7     8   ar
     8     8     9   ar
     9     9    10    1
    10    10    11    2
    11    10    12    1
    12     9    13   ar
    13     5    13   ar
    14     2    14    1
    15    14    15    2
    16    14    16    1
    17    16    17   ar
    18    17    18   ar
    19    18    19   ar
    20    19    20   ar
    21    20    21   ar
    22    21    22   ar
    23    22    23   ar
    24    23    24   ar
    25    16    24   ar
    26    19    24   ar
    27     3    25    1
    28     4    26    1
    29    18    27    1
    30     6    28    1
    31     7    29    1
    32     8    30    1
    33    12    31    1
    34    13    32    1
    35    17    33    1
    36    20    34    1
    37    21    35    1
    38    22    36    1
    39    23    37    1
@<TRIPOS>MOLECULE
mol68_1_15
 37 39 0 0 0
SMALL
USER_CHARGES
****
VDW energy = 200.82
@<TRIPOS>ATOM
   1 O1       -7.0008     4.0341     0.0422  O.2     1  <O>11      -0.2651
   2 C1       -6.8891     5.2237     0.2984  C.2     1  <O>11       0.3005
   3 N1       -7.9530     6.0660     0.1150  N.am    1  <O>11      -0.2298
   4 N2       -9.1490     5.5730    -0.3580  N.pl3   1  <O>11      -0.2641
   5 C2      -10.2760     6.4660    -0.5521  C.ar    1  <O>11       0.0466
   6 C3      -11.4991     5.9689    -1.0346  C.ar    1  <O>11      -0.0392
   7 C4      -12.5821     6.8329    -1.2327  C.ar    1  <O>11      -0.0578
   8 C5      -12.4559     8.1951    -0.9494  C.ar    1  <O>11      -0.0315
   9 C6      -11.2397     8.6882    -0.4639  C.ar    1  <O>11       0.1234
  10 N3      -11.1145    10.0943    -0.1746  N.4     1  <O>11       0.0060
  11 O2      -12.1724    10.4969     0.7303  O.2     1  <O>11      -0.1300
  12 O3      -11.2208    10.8520    -1.4060  O.2     1  <O>11      -0.3961
  13 C7      -10.1547     7.8341    -0.2608  C.ar    1  <O>11      -0.0093
  14 C8       -5.5960     5.7570     0.8100  C.2     1  <O>11       0.2507
  15 O4       -5.4850     6.9470     1.0660  O.2     1  <O>11      -0.2816
  16 C9       -4.5060     4.8940     0.9980  C.ar    1  <O>11       0.0519
  17 C10      -4.3060     4.2492     2.2037  C.ar    1  <O>11       0.0137
  18 N4       -3.1588     3.4855     2.0588  N.ar    1  <O>11      -0.3599
  19 C11      -2.6326     3.6348     0.7876  C.ar    1  <O>11       0.0472
  20 C12      -1.4943     3.0782     0.1767  C.ar    1  <O>11      -0.0378
  21 C13      -1.2153     3.4345    -1.1453  C.ar    1  <O>11      -0.0598
  22 C14      -2.0376     4.3144    -1.8414  C.ar    1  <O>11      -0.0611
  23 C15      -3.1674     4.8621    -1.2273  C.ar    1  <O>11      -0.0519
  24 C16      -3.4704     4.5188     0.1054  C.ar    1  <O>11       0.0106
  25 H1       -7.8590     7.0590     0.3290  H       1  <O>11       0.1731
  26 H2       -9.2420     4.5800    -0.5719  H       1  <O>11       0.1700
  27 H3       -2.7645     2.9012     2.7818  H       1  <O>11       0.1654
  28 H4      -11.5989     4.9632    -1.2434  H       1  <O>11       0.0636
  29 H5      -13.4769     6.4626    -1.5893  H       1  <O>11       0.0619
  30 H6      -13.2537     8.8329    -1.0970  H       1  <O>11       0.0640
  31 H7      -10.6064    10.7088    -2.0987  H       1  <O>11       0.3292
  32 H8       -9.2643     8.2078     0.1032  H       1  <O>11       0.0659
  33 H9       -4.8958     4.3222     3.0474  H       1  <O>11       0.0814
  34 H10      -0.8824     2.4250     0.6904  H       1  <O>11       0.0638
  35 H11      -0.3852     3.0383    -1.6131  H       1  <O>11       0.0618
  36 H12      -1.8122     4.5643    -2.8170  H       1  <O>11       0.0618
  37 H13      -3.7760     5.5139    -1.7466  H       1  <O>11       0.0624
@<TRIPOS>BOND
     1     1     2    2
     2     2     3   am
     3     3     4    1
     4     4     5    1
     5     5     6   ar
     6     6     7   ar
     7     7     8   ar
     8     8     9   ar
     9     9    10    1
    10    10    11    2
    11    10    12    1
    12     9    13   ar
    13     5    13   ar
    14     2    14    1
    15    14    15    2
    16    14    16    1
    17    16    17   ar
    18    17    18   ar
    19    18    19   ar
    20    19    20   ar
    21    20    21   ar
    22    21    22   ar
    23    22    23   ar
    24    23    24   ar
    25    16    24   ar
    26    19    24   ar
    27     3    25    1
    28     4    26    1
    29    18    27    1
    30     6    28    1
    31     7    29    1
    32     8    30    1
    33    12    31    1
    34    13    32    1
    35    17    33    1
    36    20    34    1
    37    21    35    1
    38    22    36    1
    39    23    37    1
@<TRIPOS>MOLECULE
mol68_1_16
 37 39 0 0 0
SMALL
USER_CHARGES
****
VDW energy = 200.88
@<TRIPOS>ATOM
   1 O1       -7.0008     4.0341     0.0422  O.2     1  <O>11      -0.2651
   2 C1       -6.8891     5.2237     0.2984  C.2     1  <O>11       0.3005
   3 N1       -7.9530     6.0660     0.1150  N.am    1  <O>11      -0.2298
   4 N2       -9.1490     5.5730    -0.3580  N.pl3   1  <O>11      -0.2641
   5 C2       -9.3530     5.4102    -1.7853  C.ar    1  <O>11       0.0466
   6 C3      -10.5714     4.9075    -2.2741  C.ar    1  <O>11      -0.0392
   7 C4      -10.7632     4.7397    -3.6502  C.ar    1  <O>11      -0.0578
   8 C5       -9.7461     5.0735    -4.5478  C.ar    1  <O>11      -0.0315
   9 C6       -8.5356     5.5790    -4.0607  C.ar    1  <O>11       0.1234
  10 N3       -7.4893     5.9204    -4.9909  N.4     1  <O>11       0.0060
  11 O2       -6.2951     6.2921    -4.2587  O.2     1  <O>11      -0.1300
  12 O3       -7.9173     7.0366    -5.8109  O.2     1  <O>11      -0.3961
  13 C7       -8.3357     5.7522    -2.6904  C.ar    1  <O>11      -0.0093
  14 C8       -5.5960     5.7570     0.8100  C.2     1  <O>11       0.2507
  15 O4       -5.4850     6.9470     1.0660  O.2     1  <O>11      -0.2816
  16 C9       -4.5060     4.8940     0.9980  C.ar    1  <O>11       0.0519
  17 C10      -3.5826     4.6812    -0.0078  C.ar    1  <O>11       0.0137
  18 N4       -2.6491     3.7883     0.4942  N.ar    1  <O>11      -0.3599
  19 C11      -2.9645     3.4349     1.7945  C.ar    1  <O>11       0.0472
  20 C12      -2.3338     2.5689     2.7061  C.ar    1  <O>11      -0.0378
  21 C13      -2.9088     2.4098     3.9695  C.ar    1  <O>11      -0.0598
  22 C14      -4.0722     3.0869     4.3203  C.ar    1  <O>11      -0.0611
  23 C15      -4.6919     3.9465     3.4089  C.ar    1  <O>11      -0.0519
  24 C16      -4.1319     4.1239     2.1281  C.ar    1  <O>11       0.0106
  25 H1       -7.8590     7.0590     0.3290  H       1  <O>11       0.1731
  26 H2       -9.8910     5.3223     0.2955  H       1  <O>11       0.1700
  27 H3       -1.8503     3.4457    -0.0195  H       1  <O>11       0.1654
  28 H4      -11.3272     4.6615    -1.6159  H       1  <O>11       0.0636
  29 H5      -11.6590     4.3681    -4.0031  H       1  <O>11       0.0619
  30 H6       -9.8864     4.9483    -5.5625  H       1  <O>11       0.0640
  31 H7       -8.6802     6.9571    -6.3491  H       1  <O>11       0.3292
  32 H8       -7.4410     6.1313    -2.3428  H       1  <O>11       0.0659
  33 H9       -3.5872     5.1045    -0.9489  H       1  <O>11       0.0814
  34 H10      -1.4705     2.0653     2.4490  H       1  <O>11       0.0638
  35 H11      -2.4630     1.7792     4.6540  H       1  <O>11       0.0618
  36 H12      -4.4801     2.9539     5.2589  H       1  <O>11       0.0618
  37 H13      -5.5544     4.4481     3.6724  H       1  <O>11       0.0624
@<TRIPOS>BOND
     1     1     2    2
     2     2     3   am
     3     3     4    1
     4     4     5    1
     5     5     6   ar
     6     6     7   ar
     7     7     8   ar
     8     8     9   ar
     9     9    10    1
    10    10    11    2
    11    10    12    1
    12     9    13   ar
    13     5    13   ar
    14     2    14    1
    15    14    15    2
    16    14    16    1
    17    16    17   ar
    18    17    18   ar
    19    18    19   ar
    20    19    20   ar
    21    20    21   ar
    22    21    22   ar
    23    22    23   ar
    24    23    24   ar
    25    16    24   ar
    26    19    24   ar
    27     3    25    1
    28     4    26    1
    29    18    27    1
    30     6    28    1
    31     7    29    1
    32     8    30    1
    33    12    31    1
    34    13    32    1
    35    17    33    1
    36    20    34    1
    37    21    35    1
    38    22    36    1
    39    23    37    1
@<TRIPOS>MOLECULE
mol68_1_17
 37 39 0 0 0
SMALL
USER_CHARGES
****
VDW energy = 202.90
@<TRIPOS>ATOM
   1 O1       -7.0008     4.0341     0.0422  O.2     1  <O>11      -0.2651
   2 C1       -6.8891     5.2237     0.2984  C.2     1  <O>11       0.3005
   3 N1       -7.9530     6.0660     0.1150  N.am    1  <O>11      -0.2298
   4 N2       -9.1490     5.5730    -0.3580  N.pl3   1  <O>11      -0.2641
   5 C2       -9.3530     5.4102    -1.7853  C.ar    1  <O>11       0.0466
   6 C3       -8.5932     4.4736    -2.5075  C.ar    1  <O>11      -0.0392
   7 C4       -8.7823     4.3255    -3.8862  C.ar    1  <O>11      -0.0578
   8 C5       -9.7299     5.1052    -4.5537  C.ar    1  <O>11      -0.0315
   9 C6      -10.4898     6.0333    -3.8332  C.ar    1  <O>11       0.1234
  10 N3      -11.4649     6.8361    -4.5269  N.4     1  <O>11       0.0060
  11 O2      -12.0286     7.8083    -3.6120  O.2     1  <O>11      -0.1300
  12 O3      -12.5219     5.9823    -5.0324  O.2     1  <O>11      -0.3961
  13 C7      -10.3102     6.1867    -2.4577  C.ar    1  <O>11      -0.0093
  14 C8       -5.5960     5.7570     0.8100  C.2     1  <O>11       0.2507
  15 O4       -5.4850     6.9470     1.0660  O.2     1  <O>11      -0.2816
  16 C9       -4.5060     4.8940     0.9980  C.ar    1  <O>11       0.0519
  17 C10      -3.5826     4.6812    -0.0078  C.ar    1  <O>11       0.0137
  18 N4       -2.6491     3.7883     0.4942  N.ar    1  <O>11      -0.3599
  19 C11      -2.9645     3.4349     1.7945  C.ar    1  <O>11       0.0472
  20 C12      -2.3338     2.5689     2.7061  C.ar    1  <O>11      -0.0378
  21 C13      -2.9088     2.4098     3.9695  C.ar    1  <O>11      -0.0598
  22 C14      -4.0722     3.0869     4.3203  C.ar    1  <O>11      -0.0611
  23 C15      -4.6919     3.9465     3.4089  C.ar    1  <O>11      -0.0519
  24 C16      -4.1319     4.1239     2.1281  C.ar    1  <O>11       0.0106
  25 H1       -7.8590     7.0590     0.3290  H       1  <O>11       0.1731
  26 H2       -9.8910     5.3223     0.2955  H       1  <O>11       0.1700
  27 H3       -1.8503     3.4457    -0.0195  H       1  <O>11       0.1654
  28 H4       -7.8934     3.8933    -2.0192  H       1  <O>11       0.0636
  29 H5       -8.2199     3.6379    -4.4114  H       1  <O>11       0.0619
  30 H6       -9.8686     4.9975    -5.5707  H       1  <O>11       0.0640
  31 H7      -12.3210     5.2972    -5.6393  H       1  <O>11       0.3292
  32 H8      -10.8803     6.8702    -1.9354  H       1  <O>11       0.0659
  33 H9       -3.5872     5.1045    -0.9489  H       1  <O>11       0.0814
  34 H10      -1.4705     2.0653     2.4490  H       1  <O>11       0.0638
  35 H11      -2.4630     1.7792     4.6540  H       1  <O>11       0.0618
  36 H12      -4.4801     2.9539     5.2589  H       1  <O>11       0.0618
  37 H13      -5.5544     4.4481     3.6724  H       1  <O>11       0.0624
@<TRIPOS>BOND
     1     1     2    2
     2     2     3   am
     3     3     4    1
     4     4     5    1
     5     5     6   ar
     6     6     7   ar
     7     7     8   ar
     8     8     9   ar
     9     9    10    1
    10    10    11    2
    11    10    12    1
    12     9    13   ar
    13     5    13   ar
    14     2    14    1
    15    14    15    2
    16    14    16    1
    17    16    17   ar
    18    17    18   ar
    19    18    19   ar
    20    19    20   ar
    21    20    21   ar
    22    21    22   ar
    23    22    23   ar
    24    23    24   ar
    25    16    24   ar
    26    19    24   ar
    27     3    25    1
    28     4    26    1
    29    18    27    1
    30     6    28    1
    31     7    29    1
    32     8    30    1
    33    12    31    1
    34    13    32    1
    35    17    33    1
    36    20    34    1
    37    21    35    1
    38    22    36    1
    39    23    37    1
@<TRIPOS>MOLECULE
mol68_1_18
 37 39 0 0 0
SMALL
USER_CHARGES
****
VDW energy = 203.36
@<TRIPOS>ATOM
   1 O1       -7.0008     4.0341     0.0422  O.2     1  <O>11      -0.2651
   2 C1       -6.8891     5.2237     0.2984  C.2     1  <O>11       0.3005
   3 N1       -7.9530     6.0660     0.1150  N.am    1  <O>11      -0.2298
   4 N2       -7.8282     7.4071     0.4035  N.pl3   1  <O>11      -0.2641
   5 C2       -8.9559     8.2991     0.2089  C.ar    1  <O>11       0.0466
   6 C3       -9.4505     8.5445    -1.0838  C.ar    1  <O>11      -0.0392
   7 C4      -10.5308     9.4142    -1.2718  C.ar    1  <O>11      -0.0578
   8 C5      -11.1271    10.0420    -0.1755  C.ar    1  <O>11      -0.0315
   9 C6      -10.6377     9.7929     1.1115  C.ar    1  <O>11       0.1234
  10 N3      -11.2555    10.4442     2.2387  N.4     1  <O>11       0.0060
  11 O2      -12.6634    10.1034     2.2810  O.2     1  <O>11      -0.1300
  12 O3      -11.1124    11.8806     2.1046  O.2     1  <O>11      -0.3961
  13 C7       -9.5624     8.9254     1.3094  C.ar    1  <O>11      -0.0093
  14 C8       -5.5960     5.7570     0.8100  C.2     1  <O>11       0.2507
  15 O4       -5.4850     6.9470     1.0660  O.2     1  <O>11      -0.2816
  16 C9       -4.5060     4.8940     0.9980  C.ar    1  <O>11       0.0519
  17 C10      -3.5826     4.6812    -0.0078  C.ar    1  <O>11       0.0137
  18 N4       -2.6491     3.7883     0.4942  N.ar    1  <O>11      -0.3599
  19 C11      -2.9645     3.4349     1.7945  C.ar    1  <O>11       0.0472
  20 C12      -2.3338     2.5689     2.7061  C.ar    1  <O>11      -0.0378
  21 C13      -2.9088     2.4098     3.9695  C.ar    1  <O>11      -0.0598
  22 C14      -4.0722     3.0869     4.3203  C.ar    1  <O>11      -0.0611
  23 C15      -4.6919     3.9465     3.4089  C.ar    1  <O>11      -0.0519
  24 C16      -4.1319     4.1239     2.1281  C.ar    1  <O>11       0.0106
  25 H1       -8.8381     5.6994    -0.2355  H       1  <O>11       0.1731
  26 H2       -6.9429     7.7727     0.7541  H       1  <O>11       0.1700
  27 H3       -1.8503     3.4457    -0.0195  H       1  <O>11       0.1654
  28 H4       -9.0155     8.0817    -1.8972  H       1  <O>11       0.0636
  29 H5      -10.8881     9.5922    -2.2234  H       1  <O>11       0.0619
  30 H6      -11.9226    10.6847    -0.3137  H       1  <O>11       0.0640
  31 H7      -10.2587    12.2645     2.0625  H       1  <O>11       0.3292
  32 H8       -9.2135     8.7446     2.2636  H       1  <O>11       0.0659
  33 H9       -3.5872     5.1045    -0.9489  H       1  <O>11       0.0814
  34 H10      -1.4705     2.0653     2.4490  H       1  <O>11       0.0638
  35 H11      -2.4630     1.7792     4.6540  H       1  <O>11       0.0618
  36 H12      -4.4801     2.9539     5.2589  H       1  <O>11       0.0618
  37 H13      -5.5544     4.4481     3.6724  H       1  <O>11       0.0624
@<TRIPOS>BOND
     1     1     2    2
     2     2     3   am
     3     3     4    1
     4     4     5    1
     5     5     6   ar
     6     6     7   ar
     7     7     8   ar
     8     8     9   ar
     9     9    10    1
    10    10    11    2
    11    10    12    1
    12     9    13   ar
    13     5    13   ar
    14     2    14    1
    15    14    15    2
    16    14    16    1
    17    16    17   ar
    18    17    18   ar
    19    18    19   ar
    20    19    20   ar
    21    20    21   ar
    22    21    22   ar
    23    22    23   ar
    24    23    24   ar
    25    16    24   ar
    26    19    24   ar
    27     3    25    1
    28     4    26    1
    29    18    27    1
    30     6    28    1
    31     7    29    1
    32     8    30    1
    33    12    31    1
    34    13    32    1
    35    17    33    1
    36    20    34    1
    37    21    35    1
    38    22    36    1
    39    23    37    1
@<TRIPOS>MOLECULE
mol68_1_19
 37 39 0 0 0
SMALL
USER_CHARGES
****
VDW energy = 204.11
@<TRIPOS>ATOM
   1 O1       -7.0008     4.0341     0.0422  O.2     1  <O>11      -0.2651
   2 C1       -6.8891     5.2237     0.2984  C.2     1  <O>11       0.3005
   3 N1       -7.9530     6.0660     0.1150  N.am    1  <O>11      -0.2298
   4 N2       -9.1490     5.5730    -0.3580  N.pl3   1  <O>11      -0.2641
   5 C2       -9.3530     5.4102    -1.7853  C.ar    1  <O>11       0.0466
   6 C3       -9.3951     6.5345    -2.6279  C.ar    1  <O>11      -0.0392
   7 C4       -9.6036     6.3774    -4.0028  C.ar    1  <O>11      -0.0578
   8 C5       -9.7685     5.1017    -4.5478  C.ar    1  <O>11      -0.0315
   9 C6       -9.7210     3.9827    -3.7092  C.ar    1  <O>11       0.1234
  10 N3       -9.8930     2.6692    -4.2763  N.4     1  <O>11       0.0060
  11 O2       -8.8810     2.4444    -5.2889  O.2     1  <O>11      -0.1300
  12 O3      -11.2073     2.5722    -4.8803  O.2     1  <O>11      -0.3961
  13 C7       -9.5111     4.1289    -2.3372  C.ar    1  <O>11      -0.0093
  14 C8       -5.5960     5.7570     0.8100  C.2     1  <O>11       0.2507
  15 O4       -4.6470     5.0042     0.9733  O.2     1  <O>11      -0.2816
  16 C9       -5.4672     7.1227     1.1043  C.ar    1  <O>11       0.0519
  17 C10      -5.7307     7.6075     2.3712  C.ar    1  <O>11       0.0137
  18 N4       -5.5127     8.9753     2.3249  N.ar    1  <O>11      -0.3599
  19 C11      -5.1169     9.3620     1.0565  C.ar    1  <O>11       0.0472
  20 C12      -4.7915    10.6224     0.5232  C.ar    1  <O>11      -0.0378
  21 C13      -4.4288    10.6940    -0.8242  C.ar    1  <O>11      -0.0598
  22 C14      -4.3891     9.5535    -1.6196  C.ar    1  <O>11      -0.0611
  23 C15      -4.7128     8.3049    -1.0816  C.ar    1  <O>11      -0.0519
  24 C16      -5.0822     8.2059     0.2747  C.ar    1  <O>11       0.0106
  25 H1       -7.8590     7.0590     0.3290  H       1  <O>11       0.1731
  26 H2       -9.8910     5.3223     0.2955  H       1  <O>11       0.1700
  27 H3       -5.6266     9.6003     3.1096  H       1  <O>11       0.1654
  28 H4       -9.2716     7.4792    -2.2313  H       1  <O>11       0.0636
  29 H5       -9.6358     7.2068    -4.6162  H       1  <O>11       0.0619
  30 H6       -9.9240     4.9855    -5.5614  H       1  <O>11       0.0640
  31 H7      -11.9742     2.6934    -4.3556  H       1  <O>11       0.3292
  32 H8       -9.4721     3.2961    -1.7290  H       1  <O>11       0.0659
  33 H9       -6.0311     7.0583     3.1916  H       1  <O>11       0.0814
  34 H10      -4.8199    11.4703     1.1108  H       1  <O>11       0.0638
  35 H11      -4.1864    11.6086    -1.2363  H       1  <O>11       0.0618
  36 H12      -4.1191     9.6298    -2.6127  H       1  <O>11       0.0618
  37 H13      -4.6815     7.4604    -1.6740  H       1  <O>11       0.0624
@<TRIPOS>BOND
     1     1     2    2
     2     2     3   am
     3     3     4    1
     4     4     5    1
     5     5     6   ar
     6     6     7   ar
     7     7     8   ar
     8     8     9   ar
     9     9    10    1
    10    10    11    2
    11    10    12    1
    12     9    13   ar
    13     5    13   ar
    14     2    14    1
    15    14    15    2
    16    14    16    1
    17    16    17   ar
    18    17    18   ar
    19    18    19   ar
    20    19    20   ar
    21    20    21   ar
    22    21    22   ar
    23    22    23   ar
    24    23    24   ar
    25    16    24   ar
    26    19    24   ar
    27     3    25    1
    28     4    26    1
    29    18    27    1
    30     6    28    1
    31     7    29    1
    32     8    30    1
    33    12    31    1
    34    13    32    1
    35    17    33    1
    36    20    34    1
    37    21    35    1
    38    22    36    1
    39    23    37    1
@<TRIPOS>MOLECULE
mol68_1_20
 37 39 0 0 0
SMALL
USER_CHARGES
****
VDW energy = 204.19
@<TRIPOS>ATOM
   1 O1       -7.0008     4.0341     0.0422  O.2     1  <O>11      -0.2651
   2 C1       -6.8891     5.2237     0.2984  C.2     1  <O>11       0.3005
   3 N1       -7.9530     6.0660     0.1150  N.am    1  <O>11      -0.2298
   4 N2       -9.1490     5.5730    -0.3580  N.pl3   1  <O>11      -0.2641
   5 C2       -9.3530     5.4102    -1.7853  C.ar    1  <O>11       0.0466
   6 C3      -10.5714     4.9075    -2.2741  C.ar    1  <O>11      -0.0392
   7 C4      -10.7632     4.7397    -3.6502  C.ar    1  <O>11      -0.0578
   8 C5       -9.7461     5.0735    -4.5478  C.ar    1  <O>11      -0.0315
   9 C6       -8.5356     5.5790    -4.0607  C.ar    1  <O>11       0.1234
  10 N3       -7.4893     5.9204    -4.9909  N.4     1  <O>11       0.0060
  11 O2       -8.0081     6.8379    -5.9855  O.2     1  <O>11      -0.1300
  12 O3       -7.0150     4.7179    -5.6470  O.2     1  <O>11      -0.3961
  13 C7       -8.3357     5.7522    -2.6904  C.ar    1  <O>11      -0.0093
  14 C8       -5.5960     5.7570     0.8100  C.2     1  <O>11       0.2507
  15 O4       -5.4850     6.9470     1.0660  O.2     1  <O>11      -0.2816
  16 C9       -4.5060     4.8940     0.9980  C.ar    1  <O>11       0.0519
  17 C10      -3.2210     5.2867     0.6753  C.ar    1  <O>11       0.0137
  18 N4       -2.3928     4.2171     0.9761  N.ar    1  <O>11      -0.3599
  19 C11      -3.1285     3.1597     1.4820  C.ar    1  <O>11       0.0472
  20 C12      -2.7444     1.8785     1.9176  C.ar    1  <O>11      -0.0378
  21 C13      -3.7402     1.0130     2.3776  C.ar    1  <O>11      -0.0598
  22 C14      -5.0750     1.4032     2.4058  C.ar    1  <O>11      -0.0611
  23 C15      -5.4480     2.6785     1.9722  C.ar    1  <O>11      -0.0519
  24 C16      -4.4626     3.5701     1.5034  C.ar    1  <O>11       0.0106
  25 H1       -7.8590     7.0590     0.3290  H       1  <O>11       0.1731
  26 H2       -9.8910     5.3223     0.2955  H       1  <O>11       0.1700
  27 H3       -1.3918     4.2130     0.8444  H       1  <O>11       0.1654
  28 H4      -11.3272     4.6615    -1.6159  H       1  <O>11       0.0636
  29 H5      -11.6590     4.3681    -4.0031  H       1  <O>11       0.0619
  30 H6       -9.8864     4.9483    -5.5625  H       1  <O>11       0.0640
  31 H7       -6.6471     4.0213    -5.1396  H       1  <O>11       0.3292
  32 H8       -7.4410     6.1313    -2.3428  H       1  <O>11       0.0659
  33 H9       -2.9341     6.1984     0.2862  H       1  <O>11       0.0814
  34 H10      -1.7550     1.5861     1.8981  H       1  <O>11       0.0638
  35 H11      -3.4810     0.0681     2.7018  H       1  <O>11       0.0618
  36 H12      -5.7942     0.7474     2.7489  H       1  <O>11       0.0618
  37 H13      -6.4390     2.9655     1.9952  H       1  <O>11       0.0624
@<TRIPOS>BOND
     1     1     2    2
     2     2     3   am
     3     3     4    1
     4     4     5    1
     5     5     6   ar
     6     6     7   ar
     7     7     8   ar
     8     8     9   ar
     9     9    10    1
    10    10    11    2
    11    10    12    1
    12     9    13   ar
    13     5    13   ar
    14     2    14    1
    15    14    15    2
    16    14    16    1
    17    16    17   ar
    18    17    18   ar
    19    18    19   ar
    20    19    20   ar
    21    20    21   ar
    22    21    22   ar
    23    22    23   ar
    24    23    24   ar
    25    16    24   ar
    26    19    24   ar
    27     3    25    1
    28     4    26    1
    29    18    27    1
    30     6    28    1
    31     7    29    1
    32     8    30    1
    33    12    31    1
    34    13    32    1
    35    17    33    1
    36    20    34    1
    37    21    35    1
    38    22    36    1
    39    23    37    1
@<TRIPOS>MOLECULE
mol68_1_21
 37 39 0 0 0
SMALL
USER_CHARGES
****
VDW energy = 205.88
@<TRIPOS>ATOM
   1 O1       -7.0008     4.0341     0.0422  O.2     1  <O>11      -0.2651
   2 C1       -6.8891     5.2237     0.2984  C.2     1  <O>11       0.3005
   3 N1       -7.9530     6.0660     0.1150  N.am    1  <O>11      -0.2298
   4 N2       -9.1490     5.5730    -0.3580  N.pl3   1  <O>11      -0.2641
   5 C2       -9.3530     5.4102    -1.7853  C.ar    1  <O>11       0.0466
   6 C3      -10.5714     4.9075    -2.2741  C.ar    1  <O>11      -0.0392
   7 C4      -10.7632     4.7397    -3.6502  C.ar    1  <O>11      -0.0578
   8 C5       -9.7461     5.0735    -4.5478  C.ar    1  <O>11      -0.0315
   9 C6       -8.5356     5.5790    -4.0607  C.ar    1  <O>11       0.1234
  10 N3       -7.4893     5.9204    -4.9909  N.4     1  <O>11       0.0060
  11 O2       -7.1076     4.7414    -5.7421  O.2     1  <O>11      -0.1300
  12 O3       -6.3394     6.4194    -4.2624  O.2     1  <O>11      -0.3961
  13 C7       -8.3357     5.7522    -2.6904  C.ar    1  <O>11      -0.0093
  14 C8       -5.5960     5.7570     0.8100  C.2     1  <O>11       0.2507
  15 O4       -5.4850     6.9470     1.0660  O.2     1  <O>11      -0.2816
  16 C9       -4.5060     4.8940     0.9980  C.ar    1  <O>11       0.0519
  17 C10      -3.5826     4.6812    -0.0078  C.ar    1  <O>11       0.0137
  18 N4       -2.6491     3.7883     0.4942  N.ar    1  <O>11      -0.3599
  19 C11      -2.9645     3.4349     1.7945  C.ar    1  <O>11       0.0472
  20 C12      -2.3338     2.5689     2.7061  C.ar    1  <O>11      -0.0378
  21 C13      -2.9088     2.4098     3.9695  C.ar    1  <O>11      -0.0598
  22 C14      -4.0722     3.0869     4.3203  C.ar    1  <O>11      -0.0611
  23 C15      -4.6919     3.9465     3.4089  C.ar    1  <O>11      -0.0519
  24 C16      -4.1319     4.1239     2.1281  C.ar    1  <O>11       0.0106
  25 H1       -7.8590     7.0590     0.3290  H       1  <O>11       0.1731
  26 H2       -9.8910     5.3223     0.2955  H       1  <O>11       0.1700
  27 H3       -1.8503     3.4457    -0.0195  H       1  <O>11       0.1654
  28 H4      -11.3272     4.6615    -1.6159  H       1  <O>11       0.0636
  29 H5      -11.6590     4.3681    -4.0031  H       1  <O>11       0.0619
  30 H6       -9.8864     4.9483    -5.5625  H       1  <O>11       0.0640
  31 H7       -6.4206     7.1823    -3.7244  H       1  <O>11       0.3292
  32 H8       -7.4410     6.1313    -2.3428  H       1  <O>11       0.0659
  33 H9       -3.5872     5.1045    -0.9489  H       1  <O>11       0.0814
  34 H10      -1.4705     2.0653     2.4490  H       1  <O>11       0.0638
  35 H11      -2.4630     1.7792     4.6540  H       1  <O>11       0.0618
  36 H12      -4.4801     2.9539     5.2589  H       1  <O>11       0.0618
  37 H13      -5.5544     4.4481     3.6724  H       1  <O>11       0.0624
@<TRIPOS>BOND
     1     1     2    2
     2     2     3   am
     3     3     4    1
     4     4     5    1
     5     5     6   ar
     6     6     7   ar
     7     7     8   ar
     8     8     9   ar
     9     9    10    1
    10    10    11    2
    11    10    12    1
    12     9    13   ar
    13     5    13   ar
    14     2    14    1
    15    14    15    2
    16    14    16    1
    17    16    17   ar
    18    17    18   ar
    19    18    19   ar
    20    19    20   ar
    21    20    21   ar
    22    21    22   ar
    23    22    23   ar
    24    23    24   ar
    25    16    24   ar
    26    19    24   ar
    27     3    25    1
    28     4    26    1
    29    18    27    1
    30     6    28    1
    31     7    29    1
    32     8    30    1
    33    12    31    1
    34    13    32    1
    35    17    33    1
    36    20    34    1
    37    21    35    1
    38    22    36    1
    39    23    37    1
@<TRIPOS>MOLECULE
mol68_1_22
 37 39 0 0 0
SMALL
USER_CHARGES
****
VDW energy = 206.29
@<TRIPOS>ATOM
   1 O1       -7.0008     4.0341     0.0422  O.2     1  <O>11      -0.2651
   2 C1       -6.8891     5.2237     0.2984  C.2     1  <O>11       0.3005
   3 N1       -7.9530     6.0660     0.1150  N.am    1  <O>11      -0.2298
   4 N2       -9.1490     5.5730    -0.3580  N.pl3   1  <O>11      -0.2641
   5 C2       -9.3530     5.4102    -1.7853  C.ar    1  <O>11       0.0466
   6 C3       -9.3951     6.5345    -2.6279  C.ar    1  <O>11      -0.0392
   7 C4       -9.6036     6.3774    -4.0028  C.ar    1  <O>11      -0.0578
   8 C5       -9.7685     5.1017    -4.5478  C.ar    1  <O>11      -0.0315
   9 C6       -9.7210     3.9827    -3.7092  C.ar    1  <O>11       0.1234
  10 N3       -9.8930     2.6692    -4.2763  N.4     1  <O>11       0.0060
  11 O2      -11.1926     2.5844    -4.9120  O.2     1  <O>11      -0.1300
  12 O3       -9.8060     1.6742    -3.2255  O.2     1  <O>11      -0.3961
  13 C7       -9.5111     4.1289    -2.3372  C.ar    1  <O>11      -0.0093
  14 C8       -5.5960     5.7570     0.8100  C.2     1  <O>11       0.2507
  15 O4       -5.4850     6.9470     1.0660  O.2     1  <O>11      -0.2816
  16 C9       -4.5060     4.8940     0.9980  C.ar    1  <O>11       0.0519
  17 C10      -3.5826     4.6812    -0.0078  C.ar    1  <O>11       0.0137
  18 N4       -2.6491     3.7883     0.4942  N.ar    1  <O>11      -0.3599
  19 C11      -2.9645     3.4349     1.7945  C.ar    1  <O>11       0.0472
  20 C12      -2.3338     2.5689     2.7061  C.ar    1  <O>11      -0.0378
  21 C13      -2.9088     2.4098     3.9695  C.ar    1  <O>11      -0.0598
  22 C14      -4.0722     3.0869     4.3203  C.ar    1  <O>11      -0.0611
  23 C15      -4.6919     3.9465     3.4089  C.ar    1  <O>11      -0.0519
  24 C16      -4.1319     4.1239     2.1281  C.ar    1  <O>11       0.0106
  25 H1       -7.8590     7.0590     0.3290  H       1  <O>11       0.1731
  26 H2       -9.8910     5.3223     0.2955  H       1  <O>11       0.1700
  27 H3       -1.8503     3.4457    -0.0195  H       1  <O>11       0.1654
  28 H4       -9.2716     7.4792    -2.2313  H       1  <O>11       0.0636
  29 H5       -9.6358     7.2068    -4.6162  H       1  <O>11       0.0619
  30 H6       -9.9240     4.9855    -5.5614  H       1  <O>11       0.0640
  31 H7       -9.0237     1.5988    -2.7153  H       1  <O>11       0.3292
  32 H8       -9.4721     3.2961    -1.7290  H       1  <O>11       0.0659
  33 H9       -3.5872     5.1045    -0.9489  H       1  <O>11       0.0814
  34 H10      -1.4705     2.0653     2.4490  H       1  <O>11       0.0638
  35 H11      -2.4630     1.7792     4.6540  H       1  <O>11       0.0618
  36 H12      -4.4801     2.9539     5.2589  H       1  <O>11       0.0618
  37 H13      -5.5544     4.4481     3.6724  H       1  <O>11       0.0624
@<TRIPOS>BOND
     1     1     2    2
     2     2     3   am
     3     3     4    1
     4     4     5    1
     5     5     6   ar
     6     6     7   ar
     7     7     8   ar
     8     8     9   ar
     9     9    10    1
    10    10    11    2
    11    10    12    1
    12     9    13   ar
    13     5    13   ar
    14     2    14    1
    15    14    15    2
    16    14    16    1
    17    16    17   ar
    18    17    18   ar
    19    18    19   ar
    20    19    20   ar
    21    20    21   ar
    22    21    22   ar
    23    22    23   ar
    24    23    24   ar
    25    16    24   ar
    26    19    24   ar
    27     3    25    1
    28     4    26    1
    29    18    27    1
    30     6    28    1
    31     7    29    1
    32     8    30    1
    33    12    31    1
    34    13    32    1
    35    17    33    1
    36    20    34    1
    37    21    35    1
    38    22    36    1
    39    23    37    1
@<TRIPOS>MOLECULE
mol68_1_23
 37 39 0 0 0
SMALL
USER_CHARGES
****
VDW energy = 208.52
@<TRIPOS>ATOM
   1 O1       -7.0008     4.0341     0.0422  O.2     1  <O>11      -0.2651
   2 C1       -6.8891     5.2237     0.2984  C.2     1  <O>11       0.3005
   3 N1       -7.9530     6.0660     0.1150  N.am    1  <O>11      -0.2298
   4 N2       -9.1490     5.5730    -0.3580  N.pl3   1  <O>11      -0.2641
   5 C2       -9.3530     5.4102    -1.7853  C.ar    1  <O>11       0.0466
   6 C3      -10.5714     4.9075    -2.2741  C.ar    1  <O>11      -0.0392
   7 C4      -10.7632     4.7397    -3.6502  C.ar    1  <O>11      -0.0578
   8 C5       -9.7461     5.0735    -4.5478  C.ar    1  <O>11      -0.0315
   9 C6       -8.5356     5.5790    -4.0607  C.ar    1  <O>11       0.1234
  10 N3       -7.4893     5.9204    -4.9909  N.4     1  <O>11       0.0060
  11 O2       -6.1998     5.7356    -4.3558  O.2     1  <O>11      -0.1300
  12 O3       -7.6332     7.3060    -5.3924  O.2     1  <O>11      -0.3961
  13 C7       -8.3357     5.7522    -2.6904  C.ar    1  <O>11      -0.0093
  14 C8       -5.5960     5.7570     0.8100  C.2     1  <O>11       0.2507
  15 O4       -4.6470     5.0042     0.9733  O.2     1  <O>11      -0.2816
  16 C9       -5.4672     7.1227     1.1043  C.ar    1  <O>11       0.0519
  17 C10      -5.7307     7.6075     2.3712  C.ar    1  <O>11       0.0137
  18 N4       -5.5127     8.9753     2.3249  N.ar    1  <O>11      -0.3599
  19 C11      -5.1169     9.3620     1.0565  C.ar    1  <O>11       0.0472
  20 C12      -4.7915    10.6224     0.5232  C.ar    1  <O>11      -0.0378
  21 C13      -4.4288    10.6940    -0.8242  C.ar    1  <O>11      -0.0598
  22 C14      -4.3891     9.5535    -1.6196  C.ar    1  <O>11      -0.0611
  23 C15      -4.7128     8.3049    -1.0816  C.ar    1  <O>11      -0.0519
  24 C16      -5.0822     8.2059     0.2747  C.ar    1  <O>11       0.0106
  25 H1       -7.8590     7.0590     0.3290  H       1  <O>11       0.1731
  26 H2       -9.8910     5.3223     0.2955  H       1  <O>11       0.1700
  27 H3       -5.6266     9.6003     3.1096  H       1  <O>11       0.1654
  28 H4      -11.3272     4.6615    -1.6159  H       1  <O>11       0.0636
  29 H5      -11.6590     4.3681    -4.0031  H       1  <O>11       0.0619
  30 H6       -9.8864     4.9483    -5.5625  H       1  <O>11       0.0640
  31 H7       -8.4168     7.5908    -5.8201  H       1  <O>11       0.3292
  32 H8       -7.4410     6.1313    -2.3428  H       1  <O>11       0.0659
  33 H9       -6.0311     7.0583     3.1916  H       1  <O>11       0.0814
  34 H10      -4.8199    11.4703     1.1108  H       1  <O>11       0.0638
  35 H11      -4.1864    11.6086    -1.2363  H       1  <O>11       0.0618
  36 H12      -4.1191     9.6298    -2.6127  H       1  <O>11       0.0618
  37 H13      -4.6815     7.4604    -1.6740  H       1  <O>11       0.0624
@<TRIPOS>BOND
     1     1     2    2
     2     2     3   am
     3     3     4    1
     4     4     5    1
     5     5     6   ar
     6     6     7   ar
     7     7     8   ar
     8     8     9   ar
     9     9    10    1
    10    10    11    2
    11    10    12    1
    12     9    13   ar
    13     5    13   ar
    14     2    14    1
    15    14    15    2
    16    14    16    1
    17    16    17   ar
    18    17    18   ar
    19    18    19   ar
    20    19    20   ar
    21    20    21   ar
    22    21    22   ar
    23    22    23   ar
    24    23    24   ar
    25    16    24   ar
    26    19    24   ar
    27     3    25    1
    28     4    26    1
    29    18    27    1
    30     6    28    1
    31     7    29    1
    32     8    30    1
    33    12    31    1
    34    13    32    1
    35    17    33    1
    36    20    34    1
    37    21    35    1
    38    22    36    1
    39    23    37    1
@<TRIPOS>MOLECULE
mol68_1_24
 37 39 0 0 0
SMALL
USER_CHARGES
****
VDW energy = 208.89
@<TRIPOS>ATOM
   1 O1       -7.0008     4.0341     0.0422  O.2     1  <O>11      -0.2651
   2 C1       -6.8891     5.2237     0.2984  C.2     1  <O>11       0.3005
   3 N1       -7.9530     6.0660     0.1150  N.am    1  <O>11      -0.2298
   4 N2       -9.1490     5.5730    -0.3580  N.pl3   1  <O>11      -0.2641
   5 C2       -9.3530     5.4102    -1.7853  C.ar    1  <O>11       0.0466
   6 C3       -9.8923     6.4604    -2.5484  C.ar    1  <O>11      -0.0392
   7 C4      -10.0997     6.2984    -3.9229  C.ar    1  <O>11      -0.0578
   8 C5       -9.7694     5.0929    -4.5467  C.ar    1  <O>11      -0.0315
   9 C6       -9.2275     4.0499    -3.7874  C.ar    1  <O>11       0.1234
  10 N3       -8.8899     2.8080    -4.4355  N.4     1  <O>11       0.0060
  11 O2      -10.0804     2.2352    -5.0311  O.2     1  <O>11      -0.1300
  12 O3       -8.3495     1.8842    -3.4577  O.2     1  <O>11      -0.3961
  13 C7       -9.0147     4.2026    -2.4165  C.ar    1  <O>11      -0.0093
  14 C8       -5.5960     5.7570     0.8100  C.2     1  <O>11       0.2507
  15 O4       -5.4850     6.9470     1.0660  O.2     1  <O>11      -0.2816
  16 C9       -4.5060     4.8940     0.9980  C.ar    1  <O>11       0.0519
  17 C10      -3.5826     4.6812    -0.0078  C.ar    1  <O>11       0.0137
  18 N4       -2.6491     3.7883     0.4942  N.ar    1  <O>11      -0.3599
  19 C11      -2.9645     3.4349     1.7945  C.ar    1  <O>11       0.0472
  20 C12      -2.3338     2.5689     2.7061  C.ar    1  <O>11      -0.0378
  21 C13      -2.9088     2.4098     3.9695  C.ar    1  <O>11      -0.0598
  22 C14      -4.0722     3.0869     4.3203  C.ar    1  <O>11      -0.0611
  23 C15      -4.6919     3.9465     3.4089  C.ar    1  <O>11      -0.0519
  24 C16      -4.1319     4.1239     2.1281  C.ar    1  <O>11       0.0106
  25 H1       -7.8590     7.0590     0.3290  H       1  <O>11       0.1731
  26 H2       -9.8910     5.3223     0.2955  H       1  <O>11       0.1700
  27 H3       -1.8503     3.4457    -0.0195  H       1  <O>11       0.1654
  28 H4      -10.1360     7.3540    -2.0934  H       1  <O>11       0.0636
  29 H5      -10.4981     7.0722    -4.4776  H       1  <O>11       0.0619
  30 H6       -9.9238     4.9724    -5.5599  H       1  <O>11       0.0640
  31 H7       -7.5745     2.1074    -2.9805  H       1  <O>11       0.3292
  32 H8       -8.6090     3.4286    -1.8675  H       1  <O>11       0.0659
  33 H9       -3.5872     5.1045    -0.9489  H       1  <O>11       0.0814
  34 H10      -1.4705     2.0653     2.4490  H       1  <O>11       0.0638
  35 H11      -2.4630     1.7792     4.6540  H       1  <O>11       0.0618
  36 H12      -4.4801     2.9539     5.2589  H       1  <O>11       0.0618
  37 H13      -5.5544     4.4481     3.6724  H       1  <O>11       0.0624
@<TRIPOS>BOND
     1     1     2    2
     2     2     3   am
     3     3     4    1
     4     4     5    1
     5     5     6   ar
     6     6     7   ar
     7     7     8   ar
     8     8     9   ar
     9     9    10    1
    10    10    11    2
    11    10    12    1
    12     9    13   ar
    13     5    13   ar
    14     2    14    1
    15    14    15    2
    16    14    16    1
    17    16    17   ar
    18    17    18   ar
    19    18    19   ar
    20    19    20   ar
    21    20    21   ar
    22    21    22   ar
    23    22    23   ar
    24    23    24   ar
    25    16    24   ar
    26    19    24   ar
    27     3    25    1
    28     4    26    1
    29    18    27    1
    30     6    28    1
    31     7    29    1
    32     8    30    1
    33    12    31    1
    34    13    32    1
    35    17    33    1
    36    20    34    1
    37    21    35    1
    38    22    36    1
    39    23    37    1
@<TRIPOS>MOLECULE
mol68_1_25
 37 39 0 0 0
SMALL
USER_CHARGES
****
VDW energy = 210.93
@<TRIPOS>ATOM
   1 O1       -7.0008     4.0341     0.0422  O.2     1  <O>11      -0.2651
   2 C1       -6.8891     5.2237     0.2984  C.2     1  <O>11       0.3005
   3 N1       -7.9530     6.0660     0.1150  N.am    1  <O>11      -0.2298
   4 N2       -9.1490     5.5730    -0.3580  N.pl3   1  <O>11      -0.2641
   5 C2       -9.3530     5.4102    -1.7853  C.ar    1  <O>11       0.0466
   6 C3       -8.5932     4.4736    -2.5075  C.ar    1  <O>11      -0.0392
   7 C4       -8.7823     4.3255    -3.8862  C.ar    1  <O>11      -0.0578
   8 C5       -9.7299     5.1052    -4.5537  C.ar    1  <O>11      -0.0315
   9 C6      -10.4898     6.0333    -3.8332  C.ar    1  <O>11       0.1234
  10 N3      -11.4649     6.8361    -4.5269  N.4     1  <O>11       0.0060
  11 O2      -12.4228     5.9702    -5.1848  O.2     1  <O>11      -0.1300
  12 O3      -10.7977     7.6562    -5.5188  O.2     1  <O>11      -0.3961
  13 C7      -10.3102     6.1867    -2.4577  C.ar    1  <O>11      -0.0093
  14 C8       -5.5960     5.7570     0.8100  C.2     1  <O>11       0.2507
  15 O4       -4.6470     5.0042     0.9733  O.2     1  <O>11      -0.2816
  16 C9       -5.4672     7.1227     1.1043  C.ar    1  <O>11       0.0519
  17 C10      -5.7307     7.6075     2.3712  C.ar    1  <O>11       0.0137
  18 N4       -5.5127     8.9753     2.3249  N.ar    1  <O>11      -0.3599
  19 C11      -5.1169     9.3620     1.0565  C.ar    1  <O>11       0.0472
  20 C12      -4.7915    10.6224     0.5232  C.ar    1  <O>11      -0.0378
  21 C13      -4.4288    10.6940    -0.8242  C.ar    1  <O>11      -0.0598
  22 C14      -4.3891     9.5535    -1.6196  C.ar    1  <O>11      -0.0611
  23 C15      -4.7128     8.3049    -1.0816  C.ar    1  <O>11      -0.0519
  24 C16      -5.0822     8.2059     0.2747  C.ar    1  <O>11       0.0106
  25 H1       -7.8590     7.0590     0.3290  H       1  <O>11       0.1731
  26 H2       -9.8910     5.3223     0.2955  H       1  <O>11       0.1700
  27 H3       -5.6266     9.6003     3.1096  H       1  <O>11       0.1654
  28 H4       -7.8934     3.8933    -2.0192  H       1  <O>11       0.0636
  29 H5       -8.2199     3.6379    -4.4114  H       1  <O>11       0.0619
  30 H6       -9.8686     4.9975    -5.5707  H       1  <O>11       0.0640
  31 H7      -10.1448     8.2738    -5.2537  H       1  <O>11       0.3292
  32 H8      -10.8803     6.8702    -1.9354  H       1  <O>11       0.0659
  33 H9       -6.0311     7.0583     3.1916  H       1  <O>11       0.0814
  34 H10      -4.8199    11.4703     1.1108  H       1  <O>11       0.0638
  35 H11      -4.1864    11.6086    -1.2363  H       1  <O>11       0.0618
  36 H12      -4.1191     9.6298    -2.6127  H       1  <O>11       0.0618
  37 H13      -4.6815     7.4604    -1.6740  H       1  <O>11       0.0624
@<TRIPOS>BOND
     1     1     2    2
     2     2     3   am
     3     3     4    1
     4     4     5    1
     5     5     6   ar
     6     6     7   ar
     7     7     8   ar
     8     8     9   ar
     9     9    10    1
    10    10    11    2
    11    10    12    1
    12     9    13   ar
    13     5    13   ar
    14     2    14    1
    15    14    15    2
    16    14    16    1
    17    16    17   ar
    18    17    18   ar
    19    18    19   ar
    20    19    20   ar
    21    20    21   ar
    22    21    22   ar
    23    22    23   ar
    24    23    24   ar
    25    16    24   ar
    26    19    24   ar
    27     3    25    1
    28     4    26    1
    29    18    27    1
    30     6    28    1
    31     7    29    1
    32     8    30    1
    33    12    31    1
    34    13    32    1
    35    17    33    1
    36    20    34    1
    37    21    35    1
    38    22    36    1
    39    23    37    1
@<TRIPOS>MOLECULE
mol68_1_26
 37 39 0 0 0
SMALL
USER_CHARGES
****
VDW energy = 212.06
@<TRIPOS>ATOM
   1 O1       -7.0008     4.0341     0.0422  O.2     1  <O>11      -0.2651
   2 C1       -6.8891     5.2237     0.2984  C.2     1  <O>11       0.3005
   3 N1       -7.9530     6.0660     0.1150  N.am    1  <O>11      -0.2298
   4 N2       -9.1490     5.5730    -0.3580  N.pl3   1  <O>11      -0.2641
   5 C2       -9.3530     5.4102    -1.7853  C.ar    1  <O>11       0.0466
   6 C3       -9.3951     6.5345    -2.6279  C.ar    1  <O>11      -0.0392
   7 C4       -9.6036     6.3774    -4.0028  C.ar    1  <O>11      -0.0578
   8 C5       -9.7685     5.1017    -4.5478  C.ar    1  <O>11      -0.0315
   9 C6       -9.7210     3.9827    -3.7092  C.ar    1  <O>11       0.1234
  10 N3       -9.8930     2.6692    -4.2763  N.4     1  <O>11       0.0060
  11 O2      -10.4967     1.7937    -3.2918  O.2     1  <O>11      -0.1300
  12 O3       -8.6013     2.1377    -4.6644  O.2     1  <O>11      -0.3961
  13 C7       -9.5111     4.1289    -2.3372  C.ar    1  <O>11      -0.0093
  14 C8       -5.5960     5.7570     0.8100  C.2     1  <O>11       0.2507
  15 O4       -4.6470     5.0042     0.9733  O.2     1  <O>11      -0.2816
  16 C9       -5.4672     7.1227     1.1043  C.ar    1  <O>11       0.0519
  17 C10      -5.7307     7.6075     2.3712  C.ar    1  <O>11       0.0137
  18 N4       -5.5127     8.9753     2.3249  N.ar    1  <O>11      -0.3599
  19 C11      -5.1169     9.3620     1.0565  C.ar    1  <O>11       0.0472
  20 C12      -4.7915    10.6224     0.5232  C.ar    1  <O>11      -0.0378
  21 C13      -4.4288    10.6940    -0.8242  C.ar    1  <O>11      -0.0598
  22 C14      -4.3891     9.5535    -1.6196  C.ar    1  <O>11      -0.0611
  23 C15      -4.7128     8.3049    -1.0816  C.ar    1  <O>11      -0.0519
  24 C16      -5.0822     8.2059     0.2747  C.ar    1  <O>11       0.0106
  25 H1       -7.8590     7.0590     0.3290  H       1  <O>11       0.1731
  26 H2       -9.8910     5.3223     0.2955  H       1  <O>11       0.1700
  27 H3       -5.6266     9.6003     3.1096  H       1  <O>11       0.1654
  28 H4       -9.2716     7.4792    -2.2313  H       1  <O>11       0.0636
  29 H5       -9.6358     7.2068    -4.6162  H       1  <O>11       0.0619
  30 H6       -9.9240     4.9855    -5.5614  H       1  <O>11       0.0640
  31 H7       -8.0796     2.5902    -5.2978  H       1  <O>11       0.3292
  32 H8       -9.4721     3.2961    -1.7290  H       1  <O>11       0.0659
  33 H9       -6.0311     7.0583     3.1916  H       1  <O>11       0.0814
  34 H10      -4.8199    11.4703     1.1108  H       1  <O>11       0.0638
  35 H11      -4.1864    11.6086    -1.2363  H       1  <O>11       0.0618
  36 H12      -4.1191     9.6298    -2.6127  H       1  <O>11       0.0618
  37 H13      -4.6815     7.4604    -1.6740  H       1  <O>11       0.0624
@<TRIPOS>BOND
     1     1     2    2
     2     2     3   am
     3     3     4    1
     4     4     5    1
     5     5     6   ar
     6     6     7   ar
     7     7     8   ar
     8     8     9   ar
     9     9    10    1
    10    10    11    2
    11    10    12    1
    12     9    13   ar
    13     5    13   ar
    14     2    14    1
    15    14    15    2
    16    14    16    1
    17    16    17   ar
    18    17    18   ar
    19    18    19   ar
    20    19    20   ar
    21    20    21   ar
    22    21    22   ar
    23    22    23   ar
    24    23    24   ar
    25    16    24   ar
    26    19    24   ar
    27     3    25    1
    28     4    26    1
    29    18    27    1
    30     6    28    1
    31     7    29    1
    32     8    30    1
    33    12    31    1
    34    13    32    1
    35    17    33    1
    36    20    34    1
    37    21    35    1
    38    22    36    1
    39    23    37    1
@<TRIPOS>MOLECULE
mol68_1_27
 37 39 0 0 0
SMALL
USER_CHARGES
****
VDW energy = 212.10
@<TRIPOS>ATOM
   1 O1       -7.0008     4.0341     0.0422  O.2     1  <O>11      -0.2651
   2 C1       -6.8891     5.2237     0.2984  C.2     1  <O>11       0.3005
   3 N1       -7.9530     6.0660     0.1150  N.am    1  <O>11      -0.2298
   4 N2       -9.1490     5.5730    -0.3580  N.pl3   1  <O>11      -0.2641
   5 C2       -9.3530     5.4102    -1.7853  C.ar    1  <O>11       0.0466
   6 C3      -10.5714     4.9075    -2.2741  C.ar    1  <O>11      -0.0392
   7 C4      -10.7632     4.7397    -3.6502  C.ar    1  <O>11      -0.0578
   8 C5       -9.7461     5.0735    -4.5478  C.ar    1  <O>11      -0.0315
   9 C6       -8.5356     5.5790    -4.0607  C.ar    1  <O>11       0.1234
  10 N3       -7.4893     5.9204    -4.9909  N.4     1  <O>11       0.0060
  11 O2       -8.0081     6.8379    -5.9855  O.2     1  <O>11      -0.1300
  12 O3       -7.0150     4.7179    -5.6470  O.2     1  <O>11      -0.3961
  13 C7       -8.3357     5.7522    -2.6904  C.ar    1  <O>11      -0.0093
  14 C8       -5.5960     5.7570     0.8100  C.2     1  <O>11       0.2507
  15 O4       -4.6470     5.0042     0.9733  O.2     1  <O>11      -0.2816
  16 C9       -5.4672     7.1227     1.1043  C.ar    1  <O>11       0.0519
  17 C10      -5.7307     7.6075     2.3712  C.ar    1  <O>11       0.0137
  18 N4       -5.5127     8.9753     2.3249  N.ar    1  <O>11      -0.3599
  19 C11      -5.1169     9.3620     1.0565  C.ar    1  <O>11       0.0472
  20 C12      -4.7915    10.6224     0.5232  C.ar    1  <O>11      -0.0378
  21 C13      -4.4288    10.6940    -0.8242  C.ar    1  <O>11      -0.0598
  22 C14      -4.3891     9.5535    -1.6196  C.ar    1  <O>11      -0.0611
  23 C15      -4.7128     8.3049    -1.0816  C.ar    1  <O>11      -0.0519
  24 C16      -5.0822     8.2059     0.2747  C.ar    1  <O>11       0.0106
  25 H1       -7.8590     7.0590     0.3290  H       1  <O>11       0.1731
  26 H2       -9.8910     5.3223     0.2955  H       1  <O>11       0.1700
  27 H3       -5.6266     9.6003     3.1096  H       1  <O>11       0.1654
  28 H4      -11.3272     4.6615    -1.6159  H       1  <O>11       0.0636
  29 H5      -11.6590     4.3681    -4.0031  H       1  <O>11       0.0619
  30 H6       -9.8864     4.9483    -5.5625  H       1  <O>11       0.0640
  31 H7       -6.6471     4.0213    -5.1396  H       1  <O>11       0.3292
  32 H8       -7.4410     6.1313    -2.3428  H       1  <O>11       0.0659
  33 H9       -6.0311     7.0583     3.1916  H       1  <O>11       0.0814
  34 H10      -4.8199    11.4703     1.1108  H       1  <O>11       0.0638
  35 H11      -4.1864    11.6086    -1.2363  H       1  <O>11       0.0618
  36 H12      -4.1191     9.6298    -2.6127  H       1  <O>11       0.0618
  37 H13      -4.6815     7.4604    -1.6740  H       1  <O>11       0.0624
@<TRIPOS>BOND
     1     1     2    2
     2     2     3   am
     3     3     4    1
     4     4     5    1
     5     5     6   ar
     6     6     7   ar
     7     7     8   ar
     8     8     9   ar
     9     9    10    1
    10    10    11    2
    11    10    12    1
    12     9    13   ar
    13     5    13   ar
    14     2    14    1
    15    14    15    2
    16    14    16    1
    17    16    17   ar
    18    17    18   ar
    19    18    19   ar
    20    19    20   ar
    21    20    21   ar
    22    21    22   ar
    23    22    23   ar
    24    23    24   ar
    25    16    24   ar
    26    19    24   ar
    27     3    25    1
    28     4    26    1
    29    18    27    1
    30     6    28    1
    31     7    29    1
    32     8    30    1
    33    12    31    1
    34    13    32    1
    35    17    33    1
    36    20    34    1
    37    21    35    1
    38    22    36    1
    39    23    37    1
@<TRIPOS>MOLECULE
mol68_1_28
 37 39 0 0 0
SMALL
USER_CHARGES
****
VDW energy = 217.76
@<TRIPOS>ATOM
   1 O1       -7.0008     4.0341     0.0422  O.2     1  <O>11      -0.2651
   2 C1       -6.8891     5.2237     0.2984  C.2     1  <O>11       0.3005
   3 N1       -7.9530     6.0660     0.1150  N.am    1  <O>11      -0.2298
   4 N2       -9.1490     5.5730    -0.3580  N.pl3   1  <O>11      -0.2641
   5 C2       -9.8563     4.5478     0.3862  C.ar    1  <O>11       0.0466
   6 C3      -11.0773     4.0406    -0.0914  C.ar    1  <O>11      -0.0392
   7 C4      -11.7648     3.0602     0.6330  C.ar    1  <O>11      -0.0578
   8 C5      -11.2407     2.5764     1.8342  C.ar    1  <O>11      -0.0315
   9 C6      -10.0225     3.0777     2.3060  C.ar    1  <O>11       0.1234
  10 N3       -9.4871     2.5763     3.5464  N.4     1  <O>11       0.0060
  11 O2       -9.4014     1.1309     3.4857  O.2     1  <O>11      -0.1300
  12 O3      -10.3587     2.9608     4.6392  O.2     1  <O>11      -0.3961
  13 C7       -9.3283     4.0538     1.5897  C.ar    1  <O>11      -0.0093
  14 C8       -5.5960     5.7570     0.8100  C.2     1  <O>11       0.2507
  15 O4       -5.4850     6.9470     1.0660  O.2     1  <O>11      -0.2816
  16 C9       -4.5060     4.8940     0.9980  C.ar    1  <O>11       0.0519
  17 C10      -4.6069     3.5451     0.7157  C.ar    1  <O>11       0.0137
  18 N4       -3.3729     2.9860     1.0078  N.ar    1  <O>11      -0.3599
  19 C11      -2.4970     3.9540     1.4671  C.ar    1  <O>11       0.0472
  20 C12      -1.1571     3.8769     1.8884  C.ar    1  <O>11      -0.0378
  21 C13      -0.5312     5.0519     2.3127  C.ar    1  <O>11      -0.0598
  22 C14      -1.2103     6.2658     2.3199  C.ar    1  <O>11      -0.0611
  23 C15      -2.5412     6.3339     1.8987  C.ar    1  <O>11      -0.0519
  24 C16      -3.1951     5.1629     1.4663  C.ar    1  <O>11       0.0106
  25 H1       -7.8590     7.0590     0.3290  H       1  <O>11       0.1731
  26 H2       -9.5373     5.9291    -1.2315  H       1  <O>11       0.1700
  27 H3       -3.1469     2.0081     0.8986  H       1  <O>11       0.1654
  28 H4      -11.4681     4.3925    -0.9793  H       1  <O>11       0.0636
  29 H5      -12.6619     2.6933     0.2785  H       1  <O>11       0.0619
  30 H6      -11.7482     1.8547     2.3696  H       1  <O>11       0.0640
  31 H7      -10.5198     3.8673     4.8133  H       1  <O>11       0.3292
  32 H8       -8.4278     4.4121     1.9443  H       1  <O>11       0.0659
  33 H9       -5.4387     3.0505     0.3573  H       1  <O>11       0.0814
  34 H10      -0.6506     2.9779     1.8841  H       1  <O>11       0.0638
  35 H11       0.4514     5.0184     2.6262  H       1  <O>11       0.0618
  36 H12      -0.7286     7.1213     2.6381  H       1  <O>11       0.0618
  37 H13      -3.0421     7.2362     1.9043  H       1  <O>11       0.0624
@<TRIPOS>BOND
     1     1     2    2
     2     2     3   am
     3     3     4    1
     4     4     5    1
     5     5     6   ar
     6     6     7   ar
     7     7     8   ar
     8     8     9   ar
     9     9    10    1
    10    10    11    2
    11    10    12    1
    12     9    13   ar
    13     5    13   ar
    14     2    14    1
    15    14    15    2
    16    14    16    1
    17    16    17   ar
    18    17    18   ar
    19    18    19   ar
    20    19    20   ar
    21    20    21   ar
    22    21    22   ar
    23    22    23   ar
    24    23    24   ar
    25    16    24   ar
    26    19    24   ar
    27     3    25    1
    28     4    26    1
    29    18    27    1
    30     6    28    1
    31     7    29    1
    32     8    30    1
    33    12    31    1
    34    13    32    1
    35    17    33    1
    36    20    34    1
    37    21    35    1
    38    22    36    1
    39    23    37    1
@<TRIPOS>MOLECULE
mol68_1_29
 37 39 0 0 0
SMALL
USER_CHARGES
****
VDW energy = 222.84
@<TRIPOS>ATOM
   1 O1       -7.0008     4.0341     0.0422  O.2     1  <O>11      -0.2651
   2 C1       -6.8891     5.2237     0.2984  C.2     1  <O>11       0.3005
   3 N1       -7.9530     6.0660     0.1150  N.am    1  <O>11      -0.2298
   4 N2       -7.8282     7.4071     0.4035  N.pl3   1  <O>11      -0.2641
   5 C2       -8.0120     7.8768     1.7639  C.ar    1  <O>11       0.0466
   6 C3       -9.2709     7.7822     2.3822  C.ar    1  <O>11      -0.0392
   7 C4       -9.4503     8.2463     3.6903  C.ar    1  <O>11      -0.0578
   8 C5       -8.3785     8.8039     4.3918  C.ar    1  <O>11      -0.0315
   9 C6       -7.1244     8.8925     3.7776  C.ar    1  <O>11       0.1234
  10 N3       -6.0226     9.4698     4.5051  N.4     1  <O>11       0.0060
  11 O2       -6.3434    10.8374     4.8616  O.2     1  <O>11      -0.1300
  12 O3       -4.8348     9.4556     3.6741  O.2     1  <O>11      -0.3961
  13 C7       -6.9350     8.4304     2.4744  C.ar    1  <O>11      -0.0093
  14 C8       -5.5960     5.7570     0.8100  C.2     1  <O>11       0.2507
  15 O4       -5.4850     6.9470     1.0660  O.2     1  <O>11      -0.2816
  16 C9       -4.5060     4.8940     0.9980  C.ar    1  <O>11       0.0519
  17 C10      -3.5826     4.6812    -0.0078  C.ar    1  <O>11       0.0137
  18 N4       -2.6491     3.7883     0.4942  N.ar    1  <O>11      -0.3599
  19 C11      -2.9645     3.4349     1.7945  C.ar    1  <O>11       0.0472
  20 C12      -2.3338     2.5689     2.7061  C.ar    1  <O>11      -0.0378
  21 C13      -2.9088     2.4098     3.9695  C.ar    1  <O>11      -0.0598
  22 C14      -4.0722     3.0869     4.3203  C.ar    1  <O>11      -0.0611
  23 C15      -4.6919     3.9465     3.4089  C.ar    1  <O>11      -0.0519
  24 C16      -4.1319     4.1239     2.1281  C.ar    1  <O>11       0.0106
  25 H1       -8.8381     5.6994    -0.2355  H       1  <O>11       0.1731
  26 H2       -7.6064     8.0697    -0.3396  H       1  <O>11       0.1700
  27 H3       -1.8503     3.4457    -0.0195  H       1  <O>11       0.1654
  28 H4      -10.0657     7.3691     1.8698  H       1  <O>11       0.0636
  29 H5      -10.3774     8.1763     4.1382  H       1  <O>11       0.0619
  30 H6       -8.5107     9.1478     5.3558  H       1  <O>11       0.0640
  31 H7       -4.4943     8.6421     3.3575  H       1  <O>11       0.3292
  32 H8       -6.0042     8.4955     2.0334  H       1  <O>11       0.0659
  33 H9       -3.5872     5.1045    -0.9489  H       1  <O>11       0.0814
  34 H10      -1.4705     2.0653     2.4490  H       1  <O>11       0.0638
  35 H11      -2.4630     1.7792     4.6540  H       1  <O>11       0.0618
  36 H12      -4.4801     2.9539     5.2589  H       1  <O>11       0.0618
  37 H13      -5.5544     4.4481     3.6724  H       1  <O>11       0.0624
@<TRIPOS>BOND
     1     1     2    2
     2     2     3   am
     3     3     4    1
     4     4     5    1
     5     5     6   ar
     6     6     7   ar
     7     7     8   ar
     8     8     9   ar
     9     9    10    1
    10    10    11    2
    11    10    12    1
    12     9    13   ar
    13     5    13   ar
    14     2    14    1
    15    14    15    2
    16    14    16    1
    17    16    17   ar
    18    17    18   ar
    19    18    19   ar
    20    19    20   ar
    21    20    21   ar
    22    21    22   ar
    23    22    23   ar
    24    23    24   ar
    25    16    24   ar
    26    19    24   ar
    27     3    25    1
    28     4    26    1
    29    18    27    1
    30     6    28    1
    31     7    29    1
    32     8    30    1
    33    12    31    1
    34    13    32    1
    35    17    33    1
    36    20    34    1
    37    21    35    1
    38    22    36    1
    39    23    37    1
@<TRIPOS>MOLECULE
mol68_1_30
 37 39 0 0 0
SMALL
USER_CHARGES
****
VDW energy = 233.47
@<TRIPOS>ATOM
   1 O1       -7.0008     4.0341     0.0422  O.2     1  <O>11      -0.2651
   2 C1       -6.8891     5.2237     0.2984  C.2     1  <O>11       0.3005
   3 N1       -7.9530     6.0660     0.1150  N.am    1  <O>11      -0.2298
   4 N2       -7.8282     7.4071     0.4035  N.pl3   1  <O>11      -0.2641
   5 C2       -8.0120     7.8768     1.7639  C.ar    1  <O>11       0.0466
   6 C3       -7.1097     7.4972     2.7727  C.ar    1  <O>11      -0.0392
   7 C4       -7.2943     7.9411     4.0870  C.ar    1  <O>11      -0.0578
   8 C5       -8.3751     8.7672     4.4049  C.ar    1  <O>11      -0.0315
   9 C6       -9.2697     9.1491     3.3991  C.ar    1  <O>11       0.1234
  10 N3      -10.3837    10.0002     3.7327  N.4     1  <O>11       0.0060
  11 O2      -11.2156     9.3415     4.7197  O.2     1  <O>11      -0.1300
  12 O3      -11.1666    10.2605     2.5407  O.2     1  <O>11      -0.3961
  13 C7       -9.0928     8.7135     2.0851  C.ar    1  <O>11      -0.0093
  14 C8       -5.5960     5.7570     0.8100  C.2     1  <O>11       0.2507
  15 O4       -5.4850     6.9470     1.0660  O.2     1  <O>11      -0.2816
  16 C9       -4.5060     4.8940     0.9980  C.ar    1  <O>11       0.0519
  17 C10      -3.5826     4.6812    -0.0078  C.ar    1  <O>11       0.0137
  18 N4       -2.6491     3.7883     0.4942  N.ar    1  <O>11      -0.3599
  19 C11      -2.9645     3.4349     1.7945  C.ar    1  <O>11       0.0472
  20 C12      -2.3338     2.5689     2.7061  C.ar    1  <O>11      -0.0378
  21 C13      -2.9088     2.4098     3.9695  C.ar    1  <O>11      -0.0598
  22 C14      -4.0722     3.0869     4.3203  C.ar    1  <O>11      -0.0611
  23 C15      -4.6919     3.9465     3.4089  C.ar    1  <O>11      -0.0519
  24 C16      -4.1319     4.1239     2.1281  C.ar    1  <O>11       0.0106
  25 H1       -8.8381     5.6994    -0.2355  H       1  <O>11       0.1731
  26 H2       -7.6064     8.0697    -0.3396  H       1  <O>11       0.1700
  27 H3       -1.8503     3.4457    -0.0195  H       1  <O>11       0.1654
  28 H4       -6.3081     6.8890     2.5432  H       1  <O>11       0.0636
  29 H5       -6.6298     7.6572     4.8238  H       1  <O>11       0.0619
  30 H6       -8.5126     9.0933     5.3743  H       1  <O>11       0.0640
  31 H7      -10.7717    10.6844     1.8042  H       1  <O>11       0.3292
  32 H8       -9.7556     9.0063     1.3502  H       1  <O>11       0.0659
  33 H9       -3.5872     5.1045    -0.9489  H       1  <O>11       0.0814
  34 H10      -1.4705     2.0653     2.4490  H       1  <O>11       0.0638
  35 H11      -2.4630     1.7792     4.6540  H       1  <O>11       0.0618
  36 H12      -4.4801     2.9539     5.2589  H       1  <O>11       0.0618
  37 H13      -5.5544     4.4481     3.6724  H       1  <O>11       0.0624
@<TRIPOS>BOND
     1     1     2    2
     2     2     3   am
     3     3     4    1
     4     4     5    1
     5     5     6   ar
     6     6     7   ar
     7     7     8   ar
     8     8     9   ar
     9     9    10    1
    10    10    11    2
    11    10    12    1
    12     9    13   ar
    13     5    13   ar
    14     2    14    1
    15    14    15    2
    16    14    16    1
    17    16    17   ar
    18    17    18   ar
    19    18    19   ar
    20    19    20   ar
    21    20    21   ar
    22    21    22   ar
    23    22    23   ar
    24    23    24   ar
    25    16    24   ar
    26    19    24   ar
    27     3    25    1
    28     4    26    1
    29    18    27    1
    30     6    28    1
    31     7    29    1
    32     8    30    1
    33    12    31    1
    34    13    32    1
    35    17    33    1
    36    20    34    1
    37    21    35    1
    38    22    36    1
    39    23    37    1
@<TRIPOS>MOLECULE
mol68_2_1
 37 39 0 0 0
SMALL
USER_CHARGES
****
VDW energy = 193.90
@<TRIPOS>ATOM
   1 O1       -7.0008     4.0341     0.0422  O.2     1  <O>11      -0.2651
   2 C1       -6.8891     5.2237     0.2984  C.2     1  <O>11       0.3005
   3 N1       -7.9530     6.0660     0.1150  N.am    1  <O>11      -0.2298
   4 N2       -9.1490     5.5730    -0.3580  N.pl3   1  <O>11      -0.2641
   5 C2      -10.3534     5.7009     0.4421  C.ar    1  <O>11       0.0466
   6 C3      -11.2509     6.7561     0.2076  C.ar    1  <O>11      -0.0392
   7 C4      -12.4053     6.8857     0.9868  C.ar    1  <O>11      -0.0578
   8 C5      -12.6763     5.9652     2.0018  C.ar    1  <O>11      -0.0315
   9 C6      -11.7860     4.9099     2.2307  C.ar    1  <O>11       0.1234
  10 N3      -12.0711     3.9624     3.2774  N.4     1  <O>11       0.0060
  11 O2      -13.3709     3.3594     3.0426  O.2     1  <O>11      -0.1300
  12 O3      -12.0798     4.6429     4.5586  O.2     1  <O>11      -0.3961
  13 C7      -10.6322     4.7709     1.4567  C.ar    1  <O>11      -0.0093
  14 C8       -5.5960     5.7570     0.8100  C.2     1  <O>11       0.2507
  15 O4       -5.4850     6.9470     1.0660  O.2     1  <O>11      -0.2816
  16 C9       -4.5060     4.8940     0.9980  C.ar    1  <O>11       0.0519
  17 C10      -3.7627     4.4392    -0.0745  C.ar    1  <O>11       0.0137
  18 N4       -2.7766     3.6172     0.4475  N.ar    1  <O>11      -0.3599
  19 C11      -2.8825     3.5452     1.8254  C.ar    1  <O>11       0.0472
  20 C12      -2.1279     2.8462     2.7849  C.ar    1  <O>11      -0.0378
  21 C13      -2.4925     2.9702     4.1280  C.ar    1  <O>11      -0.0598
  22 C14      -3.5706     3.7618     4.5100  C.ar    1  <O>11      -0.0611
  23 C15      -4.3144     4.4540     3.5504  C.ar    1  <O>11      -0.0519
  24 C16      -3.9672     4.3452     2.1891  C.ar    1  <O>11       0.0106
  25 H1       -7.8590     7.0590     0.3290  H       1  <O>11       0.1731
  26 H2       -9.1888     5.1187    -1.2694  H       1  <O>11       0.1700
  27 H3       -2.0784     3.1393    -0.1035  H       1  <O>11       0.1654
  28 H4      -11.0578     7.4383    -0.5424  H       1  <O>11       0.0636
  29 H5      -13.0593     7.6645     0.8110  H       1  <O>11       0.0619
  30 H6      -13.5265     6.0626     2.5785  H       1  <O>11       0.0640
  31 H7      -11.3107     5.0859     4.8590  H       1  <O>11       0.3292
  32 H8       -9.9852     3.9859     1.6300  H       1  <O>11       0.0659
  33 H9       -3.9126     4.6672    -1.0697  H       1  <O>11       0.0814
  34 H10      -1.3274     2.2582     2.5047  H       1  <O>11       0.0638
  35 H11      -1.9528     2.4660     4.8488  H       1  <O>11       0.0618
  36 H12      -3.8226     3.8385     5.5078  H       1  <O>11       0.0618
  37 H13      -5.1132     5.0413     3.8370  H       1  <O>11       0.0624
@<TRIPOS>BOND
     1     1     2    2
     2     2     3   am
     3     3     4    1
     4     4     5    1
     5     5     6   ar
     6     6     7   ar
     7     7     8   ar
     8     8     9   ar
     9     9    10    1
    10    10    11    2
    11    10    12    1
    12     9    13   ar
    13     5    13   ar
    14     2    14    1
    15    14    15    2
    16    14    16    1
    17    16    17   ar
    18    17    18   ar
    19    18    19   ar
    20    19    20   ar
    21    20    21   ar
    22    21    22   ar
    23    22    23   ar
    24    23    24   ar
    25    16    24   ar
    26    19    24   ar
    27     3    25    1
    28     4    26    1
    29    18    27    1
    30     6    28    1
    31     7    29    1
    32     8    30    1
    33    12    31    1
    34    13    32    1
    35    17    33    1
    36    20    34    1
    37    21    35    1
    38    22    36    1
    39    23    37    1
@<TRIPOS>MOLECULE
mol68_2_2
 37 39 0 0 0
SMALL
USER_CHARGES
****
VDW energy = 194.61
@<TRIPOS>ATOM
   1 O1       -7.0008     4.0341     0.0422  O.2     1  <O>11      -0.2651
   2 C1       -6.8891     5.2237     0.2984  C.2     1  <O>11       0.3005
   3 N1       -7.9530     6.0660     0.1150  N.am    1  <O>11      -0.2298
   4 N2       -7.8282     7.4071     0.4035  N.pl3   1  <O>11      -0.2641
   5 C2       -8.0337     8.3954    -0.6396  C.ar    1  <O>11       0.0466
   6 C3       -9.2772     9.0353    -0.7743  C.ar    1  <O>11      -0.0392
   7 C4       -9.4782     9.9789    -1.7870  C.ar    1  <O>11      -0.0578
   8 C5       -8.4432    10.2947    -2.6702  C.ar    1  <O>11      -0.0315
   9 C6       -7.2022     9.6626    -2.5317  C.ar    1  <O>11       0.1234
  10 N3       -6.1377     9.9933    -3.4440  N.4     1  <O>11       0.0060
  11 O2       -5.8798    11.4210    -3.3886  O.2     1  <O>11      -0.1300
  12 O3       -6.5233     9.6250    -4.7932  O.2     1  <O>11      -0.3961
  13 C7       -6.9913     8.7210    -1.5225  C.ar    1  <O>11      -0.0093
  14 C8       -5.5960     5.7570     0.8100  C.2     1  <O>11       0.2507
  15 O4       -5.4850     6.9470     1.0660  O.2     1  <O>11      -0.2816
  16 C9       -4.5060     4.8940     0.9980  C.ar    1  <O>11       0.0519
  17 C10      -3.7627     4.4392    -0.0745  C.ar    1  <O>11       0.0137
  18 N4       -2.7766     3.6172     0.4475  N.ar    1  <O>11      -0.3599
  19 C11      -2.8825     3.5452     1.8254  C.ar    1  <O>11       0.0472
  20 C12      -2.1279     2.8462     2.7849  C.ar    1  <O>11      -0.0378
  21 C13      -2.4925     2.9702     4.1280  C.ar    1  <O>11      -0.0598
  22 C14      -3.5706     3.7618     4.5100  C.ar    1  <O>11      -0.0611
  23 C15      -4.3144     4.4540     3.5504  C.ar    1  <O>11      -0.0519
  24 C16      -3.9672     4.3452     2.1891  C.ar    1  <O>11       0.0106
  25 H1       -8.8381     5.6994    -0.2355  H       1  <O>11       0.1731
  26 H2       -7.5920     7.7057     1.3488  H       1  <O>11       0.1700
  27 H3       -2.0784     3.1393    -0.1035  H       1  <O>11       0.1654
  28 H4      -10.0453     8.8083    -0.1235  H       1  <O>11       0.0636
  29 H5      -10.3948    10.4436    -1.8820  H       1  <O>11       0.0619
  30 H6       -8.5925    10.9887    -3.4192  H       1  <O>11       0.0640
  31 H7       -6.7247     8.7327    -4.9958  H       1  <O>11       0.3292
  32 H8       -6.0707     8.2650    -1.4256  H       1  <O>11       0.0659
  33 H9       -3.9126     4.6672    -1.0697  H       1  <O>11       0.0814
  34 H10      -1.3274     2.2582     2.5047  H       1  <O>11       0.0638
  35 H11      -1.9528     2.4660     4.8488  H       1  <O>11       0.0618
  36 H12      -3.8226     3.8385     5.5078  H       1  <O>11       0.0618
  37 H13      -5.1132     5.0413     3.8370  H       1  <O>11       0.0624
@<TRIPOS>BOND
     1     1     2    2
     2     2     3   am
     3     3     4    1
     4     4     5    1
     5     5     6   ar
     6     6     7   ar
     7     7     8   ar
     8     8     9   ar
     9     9    10    1
    10    10    11    2
    11    10    12    1
    12     9    13   ar
    13     5    13   ar
    14     2    14    1
    15    14    15    2
    16    14    16    1
    17    16    17   ar
    18    17    18   ar
    19    18    19   ar
    20    19    20   ar
    21    20    21   ar
    22    21    22   ar
    23    22    23   ar
    24    23    24   ar
    25    16    24   ar
    26    19    24   ar
    27     3    25    1
    28     4    26    1
    29    18    27    1
    30     6    28    1
    31     7    29    1
    32     8    30    1
    33    12    31    1
    34    13    32    1
    35    17    33    1
    36    20    34    1
    37    21    35    1
    38    22    36    1
    39    23    37    1
@<TRIPOS>MOLECULE
mol68_2_3
 37 39 0 0 0
SMALL
USER_CHARGES
****
VDW energy = 194.67
@<TRIPOS>ATOM
   1 O1       -7.0008     4.0341     0.0422  O.2     1  <O>11      -0.2651
   2 C1       -6.8891     5.2237     0.2984  C.2     1  <O>11       0.3005
   3 N1       -7.9530     6.0660     0.1150  N.am    1  <O>11      -0.2298
   4 N2       -9.1490     5.5730    -0.3580  N.pl3   1  <O>11      -0.2641
   5 C2      -10.3534     5.7009     0.4421  C.ar    1  <O>11       0.0466
   6 C3      -10.8940     6.9696     0.7107  C.ar    1  <O>11      -0.0392
   7 C4      -12.0479     7.0930     1.4917  C.ar    1  <O>11      -0.0578
   8 C5      -12.6733     5.9557     2.0078  C.ar    1  <O>11      -0.0315
   9 C6      -12.1390     4.6914     1.7343  C.ar    1  <O>11       0.1234
  10 N3      -12.7889     3.5218     2.2674  N.4     1  <O>11       0.0060
  11 O2      -14.1696     3.4896     1.8194  O.2     1  <O>11      -0.1300
  12 O3      -12.7533     3.5654     3.7170  O.2     1  <O>11      -0.3961
  13 C7      -10.9889     4.5580     0.9539  C.ar    1  <O>11      -0.0093
  14 C8       -5.5960     5.7570     0.8100  C.2     1  <O>11       0.2507
  15 O4       -5.4850     6.9470     1.0660  O.2     1  <O>11      -0.2816
  16 C9       -4.5060     4.8940     0.9980  C.ar    1  <O>11       0.0519
  17 C10      -3.7627     4.4392    -0.0745  C.ar    1  <O>11       0.0137
  18 N4       -2.7766     3.6172     0.4475  N.ar    1  <O>11      -0.3599
  19 C11      -2.8825     3.5452     1.8254  C.ar    1  <O>11       0.0472
  20 C12      -2.1279     2.8462     2.7849  C.ar    1  <O>11      -0.0378
  21 C13      -2.4925     2.9702     4.1280  C.ar    1  <O>11      -0.0598
  22 C14      -3.5706     3.7618     4.5100  C.ar    1  <O>11      -0.0611
  23 C15      -4.3144     4.4540     3.5504  C.ar    1  <O>11      -0.0519
  24 C16      -3.9672     4.3452     2.1891  C.ar    1  <O>11       0.0106
  25 H1       -7.8590     7.0590     0.3290  H       1  <O>11       0.1731
  26 H2       -9.1888     5.1187    -1.2694  H       1  <O>11       0.1700
  27 H3       -2.0784     3.1393    -0.1035  H       1  <O>11       0.1654
  28 H4      -10.4381     7.8138     0.3304  H       1  <O>11       0.0636
  29 H5      -12.4386     8.0280     1.6873  H       1  <O>11       0.0619
  30 H6      -13.5229     6.0470     2.5864  H       1  <O>11       0.0640
  31 H7      -11.9307     3.5899     4.1649  H       1  <O>11       0.3292
  32 H8      -10.6064     3.6207     0.7534  H       1  <O>11       0.0659
  33 H9       -3.9126     4.6672    -1.0697  H       1  <O>11       0.0814
  34 H10      -1.3274     2.2582     2.5047  H       1  <O>11       0.0638
  35 H11      -1.9528     2.4660     4.8488  H       1  <O>11       0.0618
  36 H12      -3.8226     3.8385     5.5078  H       1  <O>11       0.0618
  37 H13      -5.1132     5.0413     3.8370  H       1  <O>11       0.0624
@<TRIPOS>BOND
     1     1     2    2
     2     2     3   am
     3     3     4    1
     4     4     5    1
     5     5     6   ar
     6     6     7   ar
     7     7     8   ar
     8     8     9   ar
     9     9    10    1
    10    10    11    2
    11    10    12    1
    12     9    13   ar
    13     5    13   ar
    14     2    14    1
    15    14    15    2
    16    14    16    1
    17    16    17   ar
    18    17    18   ar
    19    18    19   ar
    20    19    20   ar
    21    20    21   ar
    22    21    22   ar
    23    22    23   ar
    24    23    24   ar
    25    16    24   ar
    26    19    24   ar
    27     3    25    1
    28     4    26    1
    29    18    27    1
    30     6    28    1
    31     7    29    1
    32     8    30    1
    33    12    31    1
    34    13    32    1
    35    17    33    1
    36    20    34    1
    37    21    35    1
    38    22    36    1
    39    23    37    1
@<TRIPOS>MOLECULE
mol68_2_4
 37 39 0 0 0
SMALL
USER_CHARGES
****
VDW energy = 195.13
@<TRIPOS>ATOM
   1 O1       -7.0008     4.0341     0.0422  O.2     1  <O>11      -0.2651
   2 C1       -6.8891     5.2237     0.2984  C.2     1  <O>11       0.3005
   3 N1       -7.9530     6.0660     0.1150  N.am    1  <O>11      -0.2298
   4 N2       -7.8282     7.4071     0.4035  N.pl3   1  <O>11      -0.2641
   5 C2       -8.0337     8.3954    -0.6396  C.ar    1  <O>11       0.0466
   6 C3       -9.3025     8.5594    -1.2202  C.ar    1  <O>11      -0.0392
   7 C4       -9.4971     9.5037    -2.2336  C.ar    1  <O>11      -0.0578
   8 C5       -8.4323    10.2932    -2.6738  C.ar    1  <O>11      -0.0315
   9 C6       -7.1699    10.1350    -2.0905  C.ar    1  <O>11       0.1234
  10 N3       -6.0757    10.9529    -2.5469  N.4     1  <O>11       0.0060
  11 O2       -6.4245    12.3543    -2.3970  O.2     1  <O>11      -0.1300
  12 O3       -5.8082    10.6696    -3.9443  O.2     1  <O>11      -0.3961
  13 C7       -6.9664     9.1966    -1.0768  C.ar    1  <O>11      -0.0093
  14 C8       -5.5960     5.7570     0.8100  C.2     1  <O>11       0.2507
  15 O4       -5.4850     6.9470     1.0660  O.2     1  <O>11      -0.2816
  16 C9       -4.5060     4.8940     0.9980  C.ar    1  <O>11       0.0519
  17 C10      -3.7627     4.4392    -0.0745  C.ar    1  <O>11       0.0137
  18 N4       -2.7766     3.6172     0.4475  N.ar    1  <O>11      -0.3599
  19 C11      -2.8825     3.5452     1.8254  C.ar    1  <O>11       0.0472
  20 C12      -2.1279     2.8462     2.7849  C.ar    1  <O>11      -0.0378
  21 C13      -2.4925     2.9702     4.1280  C.ar    1  <O>11      -0.0598
  22 C14      -3.5706     3.7618     4.5100  C.ar    1  <O>11      -0.0611
  23 C15      -4.3144     4.4540     3.5504  C.ar    1  <O>11      -0.0519
  24 C16      -3.9672     4.3452     2.1891  C.ar    1  <O>11       0.0106
  25 H1       -8.8381     5.6994    -0.2355  H       1  <O>11       0.1731
  26 H2       -7.5920     7.7057     1.3488  H       1  <O>11       0.1700
  27 H3       -2.0784     3.1393    -0.1035  H       1  <O>11       0.1654
  28 H4      -10.0940     7.9809    -0.8978  H       1  <O>11       0.0636
  29 H5      -10.4311     9.6175    -2.6576  H       1  <O>11       0.0619
  30 H6       -8.5752    10.9878    -3.4235  H       1  <O>11       0.0640
  31 H7       -5.5678     9.8035    -4.2090  H       1  <O>11       0.3292
  32 H8       -6.0329     9.0919    -0.6494  H       1  <O>11       0.0659
  33 H9       -3.9126     4.6672    -1.0697  H       1  <O>11       0.0814
  34 H10      -1.3274     2.2582     2.5047  H       1  <O>11       0.0638
  35 H11      -1.9528     2.4660     4.8488  H       1  <O>11       0.0618
  36 H12      -3.8226     3.8385     5.5078  H       1  <O>11       0.0618
  37 H13      -5.1132     5.0413     3.8370  H       1  <O>11       0.0624
@<TRIPOS>BOND
     1     1     2    2
     2     2     3   am
     3     3     4    1
     4     4     5    1
     5     5     6   ar
     6     6     7   ar
     7     7     8   ar
     8     8     9   ar
     9     9    10    1
    10    10    11    2
    11    10    12    1
    12     9    13   ar
    13     5    13   ar
    14     2    14    1
    15    14    15    2
    16    14    16    1
    17    16    17   ar
    18    17    18   ar
    19    18    19   ar
    20    19    20   ar
    21    20    21   ar
    22    21    22   ar
    23    22    23   ar
    24    23    24   ar
    25    16    24   ar
    26    19    24   ar
    27     3    25    1
    28     4    26    1
    29    18    27    1
    30     6    28    1
    31     7    29    1
    32     8    30    1
    33    12    31    1
    34    13    32    1
    35    17    33    1
    36    20    34    1
    37    21    35    1
    38    22    36    1
    39    23    37    1
@<TRIPOS>MOLECULE
mol68_2_5
 37 39 0 0 0
SMALL
USER_CHARGES
****
VDW energy = 195.80
@<TRIPOS>ATOM
   1 O1       -7.0008     4.0341     0.0422  O.2     1  <O>11      -0.2651
   2 C1       -6.8891     5.2237     0.2984  C.2     1  <O>11       0.3005
   3 N1       -7.9530     6.0660     0.1150  N.am    1  <O>11      -0.2298
   4 N2       -9.1490     5.5730    -0.3580  N.pl3   1  <O>11      -0.2641
   5 C2      -10.3534     5.7009     0.4421  C.ar    1  <O>11       0.0466
   6 C3      -10.4673     5.0187     1.6651  C.ar    1  <O>11      -0.0392
   7 C4      -11.6328     5.1329     2.4299  C.ar    1  <O>11      -0.0578
   8 C5      -12.6912     5.9287     1.9853  C.ar    1  <O>11      -0.0315
   9 C6      -12.5750     6.6141     0.7705  C.ar    1  <O>11       0.1234
  10 N3      -13.6685     7.4348     0.3176  N.4     1  <O>11       0.0060
  11 O2      -13.9723     8.4346     1.3257  O.2     1  <O>11      -0.1300
  12 O3      -14.8374     6.6052     0.0938  O.2     1  <O>11      -0.3961
  13 C7      -11.4146     6.5081     0.0012  C.ar    1  <O>11      -0.0093
  14 C8       -5.5960     5.7570     0.8100  C.2     1  <O>11       0.2507
  15 O4       -5.4850     6.9470     1.0661  O.2     1  <O>11      -0.2816
  16 C9       -4.5060     4.8940     0.9979  C.ar    1  <O>11       0.0519
  17 C10      -3.7626     4.4394    -0.0746  C.ar    1  <O>11       0.0137
  18 N4       -2.7765     3.6173     0.4472  N.ar    1  <O>11      -0.3599
  19 C11      -2.8824     3.5452     1.8251  C.ar    1  <O>11       0.0472
  20 C12      -2.1277     2.8461     2.7846  C.ar    1  <O>11      -0.0378
  21 C13      -2.4923     2.9701     4.1277  C.ar    1  <O>11      -0.0598
  22 C14      -3.5704     3.7616     4.5098  C.ar    1  <O>11      -0.0611
  23 C15      -4.3143     4.4539     3.5502  C.ar    1  <O>11      -0.0519
  24 C16      -3.9671     4.3451     2.1889  C.ar    1  <O>11       0.0106
  25 H1       -7.8590     7.0590     0.3290  H       1  <O>11       0.1731
  26 H2       -9.1888     5.1187    -1.2694  H       1  <O>11       0.1700
  27 H3       -2.0784     3.1394    -0.1038  H       1  <O>11       0.1654
  28 H4       -9.6880     4.4310     2.0004  H       1  <O>11       0.0636
  29 H5      -11.7111     4.6273     3.3261  H       1  <O>11       0.0619
  30 H6      -13.5522     6.0106     2.5481  H       1  <O>11       0.0640
  31 H7      -14.8045     5.9083    -0.5317  H       1  <O>11       0.3292
  32 H8      -11.3369     7.0222    -0.8902  H       1  <O>11       0.0659
  33 H9       -3.9126     4.6674    -1.0698  H       1  <O>11       0.0814
  34 H10      -1.3272     2.2582     2.5043  H       1  <O>11       0.0638
  35 H11      -1.9526     2.4658     4.8484  H       1  <O>11       0.0618
  36 H12      -3.8224     3.8382     5.5076  H       1  <O>11       0.0618
  37 H13      -5.1131     5.0411     3.8369  H       1  <O>11       0.0624
@<TRIPOS>BOND
     1     1     2    2
     2     2     3   am
     3     3     4    1
     4     4     5    1
     5     5     6   ar
     6     6     7   ar
     7     7     8   ar
     8     8     9   ar
     9     9    10    1
    10    10    11    2
    11    10    12    1
    12     9    13   ar
    13     5    13   ar
    14     2    14    1
    15    14    15    2
    16    14    16    1
    17    16    17   ar
    18    17    18   ar
    19    18    19   ar
    20    19    20   ar
    21    20    21   ar
    22    21    22   ar
    23    22    23   ar
    24    23    24   ar
    25    16    24   ar
    26    19    24   ar
    27     3    25    1
    28     4    26    1
    29    18    27    1
    30     6    28    1
    31     7    29    1
    32     8    30    1
    33    12    31    1
    34    13    32    1
    35    17    33    1
    36    20    34    1
    37    21    35    1
    38    22    36    1
    39    23    37    1
@<TRIPOS>MOLECULE
mol68_2_6
 37 39 0 0 0
SMALL
USER_CHARGES
****
VDW energy = 196.88
@<TRIPOS>ATOM
   1 O1       -7.0008     4.0341     0.0422  O.2     1  <O>11      -0.2651
   2 C1       -6.8891     5.2237     0.2984  C.2     1  <O>11       0.3005
   3 N1       -7.9530     6.0660     0.1150  N.am    1  <O>11      -0.2298
   4 N2       -9.1490     5.5730    -0.3580  N.pl3   1  <O>11      -0.2641
   5 C2      -10.2760     6.4670    -0.5520  C.ar    1  <O>11       0.0466
   6 C3      -10.5477     6.9990    -1.8237  C.ar    1  <O>11      -0.0392
   7 C4      -11.6267     7.8697    -2.0075  C.ar    1  <O>11      -0.0578
   8 C5      -12.4445     8.2146    -0.9289  C.ar    1  <O>11      -0.0315
   9 C6      -12.1783     7.6791     0.3365  C.ar    1  <O>11       0.1234
  10 N3      -13.0258     8.0365     1.4449  N.4     1  <O>11       0.0060
  11 O2      -14.3665     8.3105     0.9596  O.2     1  <O>11      -0.1300
  12 O3      -12.4980     9.2201     2.0971  O.2     1  <O>11      -0.3961
  13 C7      -11.1049     6.8073     0.5294  C.ar    1  <O>11      -0.0093
  14 C8       -5.5960     5.7570     0.8100  C.2     1  <O>11       0.2507
  15 O4       -5.4850     6.9470     1.0660  O.2     1  <O>11      -0.2816
  16 C9       -4.5060     4.8940     0.9980  C.ar    1  <O>11       0.0519
  17 C10      -3.7627     4.4392    -0.0745  C.ar    1  <O>11       0.0137
  18 N4       -2.7766     3.6172     0.4475  N.ar    1  <O>11      -0.3599
  19 C11      -2.8825     3.5452     1.8254  C.ar    1  <O>11       0.0472
  20 C12      -2.1279     2.8462     2.7849  C.ar    1  <O>11      -0.0378
  21 C13      -2.4925     2.9702     4.1280  C.ar    1  <O>11      -0.0598
  22 C14      -3.5706     3.7618     4.5100  C.ar    1  <O>11      -0.0611
  23 C15      -4.3144     4.4540     3.5504  C.ar    1  <O>11      -0.0519
  24 C16      -3.9672     4.3452     2.1891  C.ar    1  <O>11       0.0106
  25 H1       -7.8590     7.0590     0.3290  H       1  <O>11       0.1731
  26 H2       -9.2430     4.5810    -0.5720  H       1  <O>11       0.1700
  27 H3       -2.0784     3.1393    -0.1035  H       1  <O>11       0.1654
  28 H4       -9.9487     6.7463    -2.6253  H       1  <O>11       0.0636
  29 H5      -11.8194     8.2589    -2.9438  H       1  <O>11       0.0619
  30 H6      -13.2388     8.8594    -1.0640  H       1  <O>11       0.0640
  31 H7      -11.6371     9.2067     2.4668  H       1  <O>11       0.3292
  32 H8      -10.9208     6.4136     1.4653  H       1  <O>11       0.0659
  33 H9       -3.9126     4.6672    -1.0697  H       1  <O>11       0.0814
  34 H10      -1.3274     2.2582     2.5047  H       1  <O>11       0.0638
  35 H11      -1.9528     2.4660     4.8488  H       1  <O>11       0.0618
  36 H12      -3.8226     3.8385     5.5078  H       1  <O>11       0.0618
  37 H13      -5.1132     5.0413     3.8370  H       1  <O>11       0.0624
@<TRIPOS>BOND
     1     1     2    2
     2     2     3   am
     3     3     4    1
     4     4     5    1
     5     5     6   ar
     6     6     7   ar
     7     7     8   ar
     8     8     9   ar
     9     9    10    1
    10    10    11    2
    11    10    12    1
    12     9    13   ar
    13     5    13   ar
    14     2    14    1
    15    14    15    2
    16    14    16    1
    17    16    17   ar
    18    17    18   ar
    19    18    19   ar
    20    19    20   ar
    21    20    21   ar
    22    21    22   ar
    23    22    23   ar
    24    23    24   ar
    25    16    24   ar
    26    19    24   ar
    27     3    25    1
    28     4    26    1
    29    18    27    1
    30     6    28    1
    31     7    29    1
    32     8    30    1
    33    12    31    1
    34    13    32    1
    35    17    33    1
    36    20    34    1
    37    21    35    1
    38    22    36    1
    39    23    37    1
@<TRIPOS>MOLECULE
mol68_2_7
 37 39 0 0 0
SMALL
USER_CHARGES
****
VDW energy = 197.45
@<TRIPOS>ATOM
   1 O1       -7.0008     4.0341     0.0422  O.2     1  <O>11      -0.2651
   2 C1       -6.8891     5.2237     0.2984  C.2     1  <O>11       0.3005
   3 N1       -7.9530     6.0660     0.1150  N.am    1  <O>11      -0.2298
   4 N2       -9.1490     5.5730    -0.3580  N.pl3   1  <O>11      -0.2641
   5 C2      -10.2760     6.4670    -0.5520  C.ar    1  <O>11       0.0466
   6 C3      -11.1893     6.6924     0.4917  C.ar    1  <O>11      -0.0392
   7 C4      -12.2817     7.5447     0.3003  C.ar    1  <O>11      -0.0578
   8 C5      -12.4713     8.1808    -0.9286  C.ar    1  <O>11      -0.0315
   9 C6      -11.5576     7.9620    -1.9660  C.ar    1  <O>11       0.1234
  10 N3      -11.7567     8.6220    -3.2307  N.4     1  <O>11       0.0060
  11 O2      -12.4298     9.8900    -3.0136  O.2     1  <O>11      -0.1300
  12 O3      -12.5712     7.7852    -4.0916  O.2     1  <O>11      -0.3961
  13 C7      -10.4629     7.1148    -1.7839  C.ar    1  <O>11      -0.0093
  14 C8       -5.5960     5.7570     0.8100  C.2     1  <O>11       0.2507
  15 O4       -5.4850     6.9470     1.0660  O.2     1  <O>11      -0.2816
  16 C9       -4.5060     4.8940     0.9980  C.ar    1  <O>11       0.0519
  17 C10      -3.7627     4.4392    -0.0745  C.ar    1  <O>11       0.0137
  18 N4       -2.7766     3.6172     0.4475  N.ar    1  <O>11      -0.3599
  19 C11      -2.8825     3.5452     1.8254  C.ar    1  <O>11       0.0472
  20 C12      -2.1279     2.8462     2.7849  C.ar    1  <O>11      -0.0378
  21 C13      -2.4925     2.9702     4.1280  C.ar    1  <O>11      -0.0598
  22 C14      -3.5706     3.7618     4.5100  C.ar    1  <O>11      -0.0611
  23 C15      -4.3144     4.4540     3.5504  C.ar    1  <O>11      -0.0519
  24 C16      -3.9672     4.3452     2.1891  C.ar    1  <O>11       0.0106
  25 H1       -7.8590     7.0590     0.3290  H       1  <O>11       0.1731
  26 H2       -9.2430     4.5810    -0.5720  H       1  <O>11       0.1700
  27 H3       -2.0784     3.1393    -0.1035  H       1  <O>11       0.1654
  28 H4      -11.0537     6.2273     1.4029  H       1  <O>11       0.0636
  29 H5      -12.9503     7.7041     1.0702  H       1  <O>11       0.0619
  30 H6      -13.2789     8.8073    -1.0707  H       1  <O>11       0.0640
  31 H7      -12.2749     6.9284    -4.3286  H       1  <O>11       0.3292
  32 H8       -9.7919     6.9648    -2.5535  H       1  <O>11       0.0659
  33 H9       -3.9126     4.6672    -1.0697  H       1  <O>11       0.0814
  34 H10      -1.3274     2.2582     2.5047  H       1  <O>11       0.0638
  35 H11      -1.9528     2.4660     4.8488  H       1  <O>11       0.0618
  36 H12      -3.8226     3.8385     5.5078  H       1  <O>11       0.0618
  37 H13      -5.1132     5.0413     3.8370  H       1  <O>11       0.0624
@<TRIPOS>BOND
     1     1     2    2
     2     2     3   am
     3     3     4    1
     4     4     5    1
     5     5     6   ar
     6     6     7   ar
     7     7     8   ar
     8     8     9   ar
     9     9    10    1
    10    10    11    2
    11    10    12    1
    12     9    13   ar
    13     5    13   ar
    14     2    14    1
    15    14    15    2
    16    14    16    1
    17    16    17   ar
    18    17    18   ar
    19    18    19   ar
    20    19    20   ar
    21    20    21   ar
    22    21    22   ar
    23    22    23   ar
    24    23    24   ar
    25    16    24   ar
    26    19    24   ar
    27     3    25    1
    28     4    26    1
    29    18    27    1
    30     6    28    1
    31     7    29    1
    32     8    30    1
    33    12    31    1
    34    13    32    1
    35    17    33    1
    36    20    34    1
    37    21    35    1
    38    22    36    1
    39    23    37    1
@<TRIPOS>MOLECULE
mol68_2_8
 37 39 0 0 0
SMALL
USER_CHARGES
****
VDW energy = 197.73
@<TRIPOS>ATOM
   1 O1       -7.0008     4.0341     0.0422  O.2     1  <O>11      -0.2651
   2 C1       -6.8891     5.2237     0.2984  C.2     1  <O>11       0.3005
   3 N1       -7.9530     6.0660     0.1150  N.am    1  <O>11      -0.2298
   4 N2       -9.1490     5.5730    -0.3580  N.pl3   1  <O>11      -0.2641
   5 C2      -10.3534     5.7009     0.4421  C.ar    1  <O>11       0.0466
   6 C3      -11.5768     5.2004    -0.0341  C.ar    1  <O>11      -0.0392
   7 C4      -12.7393     5.3345     0.7321  C.ar    1  <O>11      -0.0578
   8 C5      -12.6922     5.9643     1.9780  C.ar    1  <O>11      -0.0315
   9 C6      -11.4722     6.4565     2.4557  C.ar    1  <O>11       0.1234
  10 N3      -11.4289     7.1034     3.7419  N.4     1  <O>11       0.0060
  11 O2      -11.9308     6.1947     4.7570  O.2     1  <O>11      -0.1300
  12 O3      -12.2536     8.2966     3.7128  O.2     1  <O>11      -0.3961
  13 C7      -10.3061     6.3253     1.6991  C.ar    1  <O>11      -0.0093
  14 C8       -5.5960     5.7570     0.8100  C.2     1  <O>11       0.2507
  15 O4       -5.4850     6.9470     1.0661  O.2     1  <O>11      -0.2816
  16 C9       -4.5060     4.8940     0.9979  C.ar    1  <O>11       0.0519
  17 C10      -3.7626     4.4394    -0.0746  C.ar    1  <O>11       0.0137
  18 N4       -2.7765     3.6173     0.4472  N.ar    1  <O>11      -0.3599
  19 C11      -2.8824     3.5452     1.8251  C.ar    1  <O>11       0.0472
  20 C12      -2.1277     2.8461     2.7846  C.ar    1  <O>11      -0.0378
  21 C13      -2.4923     2.9701     4.1277  C.ar    1  <O>11      -0.0598
  22 C14      -3.5704     3.7616     4.5098  C.ar    1  <O>11      -0.0611
  23 C15      -4.3143     4.4539     3.5502  C.ar    1  <O>11      -0.0519
  24 C16      -3.9671     4.3451     2.1889  C.ar    1  <O>11       0.0106
  25 H1       -7.8590     7.0590     0.3290  H       1  <O>11       0.1731
  26 H2       -9.1888     5.1187    -1.2694  H       1  <O>11       0.1700
  27 H3       -2.0784     3.1394    -0.1038  H       1  <O>11       0.1654
  28 H4      -11.6179     4.7319    -0.9528  H       1  <O>11       0.0636
  29 H5      -13.6352     4.9668     0.3755  H       1  <O>11       0.0619
  30 H6      -13.5505     6.0658     2.5419  H       1  <O>11       0.0640
  31 H7      -12.0600     8.9852     3.1076  H       1  <O>11       0.3292
  32 H8       -9.4106     6.6867     2.0631  H       1  <O>11       0.0659
  33 H9       -3.9126     4.6674    -1.0698  H       1  <O>11       0.0814
  34 H10      -1.3272     2.2582     2.5043  H       1  <O>11       0.0638
  35 H11      -1.9526     2.4658     4.8484  H       1  <O>11       0.0618
  36 H12      -3.8224     3.8382     5.5076  H       1  <O>11       0.0618
  37 H13      -5.1131     5.0411     3.8369  H       1  <O>11       0.0624
@<TRIPOS>BOND
     1     1     2    2
     2     2     3   am
     3     3     4    1
     4     4     5    1
     5     5     6   ar
     6     6     7   ar
     7     7     8   ar
     8     8     9   ar
     9     9    10    1
    10    10    11    2
    11    10    12    1
    12     9    13   ar
    13     5    13   ar
    14     2    14    1
    15    14    15    2
    16    14    16    1
    17    16    17   ar
    18    17    18   ar
    19    18    19   ar
    20    19    20   ar
    21    20    21   ar
    22    21    22   ar
    23    22    23   ar
    24    23    24   ar
    25    16    24   ar
    26    19    24   ar
    27     3    25    1
    28     4    26    1
    29    18    27    1
    30     6    28    1
    31     7    29    1
    32     8    30    1
    33    12    31    1
    34    13    32    1
    35    17    33    1
    36    20    34    1
    37    21    35    1
    38    22    36    1
    39    23    37    1
@<TRIPOS>MOLECULE
mol68_2_9
 37 39 0 0 0
SMALL
USER_CHARGES
****
VDW energy = 197.96
@<TRIPOS>ATOM
   1 O1       -7.0008     4.0341     0.0422  O.2     1  <O>11      -0.2651
   2 C1       -6.8891     5.2237     0.2984  C.2     1  <O>11       0.3005
   3 N1       -7.9530     6.0660     0.1150  N.am    1  <O>11      -0.2298
   4 N2       -9.1490     5.5730    -0.3580  N.pl3   1  <O>11      -0.2641
   5 C2       -9.2041     4.9260    -1.6562  C.ar    1  <O>11       0.0466
   6 C3       -9.1439     3.5256    -1.7529  C.ar    1  <O>11      -0.0392
   7 C4       -9.1850     2.9032    -3.0049  C.ar    1  <O>11      -0.0578
   8 C5       -9.2896     3.6690    -4.1684  C.ar    1  <O>11      -0.0315
   9 C6       -9.3568     5.0636    -4.0718  C.ar    1  <O>11       0.1234
  10 N3       -9.4664     5.8484    -5.2745  N.4     1  <O>11       0.0060
  11 O2      -10.6414     5.4313    -6.0185  O.2     1  <O>11      -0.1300
  12 O3       -8.2837     5.6519    -6.0915  O.2     1  <O>11      -0.3961
  13 C7       -9.3187     5.6938    -2.8264  C.ar    1  <O>11      -0.0093
  14 C8       -5.5960     5.7570     0.8100  C.2     1  <O>11       0.2507
  15 O4       -5.4850     6.9470     1.0660  O.2     1  <O>11      -0.2816
  16 C9       -4.5060     4.8940     0.9980  C.ar    1  <O>11       0.0519
  17 C10      -3.7627     4.4392    -0.0745  C.ar    1  <O>11       0.0137
  18 N4       -2.7766     3.6172     0.4475  N.ar    1  <O>11      -0.3599
  19 C11      -2.8825     3.5452     1.8254  C.ar    1  <O>11       0.0472
  20 C12      -2.1279     2.8462     2.7849  C.ar    1  <O>11      -0.0378
  21 C13      -2.4925     2.9702     4.1280  C.ar    1  <O>11      -0.0598
  22 C14      -3.5706     3.7618     4.5100  C.ar    1  <O>11      -0.0611
  23 C15      -4.3144     4.4540     3.5504  C.ar    1  <O>11      -0.0519
  24 C16      -3.9672     4.3452     2.1891  C.ar    1  <O>11       0.0106
  25 H1       -7.8590     7.0590     0.3290  H       1  <O>11       0.1731
  26 H2       -9.9952     5.6621     0.2030  H       1  <O>11       0.1700
  27 H3       -2.0784     3.1393    -0.1035  H       1  <O>11       0.1654
  28 H4       -9.0690     2.9539    -0.8970  H       1  <O>11       0.0636
  29 H5       -9.1380     1.8743    -3.0692  H       1  <O>11       0.0619
  30 H6       -9.3169     3.2099    -5.0922  H       1  <O>11       0.0640
  31 H7       -7.4386     5.8743    -5.7535  H       1  <O>11       0.3292
  32 H8       -9.3747     6.7225    -2.7660  H       1  <O>11       0.0659
  33 H9       -3.9126     4.6672    -1.0697  H       1  <O>11       0.0814
  34 H10      -1.3274     2.2582     2.5047  H       1  <O>11       0.0638
  35 H11      -1.9528     2.4660     4.8488  H       1  <O>11       0.0618
  36 H12      -3.8226     3.8385     5.5078  H       1  <O>11       0.0618
  37 H13      -5.1132     5.0413     3.8370  H       1  <O>11       0.0624
@<TRIPOS>BOND
     1     1     2    2
     2     2     3   am
     3     3     4    1
     4     4     5    1
     5     5     6   ar
     6     6     7   ar
     7     7     8   ar
     8     8     9   ar
     9     9    10    1
    10    10    11    2
    11    10    12    1
    12     9    13   ar
    13     5    13   ar
    14     2    14    1
    15    14    15    2
    16    14    16    1
    17    16    17   ar
    18    17    18   ar
    19    18    19   ar
    20    19    20   ar
    21    20    21   ar
    22    21    22   ar
    23    22    23   ar
    24    23    24   ar
    25    16    24   ar
    26    19    24   ar
    27     3    25    1
    28     4    26    1
    29    18    27    1
    30     6    28    1
    31     7    29    1
    32     8    30    1
    33    12    31    1
    34    13    32    1
    35    17    33    1
    36    20    34    1
    37    21    35    1
    38    22    36    1
    39    23    37    1
@<TRIPOS>MOLECULE
mol68_2_10
 37 39 0 0 0
SMALL
USER_CHARGES
****
VDW energy = 199.01
@<TRIPOS>ATOM
   1 O1       -7.0008     4.0341     0.0422  O.2     1  <O>11      -0.2651
   2 C1       -6.8891     5.2237     0.2984  C.2     1  <O>11       0.3005
   3 N1       -7.9530     6.0660     0.1150  N.am    1  <O>11      -0.2298
   4 N2       -9.1490     5.5730    -0.3580  N.pl3   1  <O>11      -0.2641
   5 C2       -9.8561     4.5473     0.3870  C.ar    1  <O>11       0.0466
   6 C3      -10.9007     4.8980     1.2587  C.ar    1  <O>11      -0.0392
   7 C4      -11.5737     3.9103     1.9853  C.ar    1  <O>11      -0.0578
   8 C5      -11.2147     2.5675     1.8475  C.ar    1  <O>11      -0.0315
   9 C6      -10.1790     2.2174     0.9737  C.ar    1  <O>11       0.1234
  10 N3       -9.8140     0.8310     0.8339  N.4     1  <O>11       0.0060
  11 O2      -10.9760     0.0646     0.4213  O.2     1  <O>11      -0.1300
  12 O3       -9.3301     0.3262     2.1050  O.2     1  <O>11      -0.3961
  13 C7       -9.5027     3.1959     0.2425  C.ar    1  <O>11      -0.0093
  14 C8       -5.5960     5.7570     0.8100  C.2     1  <O>11       0.2507
  15 O4       -5.4850     6.9470     1.0660  O.2     1  <O>11      -0.2816
  16 C9       -4.5060     4.8940     0.9980  C.ar    1  <O>11       0.0519
  17 C10      -3.7627     4.4392    -0.0745  C.ar    1  <O>11       0.0137
  18 N4       -2.7766     3.6172     0.4475  N.ar    1  <O>11      -0.3599
  19 C11      -2.8825     3.5452     1.8254  C.ar    1  <O>11       0.0472
  20 C12      -2.1279     2.8462     2.7849  C.ar    1  <O>11      -0.0378
  21 C13      -2.4925     2.9702     4.1280  C.ar    1  <O>11      -0.0598
  22 C14      -3.5706     3.7618     4.5100  C.ar    1  <O>11      -0.0611
  23 C15      -4.3144     4.4540     3.5504  C.ar    1  <O>11      -0.0519
  24 C16      -3.9672     4.3452     2.1891  C.ar    1  <O>11       0.0106
  25 H1       -7.8590     7.0590     0.3290  H       1  <O>11       0.1731
  26 H2       -9.5378     5.9281    -1.2306  H       1  <O>11       0.1700
  27 H3       -2.0784     3.1393    -0.1035  H       1  <O>11       0.1654
  28 H4      -11.1724     5.8881     1.3634  H       1  <O>11       0.0636
  29 H5      -12.3386     4.1748     2.6258  H       1  <O>11       0.0619
  30 H6      -11.7094     1.8392     2.3858  H       1  <O>11       0.0640
  31 H7       -8.5806     0.7169     2.5095  H       1  <O>11       0.3292
  32 H8       -8.7443     2.9264    -0.4034  H       1  <O>11       0.0659
  33 H9       -3.9126     4.6672    -1.0697  H       1  <O>11       0.0814
  34 H10      -1.3274     2.2582     2.5047  H       1  <O>11       0.0638
  35 H11      -1.9528     2.4660     4.8488  H       1  <O>11       0.0618
  36 H12      -3.8226     3.8385     5.5078  H       1  <O>11       0.0618
  37 H13      -5.1132     5.0413     3.8370  H       1  <O>11       0.0624
@<TRIPOS>BOND
     1     1     2    2
     2     2     3   am
     3     3     4    1
     4     4     5    1
     5     5     6   ar
     6     6     7   ar
     7     7     8   ar
     8     8     9   ar
     9     9    10    1
    10    10    11    2
    11    10    12    1
    12     9    13   ar
    13     5    13   ar
    14     2    14    1
    15    14    15    2
    16    14    16    1
    17    16    17   ar
    18    17    18   ar
    19    18    19   ar
    20    19    20   ar
    21    20    21   ar
    22    21    22   ar
    23    22    23   ar
    24    23    24   ar
    25    16    24   ar
    26    19    24   ar
    27     3    25    1
    28     4    26    1
    29    18    27    1
    30     6    28    1
    31     7    29    1
    32     8    30    1
    33    12    31    1
    34    13    32    1
    35    17    33    1
    36    20    34    1
    37    21    35    1
    38    22    36    1
    39    23    37    1
@<TRIPOS>MOLECULE
mol68_2_11
 37 39 0 0 0
SMALL
USER_CHARGES
****
VDW energy = 199.39
@<TRIPOS>ATOM
   1 O1       -7.0008     4.0341     0.0422  O.2     1  <O>11      -0.2651
   2 C1       -6.8891     5.2237     0.2984  C.2     1  <O>11       0.3005
   3 N1       -7.9530     6.0660     0.1150  N.am    1  <O>11      -0.2298
   4 N2       -9.1490     5.5730    -0.3580  N.pl3   1  <O>11      -0.2641
   5 C2      -10.3534     5.7009     0.4421  C.ar    1  <O>11       0.0466
   6 C3      -11.2509     6.7561     0.2076  C.ar    1  <O>11      -0.0392
   7 C4      -12.4053     6.8857     0.9868  C.ar    1  <O>11      -0.0578
   8 C5      -12.6763     5.9652     2.0018  C.ar    1  <O>11      -0.0315
   9 C6      -11.7860     4.9099     2.2307  C.ar    1  <O>11       0.1234
  10 N3      -12.0711     3.9624     3.2774  N.4     1  <O>11       0.0060
  11 O2      -13.3709     3.3594     3.0426  O.2     1  <O>11      -0.1300
  12 O3      -12.0798     4.6429     4.5586  O.2     1  <O>11      -0.3961
  13 C7      -10.6322     4.7709     1.4567  C.ar    1  <O>11      -0.0093
  14 C8       -5.5960     5.7570     0.8100  C.2     1  <O>11       0.2507
  15 O4       -5.4850     6.9470     1.0660  O.2     1  <O>11      -0.2816
  16 C9       -4.5060     4.8940     0.9980  C.ar    1  <O>11       0.0519
  17 C10      -3.6738     5.0237     2.0935  C.ar    1  <O>11       0.0137
  18 N4       -2.7118     4.0328     1.9795  N.ar    1  <O>11      -0.3599
  19 C11      -2.9207     3.2814     0.8363  C.ar    1  <O>11       0.0472
  20 C12      -2.2188     2.1889     0.2954  C.ar    1  <O>11      -0.0378
  21 C13      -2.6800     1.6375    -0.9027  C.ar    1  <O>11      -0.0598
  22 C14      -3.8013     2.1511    -1.5458  C.ar    1  <O>11      -0.0611
  23 C15      -4.4937     3.2361    -1.0010  C.ar    1  <O>11      -0.0519
  24 C16      -4.0486     3.8105     0.2063  C.ar    1  <O>11       0.0106
  25 H1       -7.8590     7.0590     0.3290  H       1  <O>11       0.1731
  26 H2       -9.1888     5.1187    -1.2694  H       1  <O>11       0.1700
  27 H3       -1.9640     3.8817     2.6408  H       1  <O>11       0.1654
  28 H4      -11.0578     7.4383    -0.5424  H       1  <O>11       0.0636
  29 H5      -13.0593     7.6645     0.8110  H       1  <O>11       0.0619
  30 H6      -13.5265     6.0626     2.5785  H       1  <O>11       0.0640
  31 H7      -11.3107     5.0859     4.8590  H       1  <O>11       0.3292
  32 H8       -9.9852     3.9859     1.6300  H       1  <O>11       0.0659
  33 H9       -3.7532     5.7222     2.8490  H       1  <O>11       0.0814
  34 H10      -1.3867     1.8055     0.7702  H       1  <O>11       0.0638
  35 H11      -2.1801     0.8356    -1.3176  H       1  <O>11       0.0618
  36 H12      -4.1240     1.7286    -2.4304  H       1  <O>11       0.0618
  37 H13      -5.3258     3.6144    -1.4800  H       1  <O>11       0.0624
@<TRIPOS>BOND
     1     1     2    2
     2     2     3   am
     3     3     4    1
     4     4     5    1
     5     5     6   ar
     6     6     7   ar
     7     7     8   ar
     8     8     9   ar
     9     9    10    1
    10    10    11    2
    11    10    12    1
    12     9    13   ar
    13     5    13   ar
    14     2    14    1
    15    14    15    2
    16    14    16    1
    17    16    17   ar
    18    17    18   ar
    19    18    19   ar
    20    19    20   ar
    21    20    21   ar
    22    21    22   ar
    23    22    23   ar
    24    23    24   ar
    25    16    24   ar
    26    19    24   ar
    27     3    25    1
    28     4    26    1
    29    18    27    1
    30     6    28    1
    31     7    29    1
    32     8    30    1
    33    12    31    1
    34    13    32    1
    35    17    33    1
    36    20    34    1
    37    21    35    1
    38    22    36    1
    39    23    37    1
@<TRIPOS>MOLECULE
mol68_2_12
 37 39 0 0 0
SMALL
USER_CHARGES
****
VDW energy = 199.39
@<TRIPOS>ATOM
   1 O1       -7.0008     4.0341     0.0422  O.2     1  <O>11      -0.2651
   2 C1       -6.8891     5.2237     0.2984  C.2     1  <O>11       0.3005
   3 N1       -7.9530     6.0660     0.1150  N.am    1  <O>11      -0.2298
   4 N2       -9.1490     5.5730    -0.3580  N.pl3   1  <O>11      -0.2641
   5 C2      -10.3534     5.7009     0.4421  C.ar    1  <O>11       0.0466
   6 C3      -11.2509     6.7561     0.2076  C.ar    1  <O>11      -0.0392
   7 C4      -12.4053     6.8857     0.9868  C.ar    1  <O>11      -0.0578
   8 C5      -12.6763     5.9652     2.0018  C.ar    1  <O>11      -0.0315
   9 C6      -11.7860     4.9099     2.2307  C.ar    1  <O>11       0.1234
  10 N3      -12.0711     3.9624     3.2774  N.4     1  <O>11       0.0060
  11 O2      -13.3709     3.3594     3.0426  O.2     1  <O>11      -0.1300
  12 O3      -12.0798     4.6429     4.5586  O.2     1  <O>11      -0.3961
  13 C7      -10.6322     4.7709     1.4567  C.ar    1  <O>11      -0.0093
  14 C8       -5.5960     5.7570     0.8100  C.2     1  <O>11       0.2507
  15 O4       -5.4850     6.9470     1.0660  O.2     1  <O>11      -0.2816
  16 C9       -4.5060     4.8940     0.9980  C.ar    1  <O>11       0.0519
  17 C10      -3.2210     5.2867     0.6753  C.ar    1  <O>11       0.0137
  18 N4       -2.3928     4.2171     0.9761  N.ar    1  <O>11      -0.3599
  19 C11      -3.1285     3.1597     1.4820  C.ar    1  <O>11       0.0472
  20 C12      -2.7444     1.8785     1.9176  C.ar    1  <O>11      -0.0378
  21 C13      -3.7402     1.0130     2.3776  C.ar    1  <O>11      -0.0598
  22 C14      -5.0750     1.4032     2.4058  C.ar    1  <O>11      -0.0611
  23 C15      -5.4480     2.6785     1.9722  C.ar    1  <O>11      -0.0519
  24 C16      -4.4626     3.5701     1.5034  C.ar    1  <O>11       0.0106
  25 H1       -7.8590     7.0590     0.3290  H       1  <O>11       0.1731
  26 H2       -9.1888     5.1187    -1.2694  H       1  <O>11       0.1700
  27 H3       -1.3918     4.2130     0.8444  H       1  <O>11       0.1654
  28 H4      -11.0578     7.4383    -0.5424  H       1  <O>11       0.0636
  29 H5      -13.0593     7.6645     0.8110  H       1  <O>11       0.0619
  30 H6      -13.5265     6.0626     2.5785  H       1  <O>11       0.0640
  31 H7      -11.3107     5.0859     4.8590  H       1  <O>11       0.3292
  32 H8       -9.9852     3.9859     1.6300  H       1  <O>11       0.0659
  33 H9       -2.9341     6.1984     0.2862  H       1  <O>11       0.0814
  34 H10      -1.7550     1.5861     1.8981  H       1  <O>11       0.0638
  35 H11      -3.4810     0.0681     2.7018  H       1  <O>11       0.0618
  36 H12      -5.7942     0.7474     2.7489  H       1  <O>11       0.0618
  37 H13      -6.4390     2.9655     1.9952  H       1  <O>11       0.0624
@<TRIPOS>BOND
     1     1     2    2
     2     2     3   am
     3     3     4    1
     4     4     5    1
     5     5     6   ar
     6     6     7   ar
     7     7     8   ar
     8     8     9   ar
     9     9    10    1
    10    10    11    2
    11    10    12    1
    12     9    13   ar
    13     5    13   ar
    14     2    14    1
    15    14    15    2
    16    14    16    1
    17    16    17   ar
    18    17    18   ar
    19    18    19   ar
    20    19    20   ar
    21    20    21   ar
    22    21    22   ar
    23    22    23   ar
    24    23    24   ar
    25    16    24   ar
    26    19    24   ar
    27     3    25    1
    28     4    26    1
    29    18    27    1
    30     6    28    1
    31     7    29    1
    32     8    30    1
    33    12    31    1
    34    13    32    1
    35    17    33    1
    36    20    34    1
    37    21    35    1
    38    22    36    1
    39    23    37    1
@<TRIPOS>MOLECULE
mol68_2_13
 37 39 0 0 0
SMALL
USER_CHARGES
****
VDW energy = 199.59
@<TRIPOS>ATOM
   1 O1       -7.0008     4.0341     0.0422  O.2     1  <O>11      -0.2651
   2 C1       -6.8891     5.2237     0.2984  C.2     1  <O>11       0.3005
   3 N1       -7.9530     6.0660     0.1150  N.am    1  <O>11      -0.2298
   4 N2       -9.1490     5.5730    -0.3580  N.pl3   1  <O>11      -0.2641
   5 C2       -9.2041     4.9260    -1.6562  C.ar    1  <O>11       0.0466
   6 C3       -9.1439     3.5256    -1.7529  C.ar    1  <O>11      -0.0392
   7 C4       -9.1850     2.9032    -3.0049  C.ar    1  <O>11      -0.0578
   8 C5       -9.2896     3.6690    -4.1684  C.ar    1  <O>11      -0.0315
   9 C6       -9.3568     5.0636    -4.0718  C.ar    1  <O>11       0.1234
  10 N3       -9.4664     5.8484    -5.2745  N.4     1  <O>11       0.0060
  11 O2      -10.1698     5.0834    -6.2885  O.2     1  <O>11      -0.1300
  12 O3       -8.1401     6.1839    -5.7574  O.2     1  <O>11      -0.3961
  13 C7       -9.3187     5.6938    -2.8264  C.ar    1  <O>11      -0.0093
  14 C8       -5.5960     5.7570     0.8100  C.2     1  <O>11       0.2507
  15 O4       -5.4850     6.9470     1.0660  O.2     1  <O>11      -0.2816
  16 C9       -4.5060     4.8940     0.9980  C.ar    1  <O>11       0.0519
  17 C10      -3.7627     4.4392    -0.0745  C.ar    1  <O>11       0.0137
  18 N4       -2.7766     3.6172     0.4475  N.ar    1  <O>11      -0.3599
  19 C11      -2.8825     3.5452     1.8254  C.ar    1  <O>11       0.0472
  20 C12      -2.1279     2.8462     2.7849  C.ar    1  <O>11      -0.0378
  21 C13      -2.4925     2.9702     4.1280  C.ar    1  <O>11      -0.0598
  22 C14      -3.5706     3.7618     4.5100  C.ar    1  <O>11      -0.0611
  23 C15      -4.3144     4.4540     3.5504  C.ar    1  <O>11      -0.0519
  24 C16      -3.9672     4.3452     2.1891  C.ar    1  <O>11       0.0106
  25 H1       -7.8590     7.0590     0.3290  H       1  <O>11       0.1731
  26 H2       -9.9952     5.6621     0.2030  H       1  <O>11       0.1700
  27 H3       -2.0784     3.1393    -0.1035  H       1  <O>11       0.1654
  28 H4       -9.0690     2.9539    -0.8970  H       1  <O>11       0.0636
  29 H5       -9.1380     1.8743    -3.0692  H       1  <O>11       0.0619
  30 H6       -9.3169     3.2099    -5.0922  H       1  <O>11       0.0640
  31 H7       -7.5564     6.6794    -5.2174  H       1  <O>11       0.3292
  32 H8       -9.3747     6.7225    -2.7660  H       1  <O>11       0.0659
  33 H9       -3.9126     4.6672    -1.0697  H       1  <O>11       0.0814
  34 H10      -1.3274     2.2582     2.5047  H       1  <O>11       0.0638
  35 H11      -1.9528     2.4660     4.8488  H       1  <O>11       0.0618
  36 H12      -3.8226     3.8385     5.5078  H       1  <O>11       0.0618
  37 H13      -5.1132     5.0413     3.8370  H       1  <O>11       0.0624
@<TRIPOS>BOND
     1     1     2    2
     2     2     3   am
     3     3     4    1
     4     4     5    1
     5     5     6   ar
     6     6     7   ar
     7     7     8   ar
     8     8     9   ar
     9     9    10    1
    10    10    11    2
    11    10    12    1
    12     9    13   ar
    13     5    13   ar
    14     2    14    1
    15    14    15    2
    16    14    16    1
    17    16    17   ar
    18    17    18   ar
    19    18    19   ar
    20    19    20   ar
    21    20    21   ar
    22    21    22   ar
    23    22    23   ar
    24    23    24   ar
    25    16    24   ar
    26    19    24   ar
    27     3    25    1
    28     4    26    1
    29    18    27    1
    30     6    28    1
    31     7    29    1
    32     8    30    1
    33    12    31    1
    34    13    32    1
    35    17    33    1
    36    20    34    1
    37    21    35    1
    38    22    36    1
    39    23    37    1
@<TRIPOS>MOLECULE
mol68_2_14
 37 39 0 0 0
SMALL
USER_CHARGES
****
VDW energy = 200.12
@<TRIPOS>ATOM
   1 O1       -7.0008     4.0341     0.0422  O.2     1  <O>11      -0.2651
   2 C1       -6.8891     5.2237     0.2984  C.2     1  <O>11       0.3005
   3 N1       -7.9530     6.0660     0.1150  N.am    1  <O>11      -0.2298
   4 N2       -7.8282     7.4071     0.4035  N.pl3   1  <O>11      -0.2641
   5 C2       -8.0337     8.3954    -0.6396  C.ar    1  <O>11       0.0466
   6 C3       -9.2772     9.0353    -0.7743  C.ar    1  <O>11      -0.0392
   7 C4       -9.4782     9.9789    -1.7870  C.ar    1  <O>11      -0.0578
   8 C5       -8.4432    10.2947    -2.6702  C.ar    1  <O>11      -0.0315
   9 C6       -7.2022     9.6626    -2.5317  C.ar    1  <O>11       0.1234
  10 N3       -6.1377     9.9933    -3.4440  N.4     1  <O>11       0.0060
  11 O2       -5.8798    11.4210    -3.3886  O.2     1  <O>11      -0.1300
  12 O3       -6.5233     9.6250    -4.7932  O.2     1  <O>11      -0.3961
  13 C7       -6.9913     8.7210    -1.5225  C.ar    1  <O>11      -0.0093
  14 C8       -5.5960     5.7570     0.8100  C.2     1  <O>11       0.2507
  15 O4       -5.4850     6.9470     1.0660  O.2     1  <O>11      -0.2816
  16 C9       -4.5060     4.8940     0.9980  C.ar    1  <O>11       0.0519
  17 C10      -3.6738     5.0237     2.0935  C.ar    1  <O>11       0.0137
  18 N4       -2.7118     4.0328     1.9795  N.ar    1  <O>11      -0.3599
  19 C11      -2.9207     3.2814     0.8363  C.ar    1  <O>11       0.0472
  20 C12      -2.2188     2.1889     0.2954  C.ar    1  <O>11      -0.0378
  21 C13      -2.6800     1.6375    -0.9027  C.ar    1  <O>11      -0.0598
  22 C14      -3.8013     2.1511    -1.5458  C.ar    1  <O>11      -0.0611
  23 C15      -4.4937     3.2361    -1.0010  C.ar    1  <O>11      -0.0519
  24 C16      -4.0486     3.8105     0.2063  C.ar    1  <O>11       0.0106
  25 H1       -8.8381     5.6994    -0.2355  H       1  <O>11       0.1731
  26 H2       -7.5920     7.7057     1.3488  H       1  <O>11       0.1700
  27 H3       -1.9640     3.8817     2.6408  H       1  <O>11       0.1654
  28 H4      -10.0453     8.8083    -0.1235  H       1  <O>11       0.0636
  29 H5      -10.3948    10.4436    -1.8820  H       1  <O>11       0.0619
  30 H6       -8.5925    10.9887    -3.4192  H       1  <O>11       0.0640
  31 H7       -6.7247     8.7327    -4.9958  H       1  <O>11       0.3292
  32 H8       -6.0707     8.2650    -1.4256  H       1  <O>11       0.0659
  33 H9       -3.7532     5.7222     2.8490  H       1  <O>11       0.0814
  34 H10      -1.3867     1.8055     0.7702  H       1  <O>11       0.0638
  35 H11      -2.1801     0.8356    -1.3176  H       1  <O>11       0.0618
  36 H12      -4.1240     1.7286    -2.4304  H       1  <O>11       0.0618
  37 H13      -5.3258     3.6144    -1.4800  H       1  <O>11       0.0624
@<TRIPOS>BOND
     1     1     2    2
     2     2     3   am
     3     3     4    1
     4     4     5    1
     5     5     6   ar
     6     6     7   ar
     7     7     8   ar
     8     8     9   ar
     9     9    10    1
    10    10    11    2
    11    10    12    1
    12     9    13   ar
    13     5    13   ar
    14     2    14    1
    15    14    15    2
    16    14    16    1
    17    16    17   ar
    18    17    18   ar
    19    18    19   ar
    20    19    20   ar
    21    20    21   ar
    22    21    22   ar
    23    22    23   ar
    24    23    24   ar
    25    16    24   ar
    26    19    24   ar
    27     3    25    1
    28     4    26    1
    29    18    27    1
    30     6    28    1
    31     7    29    1
    32     8    30    1
    33    12    31    1
    34    13    32    1
    35    17    33    1
    36    20    34    1
    37    21    35    1
    38    22    36    1
    39    23    37    1
@<TRIPOS>MOLECULE
mol68_2_15
 37 39 0 0 0
SMALL
USER_CHARGES
****
VDW energy = 201.89
@<TRIPOS>ATOM
   1 O1       -7.0008     4.0341     0.0422  O.2     1  <O>11      -0.2651
   2 C1       -6.8891     5.2237     0.2984  C.2     1  <O>11       0.3005
   3 N1       -7.9530     6.0660     0.1150  N.am    1  <O>11      -0.2298
   4 N2       -9.1490     5.5730    -0.3580  N.pl3   1  <O>11      -0.2641
   5 C2       -9.8561     4.5473     0.3870  C.ar    1  <O>11       0.0466
   6 C3      -11.0765     4.0399    -0.0895  C.ar    1  <O>11      -0.0392
   7 C4      -11.7633     3.0600     0.6349  C.ar    1  <O>11      -0.0578
   8 C5      -11.2395     2.5762     1.8360  C.ar    1  <O>11      -0.0315
   9 C6      -10.0202     3.0764     2.3071  C.ar    1  <O>11       0.1234
  10 N3       -9.4836     2.5727     3.5452  N.4     1  <O>11       0.0060
  11 O2       -9.9077     1.1966     3.7315  O.2     1  <O>11      -0.1300
  12 O3       -9.9689     3.3803     4.6484  O.2     1  <O>11      -0.3961
  13 C7       -9.3262     4.0529     1.5899  C.ar    1  <O>11      -0.0093
  14 C8       -5.5960     5.7570     0.8100  C.2     1  <O>11       0.2507
  15 O4       -5.4850     6.9470     1.0660  O.2     1  <O>11      -0.2816
  16 C9       -4.5060     4.8940     0.9980  C.ar    1  <O>11       0.0519
  17 C10      -3.7627     4.4392    -0.0745  C.ar    1  <O>11       0.0137
  18 N4       -2.7766     3.6172     0.4475  N.ar    1  <O>11      -0.3599
  19 C11      -2.8825     3.5452     1.8254  C.ar    1  <O>11       0.0472
  20 C12      -2.1279     2.8462     2.7849  C.ar    1  <O>11      -0.0378
  21 C13      -2.4925     2.9702     4.1280  C.ar    1  <O>11      -0.0598
  22 C14      -3.5706     3.7618     4.5100  C.ar    1  <O>11      -0.0611
  23 C15      -4.3144     4.4540     3.5504  C.ar    1  <O>11      -0.0519
  24 C16      -3.9672     4.3452     2.1891  C.ar    1  <O>11       0.0106
  25 H1       -7.8590     7.0590     0.3290  H       1  <O>11       0.1731
  26 H2       -9.5378     5.9281    -1.2306  H       1  <O>11       0.1700
  27 H3       -2.0784     3.1393    -0.1035  H       1  <O>11       0.1654
  28 H4      -11.4678     4.3914    -0.9774  H       1  <O>11       0.0636
  29 H5      -12.6605     2.6932     0.2806  H       1  <O>11       0.0619
  30 H6      -11.7477     1.8555     2.3719  H       1  <O>11       0.0640
  31 H7       -9.7787     4.2973     4.6769  H       1  <O>11       0.3292
  32 H8       -8.4251     4.4108     1.9433  H       1  <O>11       0.0659
  33 H9       -3.9126     4.6672    -1.0697  H       1  <O>11       0.0814
  34 H10      -1.3274     2.2582     2.5047  H       1  <O>11       0.0638
  35 H11      -1.9528     2.4660     4.8488  H       1  <O>11       0.0618
  36 H12      -3.8226     3.8385     5.5078  H       1  <O>11       0.0618
  37 H13      -5.1132     5.0413     3.8370  H       1  <O>11       0.0624
@<TRIPOS>BOND
     1     1     2    2
     2     2     3   am
     3     3     4    1
     4     4     5    1
     5     5     6   ar
     6     6     7   ar
     7     7     8   ar
     8     8     9   ar
     9     9    10    1
    10    10    11    2
    11    10    12    1
    12     9    13   ar
    13     5    13   ar
    14     2    14    1
    15    14    15    2
    16    14    16    1
    17    16    17   ar
    18    17    18   ar
    19    18    19   ar
    20    19    20   ar
    21    20    21   ar
    22    21    22   ar
    23    22    23   ar
    24    23    24   ar
    25    16    24   ar
    26    19    24   ar
    27     3    25    1
    28     4    26    1
    29    18    27    1
    30     6    28    1
    31     7    29    1
    32     8    30    1
    33    12    31    1
    34    13    32    1
    35    17    33    1
    36    20    34    1
    37    21    35    1
    38    22    36    1
    39    23    37    1
@<TRIPOS>MOLECULE
mol68_2_16
 37 39 0 0 0
SMALL
USER_CHARGES
****
VDW energy = 203.01
@<TRIPOS>ATOM
   1 O1       -7.0008     4.0341     0.0422  O.2     1  <O>11      -0.2651
   2 C1       -6.8891     5.2237     0.2984  C.2     1  <O>11       0.3005
   3 N1       -7.9530     6.0660     0.1150  N.am    1  <O>11      -0.2298
   4 N2       -9.1490     5.5730    -0.3580  N.pl3   1  <O>11      -0.2641
   5 C2       -9.8561     4.5473     0.3870  C.ar    1  <O>11       0.0466
   6 C3      -10.9007     4.8980     1.2587  C.ar    1  <O>11      -0.0392
   7 C4      -11.5737     3.9103     1.9853  C.ar    1  <O>11      -0.0578
   8 C5      -11.2147     2.5675     1.8475  C.ar    1  <O>11      -0.0315
   9 C6      -10.1790     2.2174     0.9737  C.ar    1  <O>11       0.1234
  10 N3       -9.8140     0.8310     0.8339  N.4     1  <O>11       0.0060
  11 O2      -10.9812    -0.0015     1.0631  O.2     1  <O>11      -0.1300
  12 O3       -8.7873     0.4995     1.8038  O.2     1  <O>11      -0.3961
  13 C7       -9.5027     3.1959     0.2425  C.ar    1  <O>11      -0.0093
  14 C8       -5.5960     5.7570     0.8100  C.2     1  <O>11       0.2507
  15 O4       -5.4850     6.9470     1.0660  O.2     1  <O>11      -0.2816
  16 C9       -4.5060     4.8940     0.9980  C.ar    1  <O>11       0.0519
  17 C10      -3.7627     4.4392    -0.0745  C.ar    1  <O>11       0.0137
  18 N4       -2.7766     3.6172     0.4475  N.ar    1  <O>11      -0.3599
  19 C11      -2.8825     3.5452     1.8254  C.ar    1  <O>11       0.0472
  20 C12      -2.1279     2.8462     2.7849  C.ar    1  <O>11      -0.0378
  21 C13      -2.4925     2.9702     4.1280  C.ar    1  <O>11      -0.0598
  22 C14      -3.5706     3.7618     4.5100  C.ar    1  <O>11      -0.0611
  23 C15      -4.3144     4.4540     3.5504  C.ar    1  <O>11      -0.0519
  24 C16      -3.9672     4.3452     2.1891  C.ar    1  <O>11       0.0106
  25 H1       -7.8590     7.0590     0.3290  H       1  <O>11       0.1731
  26 H2       -9.5378     5.9281    -1.2306  H       1  <O>11       0.1700
  27 H3       -2.0784     3.1393    -0.1035  H       1  <O>11       0.1654
  28 H4      -11.1724     5.8881     1.3634  H       1  <O>11       0.0636
  29 H5      -12.3386     4.1748     2.6258  H       1  <O>11       0.0619
  30 H6      -11.7094     1.8392     2.3858  H       1  <O>11       0.0640
  31 H7       -7.9665     0.9511     1.7901  H       1  <O>11       0.3292
  32 H8       -8.7443     2.9264    -0.4034  H       1  <O>11       0.0659
  33 H9       -3.9126     4.6672    -1.0697  H       1  <O>11       0.0814
  34 H10      -1.3274     2.2582     2.5047  H       1  <O>11       0.0638
  35 H11      -1.9528     2.4660     4.8488  H       1  <O>11       0.0618
  36 H12      -3.8226     3.8385     5.5078  H       1  <O>11       0.0618
  37 H13      -5.1132     5.0413     3.8370  H       1  <O>11       0.0624
@<TRIPOS>BOND
     1     1     2    2
     2     2     3   am
     3     3     4    1
     4     4     5    1
     5     5     6   ar
     6     6     7   ar
     7     7     8   ar
     8     8     9   ar
     9     9    10    1
    10    10    11    2
    11    10    12    1
    12     9    13   ar
    13     5    13   ar
    14     2    14    1
    15    14    15    2
    16    14    16    1
    17    16    17   ar
    18    17    18   ar
    19    18    19   ar
    20    19    20   ar
    21    20    21   ar
    22    21    22   ar
    23    22    23   ar
    24    23    24   ar
    25    16    24   ar
    26    19    24   ar
    27     3    25    1
    28     4    26    1
    29    18    27    1
    30     6    28    1
    31     7    29    1
    32     8    30    1
    33    12    31    1
    34    13    32    1
    35    17    33    1
    36    20    34    1
    37    21    35    1
    38    22    36    1
    39    23    37    1
@<TRIPOS>MOLECULE
mol68_2_17
 37 39 0 0 0
SMALL
USER_CHARGES
****
VDW energy = 203.07
@<TRIPOS>ATOM
   1 O1       -7.0008     4.0341     0.0422  O.2     1  <O>11      -0.2651
   2 C1       -6.8891     5.2237     0.2984  C.2     1  <O>11       0.3005
   3 N1       -7.9530     6.0660     0.1150  N.am    1  <O>11      -0.2298
   4 N2       -9.1490     5.5730    -0.3580  N.pl3   1  <O>11      -0.2641
   5 C2       -9.2041     4.9260    -1.6562  C.ar    1  <O>11       0.0466
   6 C3       -9.1439     3.5256    -1.7529  C.ar    1  <O>11      -0.0392
   7 C4       -9.1850     2.9032    -3.0049  C.ar    1  <O>11      -0.0578
   8 C5       -9.2896     3.6690    -4.1684  C.ar    1  <O>11      -0.0315
   9 C6       -9.3568     5.0636    -4.0718  C.ar    1  <O>11       0.1234
  10 N3       -9.4664     5.8484    -5.2745  N.4     1  <O>11       0.0060
  11 O2      -10.6414     5.4313    -6.0185  O.2     1  <O>11      -0.1300
  12 O3       -8.2837     5.6519    -6.0915  O.2     1  <O>11      -0.3961
  13 C7       -9.3187     5.6938    -2.8264  C.ar    1  <O>11      -0.0093
  14 C8       -5.5960     5.7570     0.8100  C.2     1  <O>11       0.2507
  15 O4       -5.4850     6.9470     1.0660  O.2     1  <O>11      -0.2816
  16 C9       -4.5060     4.8940     0.9980  C.ar    1  <O>11       0.0519
  17 C10      -3.6738     5.0237     2.0935  C.ar    1  <O>11       0.0137
  18 N4       -2.7118     4.0328     1.9795  N.ar    1  <O>11      -0.3599
  19 C11      -2.9207     3.2814     0.8363  C.ar    1  <O>11       0.0472
  20 C12      -2.2188     2.1889     0.2954  C.ar    1  <O>11      -0.0378
  21 C13      -2.6800     1.6375    -0.9027  C.ar    1  <O>11      -0.0598
  22 C14      -3.8013     2.1511    -1.5458  C.ar    1  <O>11      -0.0611
  23 C15      -4.4937     3.2361    -1.0010  C.ar    1  <O>11      -0.0519
  24 C16      -4.0486     3.8105     0.2063  C.ar    1  <O>11       0.0106
  25 H1       -7.8590     7.0590     0.3290  H       1  <O>11       0.1731
  26 H2       -9.9952     5.6621     0.2030  H       1  <O>11       0.1700
  27 H3       -1.9640     3.8817     2.6408  H       1  <O>11       0.1654
  28 H4       -9.0690     2.9539    -0.8970  H       1  <O>11       0.0636
  29 H5       -9.1380     1.8743    -3.0692  H       1  <O>11       0.0619
  30 H6       -9.3169     3.2099    -5.0922  H       1  <O>11       0.0640
  31 H7       -7.4386     5.8743    -5.7535  H       1  <O>11       0.3292
  32 H8       -9.3747     6.7225    -2.7660  H       1  <O>11       0.0659
  33 H9       -3.7532     5.7222     2.8490  H       1  <O>11       0.0814
  34 H10      -1.3867     1.8055     0.7702  H       1  <O>11       0.0638
  35 H11      -2.1801     0.8356    -1.3176  H       1  <O>11       0.0618
  36 H12      -4.1240     1.7286    -2.4304  H       1  <O>11       0.0618
  37 H13      -5.3258     3.6144    -1.4800  H       1  <O>11       0.0624
@<TRIPOS>BOND
     1     1     2    2
     2     2     3   am
     3     3     4    1
     4     4     5    1
     5     5     6   ar
     6     6     7   ar
     7     7     8   ar
     8     8     9   ar
     9     9    10    1
    10    10    11    2
    11    10    12    1
    12     9    13   ar
    13     5    13   ar
    14     2    14    1
    15    14    15    2
    16    14    16    1
    17    16    17   ar
    18    17    18   ar
    19    18    19   ar
    20    19    20   ar
    21    20    21   ar
    22    21    22   ar
    23    22    23   ar
    24    23    24   ar
    25    16    24   ar
    26    19    24   ar
    27     3    25    1
    28     4    26    1
    29    18    27    1
    30     6    28    1
    31     7    29    1
    32     8    30    1
    33    12    31    1
    34    13    32    1
    35    17    33    1
    36    20    34    1
    37    21    35    1
    38    22    36    1
    39    23    37    1
@<TRIPOS>MOLECULE
mol68_2_18
 37 39 0 0 0
SMALL
USER_CHARGES
****
VDW energy = 203.44
@<TRIPOS>ATOM
   1 O1       -7.0008     4.0341     0.0422  O.2     1  <O>11      -0.2651
   2 C1       -6.8891     5.2237     0.2984  C.2     1  <O>11       0.3005
   3 N1       -7.9530     6.0660     0.1150  N.am    1  <O>11      -0.2298
   4 N2       -9.1490     5.5730    -0.3580  N.pl3   1  <O>11      -0.2641
   5 C2       -9.2041     4.9260    -1.6562  C.ar    1  <O>11       0.0466
   6 C3       -9.1439     3.5256    -1.7529  C.ar    1  <O>11      -0.0392
   7 C4       -9.1850     2.9032    -3.0049  C.ar    1  <O>11      -0.0578
   8 C5       -9.2896     3.6690    -4.1684  C.ar    1  <O>11      -0.0315
   9 C6       -9.3568     5.0636    -4.0718  C.ar    1  <O>11       0.1234
  10 N3       -9.4664     5.8484    -5.2745  N.4     1  <O>11       0.0060
  11 O2      -10.6414     5.4313    -6.0185  O.2     1  <O>11      -0.1300
  12 O3       -8.2837     5.6519    -6.0915  O.2     1  <O>11      -0.3961
  13 C7       -9.3187     5.6938    -2.8264  C.ar    1  <O>11      -0.0093
  14 C8       -5.5960     5.7570     0.8100  C.2     1  <O>11       0.2507
  15 O4       -5.4850     6.9470     1.0660  O.2     1  <O>11      -0.2816
  16 C9       -4.5060     4.8940     0.9980  C.ar    1  <O>11       0.0519
  17 C10      -3.2210     5.2867     0.6753  C.ar    1  <O>11       0.0137
  18 N4       -2.3928     4.2171     0.9761  N.ar    1  <O>11      -0.3599
  19 C11      -3.1285     3.1597     1.4820  C.ar    1  <O>11       0.0472
  20 C12      -2.7444     1.8785     1.9176  C.ar    1  <O>11      -0.0378
  21 C13      -3.7402     1.0130     2.3776  C.ar    1  <O>11      -0.0598
  22 C14      -5.0750     1.4032     2.4058  C.ar    1  <O>11      -0.0611
  23 C15      -5.4480     2.6785     1.9722  C.ar    1  <O>11      -0.0519
  24 C16      -4.4626     3.5701     1.5034  C.ar    1  <O>11       0.0106
  25 H1       -7.8590     7.0590     0.3290  H       1  <O>11       0.1731
  26 H2       -9.9952     5.6621     0.2030  H       1  <O>11       0.1700
  27 H3       -1.3918     4.2130     0.8444  H       1  <O>11       0.1654
  28 H4       -9.0690     2.9539    -0.8970  H       1  <O>11       0.0636
  29 H5       -9.1380     1.8743    -3.0692  H       1  <O>11       0.0619
  30 H6       -9.3169     3.2099    -5.0922  H       1  <O>11       0.0640
  31 H7       -7.4386     5.8743    -5.7535  H       1  <O>11       0.3292
  32 H8       -9.3747     6.7225    -2.7660  H       1  <O>11       0.0659
  33 H9       -2.9341     6.1984     0.2862  H       1  <O>11       0.0814
  34 H10      -1.7550     1.5861     1.8981  H       1  <O>11       0.0638
  35 H11      -3.4810     0.0681     2.7018  H       1  <O>11       0.0618
  36 H12      -5.7942     0.7474     2.7489  H       1  <O>11       0.0618
  37 H13      -6.4390     2.9655     1.9952  H       1  <O>11       0.0624
@<TRIPOS>BOND
     1     1     2    2
     2     2     3   am
     3     3     4    1
     4     4     5    1
     5     5     6   ar
     6     6     7   ar
     7     7     8   ar
     8     8     9   ar
     9     9    10    1
    10    10    11    2
    11    10    12    1
    12     9    13   ar
    13     5    13   ar
    14     2    14    1
    15    14    15    2
    16    14    16    1
    17    16    17   ar
    18    17    18   ar
    19    18    19   ar
    20    19    20   ar
    21    20    21   ar
    22    21    22   ar
    23    22    23   ar
    24    23    24   ar
    25    16    24   ar
    26    19    24   ar
    27     3    25    1
    28     4    26    1
    29    18    27    1
    30     6    28    1
    31     7    29    1
    32     8    30    1
    33    12    31    1
    34    13    32    1
    35    17    33    1
    36    20    34    1
    37    21    35    1
    38    22    36    1
    39    23    37    1
@<TRIPOS>MOLECULE
mol68_2_19
 37 39 0 0 0
SMALL
USER_CHARGES
****
VDW energy = 204.42
@<TRIPOS>ATOM
   1 O1       -7.0008     4.0341     0.0422  O.2     1  <O>11      -0.2651
   2 C1       -6.8891     5.2237     0.2984  C.2     1  <O>11       0.3005
   3 N1       -7.9530     6.0660     0.1150  N.am    1  <O>11      -0.2298
   4 N2       -9.1490     5.5730    -0.3580  N.pl3   1  <O>11      -0.2641
   5 C2       -9.8561     4.5473     0.3870  C.ar    1  <O>11       0.0466
   6 C3      -10.9007     4.8980     1.2587  C.ar    1  <O>11      -0.0392
   7 C4      -11.5737     3.9103     1.9853  C.ar    1  <O>11      -0.0578
   8 C5      -11.2147     2.5675     1.8475  C.ar    1  <O>11      -0.0315
   9 C6      -10.1790     2.2174     0.9737  C.ar    1  <O>11       0.1234
  10 N3       -9.8140     0.8310     0.8339  N.4     1  <O>11       0.0060
  11 O2      -10.9760     0.0646     0.4213  O.2     1  <O>11      -0.1300
  12 O3       -9.3301     0.3262     2.1050  O.2     1  <O>11      -0.3961
  13 C7       -9.5027     3.1959     0.2425  C.ar    1  <O>11      -0.0093
  14 C8       -5.5960     5.7570     0.8100  C.2     1  <O>11       0.2507
  15 O4       -5.4850     6.9470     1.0660  O.2     1  <O>11      -0.2816
  16 C9       -4.5060     4.8940     0.9980  C.ar    1  <O>11       0.0519
  17 C10      -3.6738     5.0237     2.0935  C.ar    1  <O>11       0.0137
  18 N4       -2.7118     4.0328     1.9795  N.ar    1  <O>11      -0.3599
  19 C11      -2.9207     3.2814     0.8363  C.ar    1  <O>11       0.0472
  20 C12      -2.2188     2.1889     0.2954  C.ar    1  <O>11      -0.0378
  21 C13      -2.6800     1.6375    -0.9027  C.ar    1  <O>11      -0.0598
  22 C14      -3.8013     2.1511    -1.5458  C.ar    1  <O>11      -0.0611
  23 C15      -4.4937     3.2361    -1.0010  C.ar    1  <O>11      -0.0519
  24 C16      -4.0486     3.8105     0.2063  C.ar    1  <O>11       0.0106
  25 H1       -7.8590     7.0590     0.3290  H       1  <O>11       0.1731
  26 H2       -9.5378     5.9281    -1.2306  H       1  <O>11       0.1700
  27 H3       -1.9640     3.8817     2.6408  H       1  <O>11       0.1654
  28 H4      -11.1724     5.8881     1.3634  H       1  <O>11       0.0636
  29 H5      -12.3386     4.1748     2.6258  H       1  <O>11       0.0619
  30 H6      -11.7094     1.8392     2.3858  H       1  <O>11       0.0640
  31 H7       -8.5806     0.7169     2.5095  H       1  <O>11       0.3292
  32 H8       -8.7443     2.9264    -0.4034  H       1  <O>11       0.0659
  33 H9       -3.7532     5.7222     2.8490  H       1  <O>11       0.0814
  34 H10      -1.3867     1.8055     0.7702  H       1  <O>11       0.0638
  35 H11      -2.1801     0.8356    -1.3176  H       1  <O>11       0.0618
  36 H12      -4.1240     1.7286    -2.4304  H       1  <O>11       0.0618
  37 H13      -5.3258     3.6144    -1.4800  H       1  <O>11       0.0624
@<TRIPOS>BOND
     1     1     2    2
     2     2     3   am
     3     3     4    1
     4     4     5    1
     5     5     6   ar
     6     6     7   ar
     7     7     8   ar
     8     8     9   ar
     9     9    10    1
    10    10    11    2
    11    10    12    1
    12     9    13   ar
    13     5    13   ar
    14     2    14    1
    15    14    15    2
    16    14    16    1
    17    16    17   ar
    18    17    18   ar
    19    18    19   ar
    20    19    20   ar
    21    20    21   ar
    22    21    22   ar
    23    22    23   ar
    24    23    24   ar
    25    16    24   ar
    26    19    24   ar
    27     3    25    1
    28     4    26    1
    29    18    27    1
    30     6    28    1
    31     7    29    1
    32     8    30    1
    33    12    31    1
    34    13    32    1
    35    17    33    1
    36    20    34    1
    37    21    35    1
    38    22    36    1
    39    23    37    1
@<TRIPOS>MOLECULE
mol68_2_20
 37 39 0 0 0
SMALL
USER_CHARGES
****
VDW energy = 205.07
@<TRIPOS>ATOM
   1 O1       -7.0008     4.0341     0.0422  O.2     1  <O>11      -0.2651
   2 C1       -6.8891     5.2237     0.2984  C.2     1  <O>11       0.3005
   3 N1       -7.9530     6.0660     0.1150  N.am    1  <O>11      -0.2298
   4 N2       -9.1490     5.5730    -0.3580  N.pl3   1  <O>11      -0.2641
   5 C2       -9.8561     4.5473     0.3870  C.ar    1  <O>11       0.0466
   6 C3      -10.9007     4.8980     1.2587  C.ar    1  <O>11      -0.0392
   7 C4      -11.5737     3.9103     1.9853  C.ar    1  <O>11      -0.0578
   8 C5      -11.2147     2.5675     1.8475  C.ar    1  <O>11      -0.0315
   9 C6      -10.1790     2.2174     0.9737  C.ar    1  <O>11       0.1234
  10 N3       -9.8140     0.8310     0.8339  N.4     1  <O>11       0.0060
  11 O2       -8.6387     0.7236    -0.0119  O.2     1  <O>11      -0.1300
  12 O3      -10.9112     0.0991     0.2298  O.2     1  <O>11      -0.3961
  13 C7       -9.5027     3.1959     0.2425  C.ar    1  <O>11      -0.0093
  14 C8       -5.5960     5.7570     0.8100  C.2     1  <O>11       0.2507
  15 O4       -5.4850     6.9470     1.0660  O.2     1  <O>11      -0.2816
  16 C9       -4.5060     4.8940     0.9980  C.ar    1  <O>11       0.0519
  17 C10      -3.7627     4.4392    -0.0745  C.ar    1  <O>11       0.0137
  18 N4       -2.7766     3.6172     0.4475  N.ar    1  <O>11      -0.3599
  19 C11      -2.8825     3.5452     1.8254  C.ar    1  <O>11       0.0472
  20 C12      -2.1279     2.8462     2.7849  C.ar    1  <O>11      -0.0378
  21 C13      -2.4925     2.9702     4.1280  C.ar    1  <O>11      -0.0598
  22 C14      -3.5706     3.7618     4.5100  C.ar    1  <O>11      -0.0611
  23 C15      -4.3144     4.4540     3.5504  C.ar    1  <O>11      -0.0519
  24 C16      -3.9672     4.3452     2.1891  C.ar    1  <O>11       0.0106
  25 H1       -7.8590     7.0590     0.3290  H       1  <O>11       0.1731
  26 H2       -9.5378     5.9281    -1.2306  H       1  <O>11       0.1700
  27 H3       -2.0784     3.1393    -0.1035  H       1  <O>11       0.1654
  28 H4      -11.1724     5.8881     1.3634  H       1  <O>11       0.0636
  29 H5      -12.3386     4.1748     2.6258  H       1  <O>11       0.0619
  30 H6      -11.7094     1.8392     2.3858  H       1  <O>11       0.0640
  31 H7      -11.7458     0.0706     0.6549  H       1  <O>11       0.3292
  32 H8       -8.7443     2.9264    -0.4034  H       1  <O>11       0.0659
  33 H9       -3.9126     4.6672    -1.0697  H       1  <O>11       0.0814
  34 H10      -1.3274     2.2582     2.5047  H       1  <O>11       0.0638
  35 H11      -1.9528     2.4660     4.8488  H       1  <O>11       0.0618
  36 H12      -3.8226     3.8385     5.5078  H       1  <O>11       0.0618
  37 H13      -5.1132     5.0413     3.8370  H       1  <O>11       0.0624
@<TRIPOS>BOND
     1     1     2    2
     2     2     3   am
     3     3     4    1
     4     4     5    1
     5     5     6   ar
     6     6     7   ar
     7     7     8   ar
     8     8     9   ar
     9     9    10    1
    10    10    11    2
    11    10    12    1
    12     9    13   ar
    13     5    13   ar
    14     2    14    1
    15    14    15    2
    16    14    16    1
    17    16    17   ar
    18    17    18   ar
    19    18    19   ar
    20    19    20   ar
    21    20    21   ar
    22    21    22   ar
    23    22    23   ar
    24    23    24   ar
    25    16    24   ar
    26    19    24   ar
    27     3    25    1
    28     4    26    1
    29    18    27    1
    30     6    28    1
    31     7    29    1
    32     8    30    1
    33    12    31    1
    34    13    32    1
    35    17    33    1
    36    20    34    1
    37    21    35    1
    38    22    36    1
    39    23    37    1
@<TRIPOS>MOLECULE
mol68_2_21
 37 39 0 0 0
SMALL
USER_CHARGES
****
VDW energy = 205.81
@<TRIPOS>ATOM
   1 O1       -7.0008     4.0341     0.0422  O.2     1  <O>11      -0.2651
   2 C1       -6.8891     5.2237     0.2984  C.2     1  <O>11       0.3005
   3 N1       -7.9530     6.0660     0.1150  N.am    1  <O>11      -0.2298
   4 N2       -9.1490     5.5730    -0.3580  N.pl3   1  <O>11      -0.2641
   5 C2      -10.3534     5.7009     0.4421  C.ar    1  <O>11       0.0466
   6 C3      -11.2509     6.7561     0.2076  C.ar    1  <O>11      -0.0392
   7 C4      -12.4053     6.8857     0.9868  C.ar    1  <O>11      -0.0578
   8 C5      -12.6763     5.9652     2.0018  C.ar    1  <O>11      -0.0315
   9 C6      -11.7860     4.9099     2.2307  C.ar    1  <O>11       0.1234
  10 N3      -12.0711     3.9624     3.2774  N.4     1  <O>11       0.0060
  11 O2      -13.3709     3.3594     3.0426  O.2     1  <O>11      -0.1300
  12 O3      -12.0798     4.6429     4.5586  O.2     1  <O>11      -0.3961
  13 C7      -10.6322     4.7709     1.4567  C.ar    1  <O>11      -0.0093
  14 C8       -5.5960     5.7570     0.8100  C.2     1  <O>11       0.2507
  15 O4       -4.6470     5.0042     0.9733  O.2     1  <O>11      -0.2816
  16 C9       -5.4672     7.1227     1.1043  C.ar    1  <O>11       0.0519
  17 C10      -6.0123     7.6591     2.2552  C.ar    1  <O>11       0.0137
  18 N4       -5.7116     9.0118     2.2425  N.ar    1  <O>11      -0.3599
  19 C11      -4.9883     9.3386     1.1089  C.ar    1  <O>11       0.0472
  20 C12      -4.4677    10.5636     0.6540  C.ar    1  <O>11      -0.0378
  21 C13      -3.7745    10.5752    -0.5591  C.ar    1  <O>11      -0.0598
  22 C14      -3.6017     9.4103    -1.2994  C.ar    1  <O>11      -0.0611
  23 C15      -4.1212     8.1969    -0.8397  C.ar    1  <O>11      -0.0519
  24 C16      -4.8246     8.1588     0.3807  C.ar    1  <O>11       0.0106
  25 H1       -7.8590     7.0590     0.3290  H       1  <O>11       0.1731
  26 H2       -9.1888     5.1187    -1.2694  H       1  <O>11       0.1700
  27 H3       -5.9830     9.6657     2.9624  H       1  <O>11       0.1654
  28 H4      -11.0578     7.4383    -0.5424  H       1  <O>11       0.0636
  29 H5      -13.0593     7.6645     0.8110  H       1  <O>11       0.0619
  30 H6      -13.5265     6.0626     2.5785  H       1  <O>11       0.0640
  31 H7      -11.3107     5.0859     4.8590  H       1  <O>11       0.3292
  32 H8       -9.9852     3.9859     1.6300  H       1  <O>11       0.0659
  33 H9       -6.5402     7.1515     2.9823  H       1  <O>11       0.0814
  34 H10      -4.5941    11.4295     1.2010  H       1  <O>11       0.0638
  35 H11      -3.3842    11.4630    -0.9119  H       1  <O>11       0.0618
  36 H12      -3.0868     9.4420    -2.1932  H       1  <O>11       0.0618
  37 H13      -3.9906     7.3342    -1.3907  H       1  <O>11       0.0624
@<TRIPOS>BOND
     1     1     2    2
     2     2     3   am
     3     3     4    1
     4     4     5    1
     5     5     6   ar
     6     6     7   ar
     7     7     8   ar
     8     8     9   ar
     9     9    10    1
    10    10    11    2
    11    10    12    1
    12     9    13   ar
    13     5    13   ar
    14     2    14    1
    15    14    15    2
    16    14    16    1
    17    16    17   ar
    18    17    18   ar
    19    18    19   ar
    20    19    20   ar
    21    20    21   ar
    22    21    22   ar
    23    22    23   ar
    24    23    24   ar
    25    16    24   ar
    26    19    24   ar
    27     3    25    1
    28     4    26    1
    29    18    27    1
    30     6    28    1
    31     7    29    1
    32     8    30    1
    33    12    31    1
    34    13    32    1
    35    17    33    1
    36    20    34    1
    37    21    35    1
    38    22    36    1
    39    23    37    1
@<TRIPOS>MOLECULE
mol68_2_22
 37 39 0 0 0
SMALL
USER_CHARGES
****
VDW energy = 206.41
@<TRIPOS>ATOM
   1 O1       -7.0008     4.0341     0.0422  O.2     1  <O>11      -0.2651
   2 C1       -6.8891     5.2237     0.2984  C.2     1  <O>11       0.3005
   3 N1       -7.9530     6.0660     0.1150  N.am    1  <O>11      -0.2298
   4 N2       -9.1490     5.5730    -0.3580  N.pl3   1  <O>11      -0.2641
   5 C2      -10.3534     5.7009     0.4421  C.ar    1  <O>11       0.0466
   6 C3      -10.8940     6.9696     0.7107  C.ar    1  <O>11      -0.0392
   7 C4      -12.0479     7.0930     1.4917  C.ar    1  <O>11      -0.0578
   8 C5      -12.6733     5.9557     2.0078  C.ar    1  <O>11      -0.0315
   9 C6      -12.1390     4.6914     1.7343  C.ar    1  <O>11       0.1234
  10 N3      -12.7889     3.5218     2.2674  N.4     1  <O>11       0.0060
  11 O2      -14.1696     3.4896     1.8194  O.2     1  <O>11      -0.1300
  12 O3      -12.7533     3.5654     3.7170  O.2     1  <O>11      -0.3961
  13 C7      -10.9889     4.5580     0.9539  C.ar    1  <O>11      -0.0093
  14 C8       -5.5960     5.7570     0.8100  C.2     1  <O>11       0.2507
  15 O4       -4.6470     5.0042     0.9733  O.2     1  <O>11      -0.2816
  16 C9       -5.4672     7.1227     1.1043  C.ar    1  <O>11       0.0519
  17 C10      -5.0475     8.0231     0.1438  C.ar    1  <O>11       0.0137
  18 N4       -5.0265     9.2686     0.7510  N.ar    1  <O>11      -0.3599
  19 C11      -5.4247     9.1720     2.0728  C.ar    1  <O>11       0.0472
  20 C12      -5.5574    10.1432     3.0818  C.ar    1  <O>11      -0.0378
  21 C13      -5.9827     9.7264     4.3457  C.ar    1  <O>11      -0.0598
  22 C14      -6.2681     8.3896     4.6035  C.ar    1  <O>11      -0.0611
  23 C15      -6.1348     7.4311     3.5951  C.ar    1  <O>11      -0.0519
  24 C16      -5.7072     7.8259     2.3118  C.ar    1  <O>11       0.0106
  25 H1       -7.8590     7.0590     0.3290  H       1  <O>11       0.1731
  26 H2       -9.1888     5.1187    -1.2694  H       1  <O>11       0.1700
  27 H3       -4.7584    10.1261     0.2902  H       1  <O>11       0.1654
  28 H4      -10.4381     7.8138     0.3304  H       1  <O>11       0.0636
  29 H5      -12.4386     8.0280     1.6873  H       1  <O>11       0.0619
  30 H6      -13.5229     6.0470     2.5864  H       1  <O>11       0.0640
  31 H7      -11.9307     3.5899     4.1649  H       1  <O>11       0.3292
  32 H8      -10.6064     3.6207     0.7534  H       1  <O>11       0.0659
  33 H9       -4.7983     7.8097    -0.8346  H       1  <O>11       0.0814
  34 H10      -5.3465    11.1357     2.8936  H       1  <O>11       0.0638
  35 H11      -6.0867    10.4221     5.1009  H       1  <O>11       0.0618
  36 H12      -6.5802     8.1039     5.5448  H       1  <O>11       0.0618
  37 H13      -6.3482     6.4403     3.7891  H       1  <O>11       0.0624
@<TRIPOS>BOND
     1     1     2    2
     2     2     3   am
     3     3     4    1
     4     4     5    1
     5     5     6   ar
     6     6     7   ar
     7     7     8   ar
     8     8     9   ar
     9     9    10    1
    10    10    11    2
    11    10    12    1
    12     9    13   ar
    13     5    13   ar
    14     2    14    1
    15    14    15    2
    16    14    16    1
    17    16    17   ar
    18    17    18   ar
    19    18    19   ar
    20    19    20   ar
    21    20    21   ar
    22    21    22   ar
    23    22    23   ar
    24    23    24   ar
    25    16    24   ar
    26    19    24   ar
    27     3    25    1
    28     4    26    1
    29    18    27    1
    30     6    28    1
    31     7    29    1
    32     8    30    1
    33    12    31    1
    34    13    32    1
    35    17    33    1
    36    20    34    1
    37    21    35    1
    38    22    36    1
    39    23    37    1
@<TRIPOS>MOLECULE
mol68_2_23
 37 39 0 0 0
SMALL
USER_CHARGES
****
VDW energy = 206.87
@<TRIPOS>ATOM
   1 O1       -7.0008     4.0341     0.0422  O.2     1  <O>11      -0.2651
   2 C1       -6.8891     5.2237     0.2984  C.2     1  <O>11       0.3005
   3 N1       -7.9530     6.0660     0.1150  N.am    1  <O>11      -0.2298
   4 N2       -9.1490     5.5730    -0.3580  N.pl3   1  <O>11      -0.2641
   5 C2      -10.3534     5.7009     0.4421  C.ar    1  <O>11       0.0466
   6 C3      -10.8940     6.9696     0.7107  C.ar    1  <O>11      -0.0392
   7 C4      -12.0479     7.0930     1.4917  C.ar    1  <O>11      -0.0578
   8 C5      -12.6733     5.9557     2.0078  C.ar    1  <O>11      -0.0315
   9 C6      -12.1390     4.6914     1.7343  C.ar    1  <O>11       0.1234
  10 N3      -12.7889     3.5218     2.2674  N.4     1  <O>11       0.0060
  11 O2      -14.1696     3.4896     1.8194  O.2     1  <O>11      -0.1300
  12 O3      -12.7533     3.5654     3.7170  O.2     1  <O>11      -0.3961
  13 C7      -10.9889     4.5580     0.9539  C.ar    1  <O>11      -0.0093
  14 C8       -5.5960     5.7570     0.8100  C.2     1  <O>11       0.2507
  15 O4       -4.6470     5.0042     0.9733  O.2     1  <O>11      -0.2816
  16 C9       -5.4672     7.1227     1.1043  C.ar    1  <O>11       0.0519
  17 C10      -6.0123     7.6591     2.2552  C.ar    1  <O>11       0.0137
  18 N4       -5.7116     9.0118     2.2425  N.ar    1  <O>11      -0.3599
  19 C11      -4.9883     9.3386     1.1089  C.ar    1  <O>11       0.0472
  20 C12      -4.4677    10.5636     0.6540  C.ar    1  <O>11      -0.0378
  21 C13      -3.7745    10.5752    -0.5591  C.ar    1  <O>11      -0.0598
  22 C14      -3.6017     9.4103    -1.2994  C.ar    1  <O>11      -0.0611
  23 C15      -4.1212     8.1969    -0.8397  C.ar    1  <O>11      -0.0519
  24 C16      -4.8246     8.1588     0.3807  C.ar    1  <O>11       0.0106
  25 H1       -7.8590     7.0590     0.3290  H       1  <O>11       0.1731
  26 H2       -9.1888     5.1187    -1.2694  H       1  <O>11       0.1700
  27 H3       -5.9830     9.6657     2.9624  H       1  <O>11       0.1654
  28 H4      -10.4381     7.8138     0.3304  H       1  <O>11       0.0636
  29 H5      -12.4386     8.0280     1.6873  H       1  <O>11       0.0619
  30 H6      -13.5229     6.0470     2.5864  H       1  <O>11       0.0640
  31 H7      -11.9307     3.5899     4.1649  H       1  <O>11       0.3292
  32 H8      -10.6064     3.6207     0.7534  H       1  <O>11       0.0659
  33 H9       -6.5402     7.1515     2.9823  H       1  <O>11       0.0814
  34 H10      -4.5941    11.4295     1.2010  H       1  <O>11       0.0638
  35 H11      -3.3842    11.4630    -0.9119  H       1  <O>11       0.0618
  36 H12      -3.0868     9.4420    -2.1932  H       1  <O>11       0.0618
  37 H13      -3.9906     7.3342    -1.3907  H       1  <O>11       0.0624
@<TRIPOS>BOND
     1     1     2    2
     2     2     3   am
     3     3     4    1
     4     4     5    1
     5     5     6   ar
     6     6     7   ar
     7     7     8   ar
     8     8     9   ar
     9     9    10    1
    10    10    11    2
    11    10    12    1
    12     9    13   ar
    13     5    13   ar
    14     2    14    1
    15    14    15    2
    16    14    16    1
    17    16    17   ar
    18    17    18   ar
    19    18    19   ar
    20    19    20   ar
    21    20    21   ar
    22    21    22   ar
    23    22    23   ar
    24    23    24   ar
    25    16    24   ar
    26    19    24   ar
    27     3    25    1
    28     4    26    1
    29    18    27    1
    30     6    28    1
    31     7    29    1
    32     8    30    1
    33    12    31    1
    34    13    32    1
    35    17    33    1
    36    20    34    1
    37    21    35    1
    38    22    36    1
    39    23    37    1
@<TRIPOS>MOLECULE
mol68_2_24
 37 39 0 0 0
SMALL
USER_CHARGES
****
VDW energy = 207.62
@<TRIPOS>ATOM
   1 O1       -7.0008     4.0341     0.0422  O.2     1  <O>11      -0.2651
   2 C1       -6.8891     5.2237     0.2984  C.2     1  <O>11       0.3005
   3 N1       -7.9530     6.0660     0.1150  N.am    1  <O>11      -0.2298
   4 N2       -9.1490     5.5730    -0.3580  N.pl3   1  <O>11      -0.2641
   5 C2       -9.8561     4.5473     0.3870  C.ar    1  <O>11       0.0466
   6 C3      -10.3871     4.8326     1.6562  C.ar    1  <O>11      -0.0392
   7 C4      -11.0579     3.8404     2.3787  C.ar    1  <O>11      -0.0578
   8 C5      -11.2080     2.5594     1.8426  C.ar    1  <O>11      -0.0315
   9 C6      -10.6854     2.2771     0.5753  C.ar    1  <O>11       0.1234
  10 N3      -10.8446     0.9550     0.0264  N.4     1  <O>11       0.0060
  11 O2      -12.2565     0.6210    -0.0280  O.2     1  <O>11      -0.1300
  12 O3      -10.1541    -0.0054     0.8664  O.2     1  <O>11      -0.3961
  13 C7      -10.0161     3.2615    -0.1544  C.ar    1  <O>11      -0.0093
  14 C8       -5.5960     5.7570     0.8100  C.2     1  <O>11       0.2507
  15 O4       -4.6470     5.0042     0.9733  O.2     1  <O>11      -0.2816
  16 C9       -5.4672     7.1227     1.1043  C.ar    1  <O>11       0.0519
  17 C10      -5.0475     8.0231     0.1438  C.ar    1  <O>11       0.0137
  18 N4       -5.0265     9.2686     0.7510  N.ar    1  <O>11      -0.3599
  19 C11      -5.4247     9.1720     2.0728  C.ar    1  <O>11       0.0472
  20 C12      -5.5574    10.1432     3.0818  C.ar    1  <O>11      -0.0378
  21 C13      -5.9827     9.7264     4.3457  C.ar    1  <O>11      -0.0598
  22 C14      -6.2681     8.3896     4.6035  C.ar    1  <O>11      -0.0611
  23 C15      -6.1348     7.4311     3.5951  C.ar    1  <O>11      -0.0519
  24 C16      -5.7072     7.8259     2.3118  C.ar    1  <O>11       0.0106
  25 H1       -7.8590     7.0590     0.3290  H       1  <O>11       0.1731
  26 H2       -9.5378     5.9281    -1.2306  H       1  <O>11       0.1700
  27 H3       -4.7584    10.1261     0.2902  H       1  <O>11       0.1654
  28 H4      -10.2817     5.7778     2.0569  H       1  <O>11       0.0636
  29 H5      -11.4435     4.0558     3.3114  H       1  <O>11       0.0619
  30 H6      -11.7004     1.8266     2.3770  H       1  <O>11       0.0640
  31 H7       -9.2305     0.0717     1.0044  H       1  <O>11       0.3292
  32 H8       -9.6396     3.0445    -1.0904  H       1  <O>11       0.0659
  33 H9       -4.7983     7.8097    -0.8346  H       1  <O>11       0.0814
  34 H10      -5.3465    11.1357     2.8936  H       1  <O>11       0.0638
  35 H11      -6.0867    10.4221     5.1009  H       1  <O>11       0.0618
  36 H12      -6.5802     8.1039     5.5448  H       1  <O>11       0.0618
  37 H13      -6.3482     6.4403     3.7891  H       1  <O>11       0.0624
@<TRIPOS>BOND
     1     1     2    2
     2     2     3   am
     3     3     4    1
     4     4     5    1
     5     5     6   ar
     6     6     7   ar
     7     7     8   ar
     8     8     9   ar
     9     9    10    1
    10    10    11    2
    11    10    12    1
    12     9    13   ar
    13     5    13   ar
    14     2    14    1
    15    14    15    2
    16    14    16    1
    17    16    17   ar
    18    17    18   ar
    19    18    19   ar
    20    19    20   ar
    21    20    21   ar
    22    21    22   ar
    23    22    23   ar
    24    23    24   ar
    25    16    24   ar
    26    19    24   ar
    27     3    25    1
    28     4    26    1
    29    18    27    1
    30     6    28    1
    31     7    29    1
    32     8    30    1
    33    12    31    1
    34    13    32    1
    35    17    33    1
    36    20    34    1
    37    21    35    1
    38    22    36    1
    39    23    37    1
@<TRIPOS>MOLECULE
mol68_2_25
 37 39 0 0 0
SMALL
USER_CHARGES
****
VDW energy = 209.15
@<TRIPOS>ATOM
   1 O1       -7.0008     4.0341     0.0422  O.2     1  <O>11      -0.2651
   2 C1       -6.8891     5.2237     0.2984  C.2     1  <O>11       0.3005
   3 N1       -7.9530     6.0660     0.1150  N.am    1  <O>11      -0.2298
   4 N2       -9.1490     5.5730    -0.3580  N.pl3   1  <O>11      -0.2641
   5 C2      -10.3534     5.7009     0.4421  C.ar    1  <O>11       0.0466
   6 C3      -10.4673     5.0187     1.6651  C.ar    1  <O>11      -0.0392
   7 C4      -11.6328     5.1329     2.4299  C.ar    1  <O>11      -0.0578
   8 C5      -12.6912     5.9287     1.9853  C.ar    1  <O>11      -0.0315
   9 C6      -12.5750     6.6141     0.7705  C.ar    1  <O>11       0.1234
  10 N3      -13.6685     7.4348     0.3176  N.4     1  <O>11       0.0060
  11 O2      -13.9723     8.4346     1.3257  O.2     1  <O>11      -0.1300
  12 O3      -14.8374     6.6052     0.0938  O.2     1  <O>11      -0.3961
  13 C7      -11.4146     6.5081     0.0012  C.ar    1  <O>11      -0.0093
  14 C8       -5.5960     5.7570     0.8100  C.2     1  <O>11       0.2507
  15 O4       -4.6470     5.0042     0.9733  O.2     1  <O>11      -0.2816
  16 C9       -5.4672     7.1227     1.1043  C.ar    1  <O>11       0.0519
  17 C10      -6.0123     7.6591     2.2552  C.ar    1  <O>11       0.0137
  18 N4       -5.7116     9.0118     2.2425  N.ar    1  <O>11      -0.3599
  19 C11      -4.9883     9.3386     1.1089  C.ar    1  <O>11       0.0472
  20 C12      -4.4677    10.5636     0.6540  C.ar    1  <O>11      -0.0378
  21 C13      -3.7745    10.5752    -0.5591  C.ar    1  <O>11      -0.0598
  22 C14      -3.6017     9.4103    -1.2994  C.ar    1  <O>11      -0.0611
  23 C15      -4.1212     8.1969    -0.8397  C.ar    1  <O>11      -0.0519
  24 C16      -4.8246     8.1588     0.3807  C.ar    1  <O>11       0.0106
  25 H1       -7.8590     7.0590     0.3290  H       1  <O>11       0.1731
  26 H2       -9.1888     5.1187    -1.2694  H       1  <O>11       0.1700
  27 H3       -5.9830     9.6657     2.9624  H       1  <O>11       0.1654
  28 H4       -9.6880     4.4310     2.0004  H       1  <O>11       0.0636
  29 H5      -11.7111     4.6273     3.3261  H       1  <O>11       0.0619
  30 H6      -13.5522     6.0106     2.5481  H       1  <O>11       0.0640
  31 H7      -14.8045     5.9083    -0.5317  H       1  <O>11       0.3292
  32 H8      -11.3369     7.0222    -0.8902  H       1  <O>11       0.0659
  33 H9       -6.5402     7.1515     2.9823  H       1  <O>11       0.0814
  34 H10      -4.5941    11.4295     1.2010  H       1  <O>11       0.0638
  35 H11      -3.3842    11.4630    -0.9119  H       1  <O>11       0.0618
  36 H12      -3.0868     9.4420    -2.1932  H       1  <O>11       0.0618
  37 H13      -3.9906     7.3342    -1.3907  H       1  <O>11       0.0624
@<TRIPOS>BOND
     1     1     2    2
     2     2     3   am
     3     3     4    1
     4     4     5    1
     5     5     6   ar
     6     6     7   ar
     7     7     8   ar
     8     8     9   ar
     9     9    10    1
    10    10    11    2
    11    10    12    1
    12     9    13   ar
    13     5    13   ar
    14     2    14    1
    15    14    15    2
    16    14    16    1
    17    16    17   ar
    18    17    18   ar
    19    18    19   ar
    20    19    20   ar
    21    20    21   ar
    22    21    22   ar
    23    22    23   ar
    24    23    24   ar
    25    16    24   ar
    26    19    24   ar
    27     3    25    1
    28     4    26    1
    29    18    27    1
    30     6    28    1
    31     7    29    1
    32     8    30    1
    33    12    31    1
    34    13    32    1
    35    17    33    1
    36    20    34    1
    37    21    35    1
    38    22    36    1
    39    23    37    1
@<TRIPOS>MOLECULE
mol68_2_26
 37 39 0 0 0
SMALL
USER_CHARGES
****
VDW energy = 210.12
@<TRIPOS>ATOM
   1 O1       -7.0008     4.0341     0.0422  O.2     1  <O>11      -0.2651
   2 C1       -6.8891     5.2237     0.2984  C.2     1  <O>11       0.3005
   3 N1       -7.9530     6.0660     0.1150  N.am    1  <O>11      -0.2298
   4 N2       -9.1490     5.5730    -0.3580  N.pl3   1  <O>11      -0.2641
   5 C2      -10.3534     5.7009     0.4421  C.ar    1  <O>11       0.0466
   6 C3      -11.5768     5.2004    -0.0341  C.ar    1  <O>11      -0.0392
   7 C4      -12.7393     5.3345     0.7321  C.ar    1  <O>11      -0.0578
   8 C5      -12.6922     5.9643     1.9780  C.ar    1  <O>11      -0.0315
   9 C6      -11.4722     6.4565     2.4557  C.ar    1  <O>11       0.1234
  10 N3      -11.4289     7.1034     3.7419  N.4     1  <O>11       0.0060
  11 O2      -11.9308     6.1947     4.7570  O.2     1  <O>11      -0.1300
  12 O3      -12.2536     8.2966     3.7128  O.2     1  <O>11      -0.3961
  13 C7      -10.3061     6.3253     1.6991  C.ar    1  <O>11      -0.0093
  14 C8       -5.5960     5.7570     0.8100  C.2     1  <O>11       0.2507
  15 O4       -4.6470     5.0042     0.9733  O.2     1  <O>11      -0.2816
  16 C9       -5.4672     7.1227     1.1043  C.ar    1  <O>11       0.0519
  17 C10      -6.0123     7.6591     2.2552  C.ar    1  <O>11       0.0137
  18 N4       -5.7116     9.0118     2.2425  N.ar    1  <O>11      -0.3599
  19 C11      -4.9883     9.3386     1.1089  C.ar    1  <O>11       0.0472
  20 C12      -4.4677    10.5636     0.6540  C.ar    1  <O>11      -0.0378
  21 C13      -3.7745    10.5752    -0.5591  C.ar    1  <O>11      -0.0598
  22 C14      -3.6017     9.4103    -1.2994  C.ar    1  <O>11      -0.0611
  23 C15      -4.1212     8.1969    -0.8397  C.ar    1  <O>11      -0.0519
  24 C16      -4.8246     8.1588     0.3807  C.ar    1  <O>11       0.0106
  25 H1       -7.8590     7.0590     0.3290  H       1  <O>11       0.1731
  26 H2       -9.1888     5.1187    -1.2694  H       1  <O>11       0.1700
  27 H3       -5.9830     9.6657     2.9624  H       1  <O>11       0.1654
  28 H4      -11.6179     4.7319    -0.9528  H       1  <O>11       0.0636
  29 H5      -13.6352     4.9668     0.3755  H       1  <O>11       0.0619
  30 H6      -13.5505     6.0658     2.5419  H       1  <O>11       0.0640
  31 H7      -12.0600     8.9852     3.1076  H       1  <O>11       0.3292
  32 H8       -9.4106     6.6867     2.0631  H       1  <O>11       0.0659
  33 H9       -6.5402     7.1515     2.9823  H       1  <O>11       0.0814
  34 H10      -4.5941    11.4295     1.2010  H       1  <O>11       0.0638
  35 H11      -3.3842    11.4630    -0.9119  H       1  <O>11       0.0618
  36 H12      -3.0868     9.4420    -2.1932  H       1  <O>11       0.0618
  37 H13      -3.9906     7.3342    -1.3907  H       1  <O>11       0.0624
@<TRIPOS>BOND
     1     1     2    2
     2     2     3   am
     3     3     4    1
     4     4     5    1
     5     5     6   ar
     6     6     7   ar
     7     7     8   ar
     8     8     9   ar
     9     9    10    1
    10    10    11    2
    11    10    12    1
    12     9    13   ar
    13     5    13   ar
    14     2    14    1
    15    14    15    2
    16    14    16    1
    17    16    17   ar
    18    17    18   ar
    19    18    19   ar
    20    19    20   ar
    21    20    21   ar
    22    21    22   ar
    23    22    23   ar
    24    23    24   ar
    25    16    24   ar
    26    19    24   ar
    27     3    25    1
    28     4    26    1
    29    18    27    1
    30     6    28    1
    31     7    29    1
    32     8    30    1
    33    12    31    1
    34    13    32    1
    35    17    33    1
    36    20    34    1
    37    21    35    1
    38    22    36    1
    39    23    37    1
@<TRIPOS>MOLECULE
mol68_2_27
 37 39 0 0 0
SMALL
USER_CHARGES
****
VDW energy = 210.43
@<TRIPOS>ATOM
   1 O1       -7.0008     4.0341     0.0422  O.2     1  <O>11      -0.2651
   2 C1       -6.8891     5.2237     0.2984  C.2     1  <O>11       0.3005
   3 N1       -7.9530     6.0660     0.1150  N.am    1  <O>11      -0.2298
   4 N2       -9.1490     5.5730    -0.3580  N.pl3   1  <O>11      -0.2641
   5 C2      -10.3534     5.7009     0.4421  C.ar    1  <O>11       0.0466
   6 C3      -11.5768     5.2004    -0.0341  C.ar    1  <O>11      -0.0392
   7 C4      -12.7393     5.3345     0.7321  C.ar    1  <O>11      -0.0578
   8 C5      -12.6922     5.9643     1.9780  C.ar    1  <O>11      -0.0315
   9 C6      -11.4722     6.4565     2.4557  C.ar    1  <O>11       0.1234
  10 N3      -11.4289     7.1034     3.7419  N.4     1  <O>11       0.0060
  11 O2      -12.4539     6.5390     4.6015  O.2     1  <O>11      -0.1300
  12 O3      -11.6663     8.5252     3.5780  O.2     1  <O>11      -0.3961
  13 C7      -10.3061     6.3253     1.6991  C.ar    1  <O>11      -0.0093
  14 C8       -5.5960     5.7570     0.8100  C.2     1  <O>11       0.2507
  15 O4       -4.6470     5.0042     0.9733  O.2     1  <O>11      -0.2816
  16 C9       -5.4672     7.1227     1.1043  C.ar    1  <O>11       0.0519
  17 C10      -6.0123     7.6591     2.2552  C.ar    1  <O>11       0.0137
  18 N4       -5.7116     9.0118     2.2425  N.ar    1  <O>11      -0.3599
  19 C11      -4.9883     9.3386     1.1089  C.ar    1  <O>11       0.0472
  20 C12      -4.4677    10.5636     0.6540  C.ar    1  <O>11      -0.0378
  21 C13      -3.7745    10.5752    -0.5591  C.ar    1  <O>11      -0.0598
  22 C14      -3.6017     9.4103    -1.2994  C.ar    1  <O>11      -0.0611
  23 C15      -4.1212     8.1969    -0.8397  C.ar    1  <O>11      -0.0519
  24 C16      -4.8246     8.1588     0.3807  C.ar    1  <O>11       0.0106
  25 H1       -7.8590     7.0590     0.3290  H       1  <O>11       0.1731
  26 H2       -9.1888     5.1187    -1.2694  H       1  <O>11       0.1700
  27 H3       -5.9830     9.6657     2.9624  H       1  <O>11       0.1654
  28 H4      -11.6179     4.7319    -0.9528  H       1  <O>11       0.0636
  29 H5      -13.6352     4.9668     0.3755  H       1  <O>11       0.0619
  30 H6      -13.5505     6.0658     2.5419  H       1  <O>11       0.0640
  31 H7      -11.0889     9.0385     3.0480  H       1  <O>11       0.3292
  32 H8       -9.4106     6.6867     2.0631  H       1  <O>11       0.0659
  33 H9       -6.5402     7.1515     2.9823  H       1  <O>11       0.0814
  34 H10      -4.5941    11.4295     1.2010  H       1  <O>11       0.0638
  35 H11      -3.3842    11.4630    -0.9119  H       1  <O>11       0.0618
  36 H12      -3.0868     9.4420    -2.1932  H       1  <O>11       0.0618
  37 H13      -3.9906     7.3342    -1.3907  H       1  <O>11       0.0624
@<TRIPOS>BOND
     1     1     2    2
     2     2     3   am
     3     3     4    1
     4     4     5    1
     5     5     6   ar
     6     6     7   ar
     7     7     8   ar
     8     8     9   ar
     9     9    10    1
    10    10    11    2
    11    10    12    1
    12     9    13   ar
    13     5    13   ar
    14     2    14    1
    15    14    15    2
    16    14    16    1
    17    16    17   ar
    18    17    18   ar
    19    18    19   ar
    20    19    20   ar
    21    20    21   ar
    22    21    22   ar
    23    22    23   ar
    24    23    24   ar
    25    16    24   ar
    26    19    24   ar
    27     3    25    1
    28     4    26    1
    29    18    27    1
    30     6    28    1
    31     7    29    1
    32     8    30    1
    33    12    31    1
    34    13    32    1
    35    17    33    1
    36    20    34    1
    37    21    35    1
    38    22    36    1
    39    23    37    1
@<TRIPOS>MOLECULE
mol68_2_28
 37 39 0 0 0
SMALL
USER_CHARGES
****
VDW energy = 216.95
@<TRIPOS>ATOM
   1 O1       -7.0008     4.0341     0.0422  O.2     1  <O>11      -0.2651
   2 C1       -6.8891     5.2237     0.2984  C.2     1  <O>11       0.3005
   3 N1       -7.9530     6.0660     0.1150  N.am    1  <O>11      -0.2298
   4 N2       -9.1490     5.5730    -0.3580  N.pl3   1  <O>11      -0.2641
   5 C2       -9.8561     4.5473     0.3870  C.ar    1  <O>11       0.0466
   6 C3      -10.9007     4.8980     1.2587  C.ar    1  <O>11      -0.0392
   7 C4      -11.5737     3.9103     1.9853  C.ar    1  <O>11      -0.0578
   8 C5      -11.2147     2.5675     1.8475  C.ar    1  <O>11      -0.0315
   9 C6      -10.1790     2.2174     0.9737  C.ar    1  <O>11       0.1234
  10 N3       -9.8140     0.8310     0.8339  N.4     1  <O>11       0.0060
  11 O2      -10.9812    -0.0015     1.0631  O.2     1  <O>11      -0.1300
  12 O3       -8.7873     0.4995     1.8038  O.2     1  <O>11      -0.3961
  13 C7       -9.5027     3.1959     0.2425  C.ar    1  <O>11      -0.0093
  14 C8       -5.5960     5.7570     0.8100  C.2     1  <O>11       0.2507
  15 O4       -4.6470     5.0042     0.9733  O.2     1  <O>11      -0.2816
  16 C9       -5.4672     7.1227     1.1043  C.ar    1  <O>11       0.0519
  17 C10      -6.0123     7.6591     2.2552  C.ar    1  <O>11       0.0137
  18 N4       -5.7116     9.0118     2.2425  N.ar    1  <O>11      -0.3599
  19 C11      -4.9883     9.3386     1.1089  C.ar    1  <O>11       0.0472
  20 C12      -4.4677    10.5636     0.6540  C.ar    1  <O>11      -0.0378
  21 C13      -3.7745    10.5752    -0.5591  C.ar    1  <O>11      -0.0598
  22 C14      -3.6017     9.4103    -1.2994  C.ar    1  <O>11      -0.0611
  23 C15      -4.1212     8.1969    -0.8397  C.ar    1  <O>11      -0.0519
  24 C16      -4.8246     8.1588     0.3807  C.ar    1  <O>11       0.0106
  25 H1       -7.8590     7.0590     0.3290  H       1  <O>11       0.1731
  26 H2       -9.5378     5.9281    -1.2306  H       1  <O>11       0.1700
  27 H3       -5.9830     9.6657     2.9624  H       1  <O>11       0.1654
  28 H4      -11.1724     5.8881     1.3634  H       1  <O>11       0.0636
  29 H5      -12.3386     4.1748     2.6258  H       1  <O>11       0.0619
  30 H6      -11.7094     1.8392     2.3858  H       1  <O>11       0.0640
  31 H7       -7.9665     0.9511     1.7901  H       1  <O>11       0.3292
  32 H8       -8.7443     2.9264    -0.4034  H       1  <O>11       0.0659
  33 H9       -6.5402     7.1515     2.9823  H       1  <O>11       0.0814
  34 H10      -4.5941    11.4295     1.2010  H       1  <O>11       0.0638
  35 H11      -3.3842    11.4630    -0.9119  H       1  <O>11       0.0618
  36 H12      -3.0868     9.4420    -2.1932  H       1  <O>11       0.0618
  37 H13      -3.9906     7.3342    -1.3907  H       1  <O>11       0.0624
@<TRIPOS>BOND
     1     1     2    2
     2     2     3   am
     3     3     4    1
     4     4     5    1
     5     5     6   ar
     6     6     7   ar
     7     7     8   ar
     8     8     9   ar
     9     9    10    1
    10    10    11    2
    11    10    12    1
    12     9    13   ar
    13     5    13   ar
    14     2    14    1
    15    14    15    2
    16    14    16    1
    17    16    17   ar
    18    17    18   ar
    19    18    19   ar
    20    19    20   ar
    21    20    21   ar
    22    21    22   ar
    23    22    23   ar
    24    23    24   ar
    25    16    24   ar
    26    19    24   ar
    27     3    25    1
    28     4    26    1
    29    18    27    1
    30     6    28    1
    31     7    29    1
    32     8    30    1
    33    12    31    1
    34    13    32    1
    35    17    33    1
    36    20    34    1
    37    21    35    1
    38    22    36    1
    39    23    37    1
@<TRIPOS>MOLECULE
mol68_2_29
 37 39 0 0 0
SMALL
USER_CHARGES
****
VDW energy = 221.79
@<TRIPOS>ATOM
   1 O1       -7.0008     4.0341     0.0422  O.2     1  <O>11      -0.2651
   2 C1       -6.8891     5.2237     0.2984  C.2     1  <O>11       0.3005
   3 N1       -7.9530     6.0660     0.1150  N.am    1  <O>11      -0.2298
   4 N2       -9.1490     5.5730    -0.3580  N.pl3   1  <O>11      -0.2641
   5 C2       -9.8561     4.5473     0.3870  C.ar    1  <O>11       0.0466
   6 C3       -9.2977     3.2664     0.5339  C.ar    1  <O>11      -0.0392
   7 C4       -9.9849     2.2750     1.2419  C.ar    1  <O>11      -0.0578
   8 C5      -11.2302     2.5516     1.8109  C.ar    1  <O>11      -0.0315
   9 C6      -11.7832     3.8296     1.6708  C.ar    1  <O>11       0.1234
  10 N3      -13.0667     4.1101     2.2612  N.4     1  <O>11       0.0060
  11 O2      -13.2441     3.2887     3.4452  O.2     1  <O>11      -0.1300
  12 O3      -14.1162     3.8109     1.3053  O.2     1  <O>11      -0.3961
  13 C7      -11.1038     4.8265     0.9679  C.ar    1  <O>11      -0.0093
  14 C8       -5.5960     5.7570     0.8100  C.2     1  <O>11       0.2507
  15 O4       -5.4850     6.9470     1.0660  O.2     1  <O>11      -0.2816
  16 C9       -4.5060     4.8940     0.9980  C.ar    1  <O>11       0.0519
  17 C10      -3.7627     4.4392    -0.0745  C.ar    1  <O>11       0.0137
  18 N4       -2.7766     3.6172     0.4475  N.ar    1  <O>11      -0.3599
  19 C11      -2.8825     3.5452     1.8254  C.ar    1  <O>11       0.0472
  20 C12      -2.1279     2.8462     2.7849  C.ar    1  <O>11      -0.0378
  21 C13      -2.4925     2.9702     4.1280  C.ar    1  <O>11      -0.0598
  22 C14      -3.5706     3.7618     4.5100  C.ar    1  <O>11      -0.0611
  23 C15      -4.3144     4.4540     3.5504  C.ar    1  <O>11      -0.0519
  24 C16      -3.9672     4.3452     2.1891  C.ar    1  <O>11       0.0106
  25 H1       -7.8590     7.0590     0.3290  H       1  <O>11       0.1731
  26 H2       -9.5378     5.9281    -1.2306  H       1  <O>11       0.1700
  27 H3       -2.0784     3.1393    -0.1035  H       1  <O>11       0.1654
  28 H4       -8.3769     3.0563     0.1179  H       1  <O>11       0.0636
  29 H5       -9.5703     1.3354     1.3441  H       1  <O>11       0.0619
  30 H6      -11.7385     1.8192     2.3307  H       1  <O>11       0.0640
  31 H7      -14.1432     4.2600     0.4834  H       1  <O>11       0.3292
  32 H8      -11.5179     5.7672     0.8754  H       1  <O>11       0.0659
  33 H9       -3.9126     4.6672    -1.0697  H       1  <O>11       0.0814
  34 H10      -1.3274     2.2582     2.5047  H       1  <O>11       0.0638
  35 H11      -1.9528     2.4660     4.8488  H       1  <O>11       0.0618
  36 H12      -3.8226     3.8385     5.5078  H       1  <O>11       0.0618
  37 H13      -5.1132     5.0413     3.8370  H       1  <O>11       0.0624
@<TRIPOS>BOND
     1     1     2    2
     2     2     3   am
     3     3     4    1
     4     4     5    1
     5     5     6   ar
     6     6     7   ar
     7     7     8   ar
     8     8     9   ar
     9     9    10    1
    10    10    11    2
    11    10    12    1
    12     9    13   ar
    13     5    13   ar
    14     2    14    1
    15    14    15    2
    16    14    16    1
    17    16    17   ar
    18    17    18   ar
    19    18    19   ar
    20    19    20   ar
    21    20    21   ar
    22    21    22   ar
    23    22    23   ar
    24    23    24   ar
    25    16    24   ar
    26    19    24   ar
    27     3    25    1
    28     4    26    1
    29    18    27    1
    30     6    28    1
    31     7    29    1
    32     8    30    1
    33    12    31    1
    34    13    32    1
    35    17    33    1
    36    20    34    1
    37    21    35    1
    38    22    36    1
    39    23    37    1
@<TRIPOS>MOLECULE
mol68_2_30
 37 39 0 0 0
SMALL
USER_CHARGES
****
VDW energy = 222.51
@<TRIPOS>ATOM
   1 O1       -7.0008     4.0341     0.0422  O.2     1  <O>11      -0.2651
   2 C1       -6.8891     5.2237     0.2984  C.2     1  <O>11       0.3005
   3 N1       -7.9530     6.0660     0.1150  N.am    1  <O>11      -0.2298
   4 N2       -9.1490     5.5730    -0.3580  N.pl3   1  <O>11      -0.2641
   5 C2      -10.3534     5.7009     0.4421  C.ar    1  <O>11       0.0466
   6 C3      -11.2509     6.7561     0.2076  C.ar    1  <O>11      -0.0392
   7 C4      -12.4053     6.8857     0.9868  C.ar    1  <O>11      -0.0578
   8 C5      -12.6763     5.9652     2.0018  C.ar    1  <O>11      -0.0315
   9 C6      -11.7860     4.9099     2.2307  C.ar    1  <O>11       0.1234
  10 N3      -12.0711     3.9624     3.2774  N.4     1  <O>11       0.0060
  11 O2      -13.3709     3.3594     3.0426  O.2     1  <O>11      -0.1300
  12 O3      -12.0798     4.6429     4.5586  O.2     1  <O>11      -0.3961
  13 C7      -10.6322     4.7709     1.4567  C.ar    1  <O>11      -0.0093
  14 C8       -5.5960     5.7570     0.8100  C.2     1  <O>11       0.2507
  15 O4       -4.6470     5.0042     0.9733  O.2     1  <O>11      -0.2816
  16 C9       -5.4672     7.1227     1.1043  C.ar    1  <O>11       0.0519
  17 C10      -4.7633     7.5502     2.2139  C.ar    1  <O>11       0.0137
  18 N4       -4.8285     8.9345     2.2150  N.ar    1  <O>11      -0.3599
  19 C11      -5.5577     9.3878     1.1297  C.ar    1  <O>11       0.0472
  20 C12      -5.8995    10.6864     0.7109  C.ar    1  <O>11      -0.0378
  21 C13      -6.6689    10.8241    -0.4473  C.ar    1  <O>11      -0.0598
  22 C14      -7.0869     9.7109    -1.1691  C.ar    1  <O>11      -0.0611
  23 C15      -6.7419     8.4241    -0.7467  C.ar    1  <O>11      -0.0519
  24 C16      -5.9669     8.2584     0.4184  C.ar    1  <O>11       0.0106
  25 H1       -7.8590     7.0590     0.3290  H       1  <O>11       0.1731
  26 H2       -9.1888     5.1187    -1.2694  H       1  <O>11       0.1700
  27 H3       -4.4015     9.5274     2.9118  H       1  <O>11       0.1654
  28 H4      -11.0578     7.4383    -0.5424  H       1  <O>11       0.0636
  29 H5      -13.0593     7.6645     0.8110  H       1  <O>11       0.0619
  30 H6      -13.5265     6.0626     2.5785  H       1  <O>11       0.0640
  31 H7      -11.3107     5.0859     4.8590  H       1  <O>11       0.3292
  32 H8       -9.9852     3.9859     1.6300  H       1  <O>11       0.0659
  33 H9       -4.2828     6.9549     2.9065  H       1  <O>11       0.0814
  34 H10      -5.5908    11.5143     1.2441  H       1  <O>11       0.0638
  35 H11      -6.9314    11.7676    -0.7728  H       1  <O>11       0.0618
  36 H12      -7.6551     9.8359    -2.0215  H       1  <O>11       0.0618
  37 H13      -7.0528     7.6002    -1.2849  H       1  <O>11       0.0624
@<TRIPOS>BOND
     1     1     2    2
     2     2     3   am
     3     3     4    1
     4     4     5    1
     5     5     6   ar
     6     6     7   ar
     7     7     8   ar
     8     8     9   ar
     9     9    10    1
    10    10    11    2
    11    10    12    1
    12     9    13   ar
    13     5    13   ar
    14     2    14    1
    15    14    15    2
    16    14    16    1
    17    16    17   ar
    18    17    18   ar
    19    18    19   ar
    20    19    20   ar
    21    20    21   ar
    22    21    22   ar
    23    22    23   ar
    24    23    24   ar
    25    16    24   ar
    26    19    24   ar
    27     3    25    1
    28     4    26    1
    29    18    27    1
    30     6    28    1
    31     7    29    1
    32     8    30    1
    33    12    31    1
    34    13    32    1
    35    17    33    1
    36    20    34    1
    37    21    35    1
    38    22    36    1
    39    23    37    1
