@<TRIPOS>MOLECULE
mol6_1_1
 47 50 0 0 0
SMALL
USER_CHARGES
****
VDW energy = -69.03
@<TRIPOS>ATOM
   1 N1        3.7120     4.1520     7.3415  N.pl3   1  <O>11      -0.3431
   2 C1        3.3329     4.3488     5.9653  C.ar    1  <O>11       0.1167
   3 C2        2.1864     5.0670     5.6766  C.ar    1  <O>11      -0.0143
   4 C3        1.8446     5.2530     4.3395  C.ar    1  <O>11      -0.0100
   5 C4        0.7410     5.9700     3.9760  C.ar    1  <O>11       0.0230
   6 C5       -0.4632     5.4231     3.8104  C.ar    1  <O>11       0.0303
   7 N2       -1.1934     6.5226     3.3741  N.ar    1  <O>11      -0.2839
   8 N3       -0.4726     7.6854     3.4293  N.ar    1  <O>11      -0.1779
   9 C6        0.7644     7.2957     3.7522  C.ar    1  <O>11       0.0751
  10 C7        1.9873     8.0764     3.8689  C.3     1  <O>11       0.0208
  11 C8        2.1444     8.5871     5.2616  C.3     1  <O>11      -0.0274
  12 C9        1.2565     9.8222     5.2330  C.3     1  <O>11       0.0153
  13 N4        1.3314    10.2920     3.8614  N.am    1  <O>11      -0.3006
  14 C10       0.9331    11.4942     3.3674  C.2     1  <O>11       0.2187
  15 O1        1.0651    11.7400     2.1778  O.2     1  <O>11      -0.2753
  16 C11       0.3357    12.5127     4.2776  C.3     1  <O>11       0.0358
  17 C12      -1.1459    12.3418     4.3444  C.3     1  <O>11      -0.0419
  18 C13      -1.6585    13.1441     3.1475  C.3     1  <O>11      -0.0523
  19 C14      -0.4823    13.9852     2.6532  C.3     1  <O>11      -0.0523
  20 C15       0.5718    13.8840     3.7465  C.3     1  <O>11      -0.0419
  21 C16       1.9176     9.2800     2.9918  C.3     1  <O>11       0.0230
  22 C17       2.6639     4.6834     3.3579  C.ar    1  <O>11      -0.0356
  23 C18       3.8024     3.9729     3.7374  C.ar    1  <O>11       0.0302
  24 N5        4.1374     3.8086     5.0266  N.ar    1  <O>11      -0.2407
  25 H1        4.5551     3.6243     7.5678  H       1  <O>11       0.1437
  26 H2        3.1373     4.5403     8.0894  H       1  <O>11       0.1437
  27 H3       -2.1488     6.4514     3.0553  H       1  <O>11       0.1882
  28 H4        2.8398     7.4564     3.5952  H       1  <O>11       0.0380
  29 H5        1.7923     7.8598     5.9944  H       1  <O>11       0.0287
  30 H6        3.1805     8.8453     5.4759  H       1  <O>11       0.0287
  31 H7        0.2312     9.5663     5.4975  H       1  <O>11       0.0465
  32 H8        1.6316    10.5806     5.9210  H       1  <O>11       0.0465
  33 H9        0.7728    12.4116     5.2721  H       1  <O>11       0.0394
  34 H10      -1.4217    11.2918     4.2538  H       1  <O>11       0.0272
  35 H11      -1.5423    12.7433     5.2779  H       1  <O>11       0.0272
  36 H12      -1.9983    12.4707     2.3599  H       1  <O>11       0.0265
  37 H13      -2.4819    13.7922     3.4521  H       1  <O>11       0.0265
  38 H14      -0.0972    13.5850     1.7153  H       1  <O>11       0.0265
  39 H15      -0.7867    15.0202     2.5098  H       1  <O>11       0.0265
  40 H16       1.5765    13.9847     3.3368  H       1  <O>11       0.0272
  41 H17       0.4156    14.6401     4.5168  H       1  <O>11       0.0272
  42 H18       1.2839     9.0953     2.1246  H       1  <O>11       0.0471
  43 H19       2.9108     9.5795     2.6598  H       1  <O>11       0.0471
  44 H20       1.5999     5.4547     6.4321  H       1  <O>11       0.0658
  45 H21      -0.7697     4.4497     3.9640  H       1  <O>11       0.0830
  46 H22       2.4268     4.7886     2.3590  H       1  <O>11       0.0639
  47 H23       4.4041     3.5620     3.0065  H       1  <O>11       0.0830
@<TRIPOS>BOND
     1     1     2    1
     2     2     3   ar
     3     3     4   ar
     4     4     5    1
     5     5     6   ar
     6     6     7   ar
     7     7     8   ar
     8     8     9   ar
     9     5     9   ar
    10     9    10    1
    11    10    11    1
    12    11    12    1
    13    12    13    1
    14    13    14   am
    15    14    15    2
    16    14    16    1
    17    16    17    1
    18    17    18    1
    19    18    19    1
    20    19    20    1
    21    16    20    1
    22    13    21    1
    23    10    21    1
    24     4    22   ar
    25    22    23   ar
    26    23    24   ar
    27     2    24   ar
    28     1    25    1
    29     1    26    1
    30     7    27    1
    31    10    28    1
    32    11    29    1
    33    11    30    1
    34    12    31    1
    35    12    32    1
    36    16    33    1
    37    17    34    1
    38    17    35    1
    39    18    36    1
    40    18    37    1
    41    19    38    1
    42    19    39    1
    43    20    40    1
    44    20    41    1
    45    21    42    1
    46    21    43    1
    47     3    44    1
    48     6    45    1
    49    22    46    1
    50    23    47    1
@<TRIPOS>MOLECULE
mol6_1_2
 47 50 0 0 0
SMALL
USER_CHARGES
****
VDW energy = -68.94
@<TRIPOS>ATOM
   1 N1        3.7120     4.1520     7.3415  N.pl3   1  <O>11      -0.3431
   2 C1        3.3329     4.3488     5.9653  C.ar    1  <O>11       0.1167
   3 C2        2.1864     5.0670     5.6766  C.ar    1  <O>11      -0.0143
   4 C3        1.8446     5.2530     4.3395  C.ar    1  <O>11      -0.0100
   5 C4        0.7410     5.9700     3.9760  C.ar    1  <O>11       0.0230
   6 C5        0.7647     7.2839     3.7528  C.ar    1  <O>11       0.0303
   7 N2       -0.5804     7.5327     3.5055  N.ar    1  <O>11      -0.2839
   8 N3       -1.3228     6.3839     3.4432  N.ar    1  <O>11      -0.1779
   9 C6       -0.4735     5.4182     3.8075  C.ar    1  <O>11       0.0751
  10 C7       -0.7111     3.9973     4.0153  C.3     1  <O>11       0.0208
  11 C8       -0.4971     3.2455     2.7449  C.3     1  <O>11      -0.0274
  12 C9       -1.8302     3.4534     2.0419  C.3     1  <O>11       0.0153
  13 N4       -2.7963     3.5626     3.1199  N.am    1  <O>11      -0.3006
  14 C10      -4.1517     3.4998     3.0363  C.2     1  <O>11       0.2187
  15 O1       -4.8319     3.6101     4.0454  O.2     1  <O>11      -0.2753
  16 C11      -4.8079     3.2957     1.7133  C.3     1  <O>11       0.0358
  17 C12      -5.0885     4.6114     1.0660  C.3     1  <O>11      -0.0419
  18 C13      -6.4419     5.0215     1.6483  C.3     1  <O>11      -0.0523
  19 C14      -7.0080     3.7840     2.3435  C.3     1  <O>11      -0.0523
  20 C15      -6.1282     2.6288     1.8873  C.3     1  <O>11      -0.0419
  21 C16      -2.1318     3.7620     4.4015  C.3     1  <O>11       0.0230
  22 C17       2.6639     4.6834     3.3579  C.ar    1  <O>11      -0.0356
  23 C18       3.8024     3.9729     3.7374  C.ar    1  <O>11       0.0302
  24 N5        4.1374     3.8086     5.0266  N.ar    1  <O>11      -0.2407
  25 H1        4.5551     3.6243     7.5678  H       1  <O>11       0.1437
  26 H2        3.1373     4.5403     8.0894  H       1  <O>11       0.1437
  27 H3       -0.9502     8.4649     3.3879  H       1  <O>11       0.1882
  28 H4       -0.0411     3.6282     4.7905  H       1  <O>11       0.0380
  29 H5        0.3278     3.6657     2.1677  H       1  <O>11       0.0287
  30 H6       -0.3062     2.1902     2.9346  H       1  <O>11       0.0287
  31 H7       -1.8136     4.3646     1.4451  H       1  <O>11       0.0465
  32 H8       -2.0629     2.6025     1.4008  H       1  <O>11       0.0465
  33 H9       -4.1600     2.6918     1.0761  H       1  <O>11       0.0394
  34 H10      -4.3206     5.3418     1.3187  H       1  <O>11       0.0272
  35 H11      -5.1490     4.5069    -0.0180  H       1  <O>11       0.0272
  36 H12      -6.3134     5.8322     2.3663  H       1  <O>11       0.0265
  37 H13      -7.1135     5.3447     0.8512  H       1  <O>11       0.0265
  38 H14      -6.9537     3.8988     3.4262  H       1  <O>11       0.0265
  39 H15      -8.0417     3.6184     2.0462  H       1  <O>11       0.0265
  40 H16      -6.0819     1.8453     2.6431  H       1  <O>11       0.0272
  41 H17      -6.4865     2.2069     0.9475  H       1  <O>11       0.0272
  42 H18      -2.5426     4.6253     4.9247  H       1  <O>11       0.0471
  43 H19      -2.2243     2.8773     5.0302  H       1  <O>11       0.0471
  44 H20       1.5999     5.4547     6.4321  H       1  <O>11       0.0658
  45 H21       1.5632     7.9376     3.7613  H       1  <O>11       0.0830
  46 H22       2.4268     4.7886     2.3590  H       1  <O>11       0.0639
  47 H23       4.4041     3.5620     3.0065  H       1  <O>11       0.0830
@<TRIPOS>BOND
     1     1     2    1
     2     2     3   ar
     3     3     4   ar
     4     4     5    1
     5     5     6   ar
     6     6     7   ar
     7     7     8   ar
     8     8     9   ar
     9     5     9   ar
    10     9    10    1
    11    10    11    1
    12    11    12    1
    13    12    13    1
    14    13    14   am
    15    14    15    2
    16    14    16    1
    17    16    17    1
    18    17    18    1
    19    18    19    1
    20    19    20    1
    21    16    20    1
    22    13    21    1
    23    10    21    1
    24     4    22   ar
    25    22    23   ar
    26    23    24   ar
    27     2    24   ar
    28     1    25    1
    29     1    26    1
    30     7    27    1
    31    10    28    1
    32    11    29    1
    33    11    30    1
    34    12    31    1
    35    12    32    1
    36    16    33    1
    37    17    34    1
    38    17    35    1
    39    18    36    1
    40    18    37    1
    41    19    38    1
    42    19    39    1
    43    20    40    1
    44    20    41    1
    45    21    42    1
    46    21    43    1
    47     3    44    1
    48     6    45    1
    49    22    46    1
    50    23    47    1
@<TRIPOS>MOLECULE
mol6_1_3
 47 50 0 0 0
SMALL
USER_CHARGES
****
VDW energy = -66.09
@<TRIPOS>ATOM
   1 N1        3.7120     4.1520     7.3415  N.pl3   1  <O>11      -0.3431
   2 C1        3.3329     4.3488     5.9653  C.ar    1  <O>11       0.1167
   3 C2        2.1864     5.0670     5.6766  C.ar    1  <O>11      -0.0143
   4 C3        1.8446     5.2530     4.3395  C.ar    1  <O>11      -0.0100
   5 C4        0.7410     5.9700     3.9760  C.ar    1  <O>11       0.0230
   6 C5       -0.4632     5.4231     3.8104  C.ar    1  <O>11       0.0303
   7 N2       -1.1934     6.5226     3.3741  N.ar    1  <O>11      -0.2839
   8 N3       -0.4726     7.6854     3.4293  N.ar    1  <O>11      -0.1779
   9 C6        0.7644     7.2957     3.7522  C.ar    1  <O>11       0.0751
  10 C7        1.9873     8.0764     3.8689  C.3     1  <O>11       0.0208
  11 C8        2.1444     8.5871     5.2616  C.3     1  <O>11      -0.0274
  12 C9        1.2565     9.8222     5.2330  C.3     1  <O>11       0.0153
  13 N4        1.3314    10.2920     3.8614  N.am    1  <O>11      -0.3006
  14 C10       0.9331    11.4942     3.3674  C.2     1  <O>11       0.2187
  15 O1        0.4431    12.3290     4.1129  O.2     1  <O>11      -0.2753
  16 C11       1.0940    11.7934     1.9158  C.3     1  <O>11       0.0358
  17 C12       2.4239    12.4218     1.6609  C.3     1  <O>11      -0.0419
  18 C13       2.1778    13.9094     1.9168  C.3     1  <O>11      -0.0523
  19 C14       0.6625    14.0921     1.9904  C.3     1  <O>11      -0.0523
  20 C15       0.0746    12.7860     1.4754  C.3     1  <O>11      -0.0419
  21 C16       1.9176     9.2800     2.9918  C.3     1  <O>11       0.0230
  22 C17       2.6639     4.6834     3.3579  C.ar    1  <O>11      -0.0356
  23 C18       3.8024     3.9729     3.7374  C.ar    1  <O>11       0.0302
  24 N5        4.1374     3.8086     5.0266  N.ar    1  <O>11      -0.2407
  25 H1        4.5551     3.6243     7.5678  H       1  <O>11       0.1437
  26 H2        3.1373     4.5403     8.0894  H       1  <O>11       0.1437
  27 H3       -2.1488     6.4514     3.0553  H       1  <O>11       0.1882
  28 H4        2.8398     7.4564     3.5952  H       1  <O>11       0.0380
  29 H5        1.7923     7.8598     5.9944  H       1  <O>11       0.0287
  30 H6        3.1805     8.8453     5.4759  H       1  <O>11       0.0287
  31 H7        0.2312     9.5663     5.4975  H       1  <O>11       0.0465
  32 H8        1.6316    10.5806     5.9210  H       1  <O>11       0.0465
  33 H9        0.9961    10.8706     1.3419  H       1  <O>11       0.0394
  34 H10       3.1773    12.0307     2.3437  H       1  <O>11       0.0272
  35 H11       2.7430    12.2537     0.6315  H       1  <O>11       0.0272
  36 H12       2.6406    14.2119     2.8568  H       1  <O>11       0.0265
  37 H13       2.5889    14.5060     1.1007  H       1  <O>11       0.0265
  38 H14       0.3511    14.2696     3.0199  H       1  <O>11       0.0265
  39 H15       0.3477    14.9260     1.3659  H       1  <O>11       0.0265
  40 H16      -0.8970    12.5854     1.9261  H       1  <O>11       0.0272
  41 H17      -0.0238    12.7984     0.3893  H       1  <O>11       0.0272
  42 H18       1.2839     9.0953     2.1246  H       1  <O>11       0.0471
  43 H19       2.9108     9.5795     2.6598  H       1  <O>11       0.0471
  44 H20       1.5999     5.4547     6.4321  H       1  <O>11       0.0658
  45 H21      -0.7697     4.4497     3.9640  H       1  <O>11       0.0830
  46 H22       2.4268     4.7886     2.3590  H       1  <O>11       0.0639
  47 H23       4.4041     3.5620     3.0065  H       1  <O>11       0.0830
@<TRIPOS>BOND
     1     1     2    1
     2     2     3   ar
     3     3     4   ar
     4     4     5    1
     5     5     6   ar
     6     6     7   ar
     7     7     8   ar
     8     8     9   ar
     9     5     9   ar
    10     9    10    1
    11    10    11    1
    12    11    12    1
    13    12    13    1
    14    13    14   am
    15    14    15    2
    16    14    16    1
    17    16    17    1
    18    17    18    1
    19    18    19    1
    20    19    20    1
    21    16    20    1
    22    13    21    1
    23    10    21    1
    24     4    22   ar
    25    22    23   ar
    26    23    24   ar
    27     2    24   ar
    28     1    25    1
    29     1    26    1
    30     7    27    1
    31    10    28    1
    32    11    29    1
    33    11    30    1
    34    12    31    1
    35    12    32    1
    36    16    33    1
    37    17    34    1
    38    17    35    1
    39    18    36    1
    40    18    37    1
    41    19    38    1
    42    19    39    1
    43    20    40    1
    44    20    41    1
    45    21    42    1
    46    21    43    1
    47     3    44    1
    48     6    45    1
    49    22    46    1
    50    23    47    1
@<TRIPOS>MOLECULE
mol6_1_4
 47 50 0 0 0
SMALL
USER_CHARGES
****
VDW energy = -65.91
@<TRIPOS>ATOM
   1 N1        3.7120     4.1520     7.3415  N.pl3   1  <O>11      -0.3431
   2 C1        3.3329     4.3488     5.9653  C.ar    1  <O>11       0.1167
   3 C2        2.1864     5.0670     5.6766  C.ar    1  <O>11      -0.0143
   4 C3        1.8446     5.2530     4.3395  C.ar    1  <O>11      -0.0100
   5 C4        0.7410     5.9700     3.9760  C.ar    1  <O>11       0.0230
   6 C5        0.7647     7.2839     3.7528  C.ar    1  <O>11       0.0303
   7 N2       -0.5804     7.5327     3.5055  N.ar    1  <O>11      -0.2839
   8 N3       -1.3228     6.3839     3.4432  N.ar    1  <O>11      -0.1779
   9 C6       -0.4735     5.4182     3.8075  C.ar    1  <O>11       0.0751
  10 C7       -0.7111     3.9973     4.0153  C.3     1  <O>11       0.0208
  11 C8       -0.4971     3.2455     2.7449  C.3     1  <O>11      -0.0274
  12 C9       -1.8302     3.4534     2.0419  C.3     1  <O>11       0.0153
  13 N4       -2.7963     3.5626     3.1199  N.am    1  <O>11      -0.3006
  14 C10      -4.1517     3.4998     3.0363  C.2     1  <O>11       0.2187
  15 O1       -4.6899     3.3329     1.9522  O.2     1  <O>11      -0.2753
  16 C11      -4.9812     3.6349     4.2678  C.3     1  <O>11       0.0358
  17 C12      -5.2165     2.2954     4.8832  C.3     1  <O>11      -0.0419
  18 C13      -6.4448     1.7656     4.1417  C.3     1  <O>11      -0.0523
  19 C14      -7.0329     2.9496     3.3752  C.3     1  <O>11      -0.0523
  20 C15      -6.3260     4.1783     3.9294  C.3     1  <O>11      -0.0419
  21 C16      -2.1318     3.7620     4.4015  C.3     1  <O>11       0.0230
  22 C17       2.6639     4.6834     3.3579  C.ar    1  <O>11      -0.0356
  23 C18       3.8024     3.9729     3.7374  C.ar    1  <O>11       0.0302
  24 N5        4.1374     3.8086     5.0266  N.ar    1  <O>11      -0.2407
  25 H1        4.5551     3.6243     7.5678  H       1  <O>11       0.1437
  26 H2        3.1373     4.5403     8.0894  H       1  <O>11       0.1437
  27 H3       -0.9502     8.4649     3.3879  H       1  <O>11       0.1882
  28 H4       -0.0411     3.6282     4.7905  H       1  <O>11       0.0380
  29 H5        0.3278     3.6657     2.1677  H       1  <O>11       0.0287
  30 H6       -0.3062     2.1902     2.9346  H       1  <O>11       0.0287
  31 H7       -1.8136     4.3646     1.4451  H       1  <O>11       0.0465
  32 H8       -2.0629     2.6025     1.4008  H       1  <O>11       0.0465
  33 H9       -4.4747     4.2924     4.9761  H       1  <O>11       0.0394
  34 H10      -4.3595     1.6402     4.7307  H       1  <O>11       0.0272
  35 H11      -5.4190     2.3877     5.9510  H       1  <O>11       0.0272
  36 H12      -6.1550     0.9743     3.4495  H       1  <O>11       0.0265
  37 H13      -7.1763     1.3773     4.8522  H       1  <O>11       0.0265
  38 H14      -6.8360     2.8464     2.3081  H       1  <O>11       0.0265
  39 H15      -8.1061     3.0175     3.5425  H       1  <O>11       0.0265
  40 H16      -6.2597     4.9671     3.1805  H       1  <O>11       0.0272
  41 H17      -6.8342     4.5600     4.8157  H       1  <O>11       0.0272
  42 H18      -2.5426     4.6253     4.9247  H       1  <O>11       0.0471
  43 H19      -2.2243     2.8773     5.0302  H       1  <O>11       0.0471
  44 H20       1.5999     5.4547     6.4321  H       1  <O>11       0.0658
  45 H21       1.5632     7.9376     3.7613  H       1  <O>11       0.0830
  46 H22       2.4268     4.7886     2.3590  H       1  <O>11       0.0639
  47 H23       4.4041     3.5620     3.0065  H       1  <O>11       0.0830
@<TRIPOS>BOND
     1     1     2    1
     2     2     3   ar
     3     3     4   ar
     4     4     5    1
     5     5     6   ar
     6     6     7   ar
     7     7     8   ar
     8     8     9   ar
     9     5     9   ar
    10     9    10    1
    11    10    11    1
    12    11    12    1
    13    12    13    1
    14    13    14   am
    15    14    15    2
    16    14    16    1
    17    16    17    1
    18    17    18    1
    19    18    19    1
    20    19    20    1
    21    16    20    1
    22    13    21    1
    23    10    21    1
    24     4    22   ar
    25    22    23   ar
    26    23    24   ar
    27     2    24   ar
    28     1    25    1
    29     1    26    1
    30     7    27    1
    31    10    28    1
    32    11    29    1
    33    11    30    1
    34    12    31    1
    35    12    32    1
    36    16    33    1
    37    17    34    1
    38    17    35    1
    39    18    36    1
    40    18    37    1
    41    19    38    1
    42    19    39    1
    43    20    40    1
    44    20    41    1
    45    21    42    1
    46    21    43    1
    47     3    44    1
    48     6    45    1
    49    22    46    1
    50    23    47    1
@<TRIPOS>MOLECULE
mol6_1_5
 47 50 0 0 0
SMALL
USER_CHARGES
****
VDW energy = -62.96
@<TRIPOS>ATOM
   1 N1        3.7120     4.1520     7.3415  N.pl3   1  <O>11      -0.3431
   2 C1        3.3329     4.3488     5.9653  C.ar    1  <O>11       0.1167
   3 C2        2.1864     5.0670     5.6766  C.ar    1  <O>11      -0.0143
   4 C3        1.8446     5.2530     4.3395  C.ar    1  <O>11      -0.0100
   5 C4        0.7410     5.9700     3.9760  C.ar    1  <O>11       0.0230
   6 C5        0.7987     7.0659     3.2194  C.ar    1  <O>11       0.0303
   7 N2       -0.5370     7.4508     3.2121  N.ar    1  <O>11      -0.2839
   8 N3       -1.3506     6.5305     3.8169  N.ar    1  <O>11      -0.1779
   9 C6       -0.5083     5.6375     4.3457  C.ar    1  <O>11       0.0751
  10 C7       -0.7826     4.4797     5.1840  C.3     1  <O>11       0.0208
  11 C8       -1.0061     3.2706     4.3396  C.3     1  <O>11      -0.0274
  12 C9       -2.4663     3.4406     3.9478  C.3     1  <O>11       0.0153
  13 N4       -3.0651     4.1383     5.0714  N.am    1  <O>11      -0.3006
  14 C10      -4.3867     4.3068     5.3415  C.2     1  <O>11       0.2187
  15 O1       -4.7328     4.9246     6.3373  O.2     1  <O>11      -0.2753
  16 C11      -5.4134     3.7373     4.4228  C.3     1  <O>11       0.0358
  17 C12      -5.7693     4.7292     3.3654  C.3     1  <O>11      -0.0419
  18 C13      -6.8589     5.5810     4.0181  C.3     1  <O>11      -0.0523
  19 C14      -7.2905     4.8391     5.2824  C.3     1  <O>11      -0.0523
  20 C15      -6.6726     3.4530     5.1658  C.3     1  <O>11      -0.0419
  21 C16      -2.0427     4.6860     5.9538  C.3     1  <O>11       0.0230
  22 C17       2.6639     4.6834     3.3579  C.ar    1  <O>11      -0.0356
  23 C18       3.8024     3.9729     3.7374  C.ar    1  <O>11       0.0302
  24 N5        4.1374     3.8086     5.0266  N.ar    1  <O>11      -0.2407
  25 H1        4.5551     3.6243     7.5678  H       1  <O>11       0.1437
  26 H2        3.1373     4.5403     8.0894  H       1  <O>11       0.1437
  27 H3       -0.8528     8.3174     2.8014  H       1  <O>11       0.1882
  28 H4        0.0540     4.3179     5.8622  H       1  <O>11       0.0380
  29 H5       -0.3556     3.2708     3.4638  H       1  <O>11       0.0287
  30 H6       -0.8493     2.3545     4.9074  H       1  <O>11       0.0287
  31 H7       -2.5548     4.0302     3.0362  H       1  <O>11       0.0465
  32 H8       -2.9399     2.4694     3.8008  H       1  <O>11       0.0465
  33 H9       -5.0273     2.8234     3.9689  H       1  <O>11       0.0394
  34 H10      -4.9078     5.3403     3.0982  H       1  <O>11       0.0272
  35 H11      -6.1509     4.2285     2.4746  H       1  <O>11       0.0272
  36 H12      -6.4654     6.5654     4.2738  H       1  <O>11       0.0265
  37 H13      -7.7069     5.6933     3.3405  H       1  <O>11       0.0265
  38 H14      -6.9145     5.3497     6.1691  H       1  <O>11       0.0265
  39 H15      -8.3754     4.7714     5.3338  H       1  <O>11       0.0265
  40 H16      -6.4679     3.0280     6.1480  H       1  <O>11       0.0272
  41 H17      -7.3203     2.7779     4.6051  H       1  <O>11       0.0272
  42 H18      -2.2162     5.7452     6.1428  H       1  <O>11       0.0471
  43 H19      -2.0152     4.1470     6.8999  H       1  <O>11       0.0471
  44 H20       1.5999     5.4547     6.4321  H       1  <O>11       0.0658
  45 H21       1.6124     7.5077     2.7638  H       1  <O>11       0.0830
  46 H22       2.4268     4.7886     2.3590  H       1  <O>11       0.0639
  47 H23       4.4041     3.5620     3.0065  H       1  <O>11       0.0830
@<TRIPOS>BOND
     1     1     2    1
     2     2     3   ar
     3     3     4   ar
     4     4     5    1
     5     5     6   ar
     6     6     7   ar
     7     7     8   ar
     8     8     9   ar
     9     5     9   ar
    10     9    10    1
    11    10    11    1
    12    11    12    1
    13    12    13    1
    14    13    14   am
    15    14    15    2
    16    14    16    1
    17    16    17    1
    18    17    18    1
    19    18    19    1
    20    19    20    1
    21    16    20    1
    22    13    21    1
    23    10    21    1
    24     4    22   ar
    25    22    23   ar
    26    23    24   ar
    27     2    24   ar
    28     1    25    1
    29     1    26    1
    30     7    27    1
    31    10    28    1
    32    11    29    1
    33    11    30    1
    34    12    31    1
    35    12    32    1
    36    16    33    1
    37    17    34    1
    38    17    35    1
    39    18    36    1
    40    18    37    1
    41    19    38    1
    42    19    39    1
    43    20    40    1
    44    20    41    1
    45    21    42    1
    46    21    43    1
    47     3    44    1
    48     6    45    1
    49    22    46    1
    50    23    47    1
@<TRIPOS>MOLECULE
mol6_1_6
 47 50 0 0 0
SMALL
USER_CHARGES
****
VDW energy = -60.36
@<TRIPOS>ATOM
   1 N1        3.7120     4.1520     7.3415  N.pl3   1  <O>11      -0.3431
   2 C1        3.3329     4.3488     5.9653  C.ar    1  <O>11       0.1167
   3 C2        2.1864     5.0670     5.6766  C.ar    1  <O>11      -0.0143
   4 C3        1.8446     5.2530     4.3395  C.ar    1  <O>11      -0.0100
   5 C4        0.7410     5.9700     3.9760  C.ar    1  <O>11       0.0230
   6 C5       -0.2647     5.4544     3.2693  C.ar    1  <O>11       0.0303
   7 N2       -1.0679     6.5760     3.0983  N.ar    1  <O>11      -0.2839
   8 N3       -0.6144     7.6576     3.8048  N.ar    1  <O>11      -0.1779
   9 C6        0.5638     7.2635     4.2978  C.ar    1  <O>11       0.0751
  10 C7        1.5542     8.0123     5.0573  C.3     1  <O>11       0.0208
  11 C8        1.0942     9.4159     5.2653  C.3     1  <O>11      -0.0274
  12 C9        1.4903    10.0628     3.9465  C.3     1  <O>11       0.0153
  13 N4        2.6701     9.3308     3.5226  N.am    1  <O>11      -0.3006
  14 C10       3.5580     9.6686     2.5502  C.2     1  <O>11       0.2187
  15 O1        4.5090     8.9396     2.3112  O.2     1  <O>11      -0.2753
  16 C11       3.3713    10.9289     1.7760  C.3     1  <O>11       0.0358
  17 C12       2.5376    10.6735     0.5642  C.3     1  <O>11      -0.0419
  18 C13       3.5508    10.2077    -0.4824  C.3     1  <O>11      -0.0523
  19 C14       4.9349    10.5249     0.0824  C.3     1  <O>11      -0.0523
  20 C15       4.6827    11.4307     1.2793  C.3     1  <O>11      -0.0419
  21 C16       2.8308     8.1039     4.2925  C.3     1  <O>11       0.0230
  22 C17       2.6639     4.6834     3.3579  C.ar    1  <O>11      -0.0356
  23 C18       3.8024     3.9729     3.7374  C.ar    1  <O>11       0.0302
  24 N5        4.1374     3.8086     5.0266  N.ar    1  <O>11      -0.2407
  25 H1        4.5551     3.6243     7.5678  H       1  <O>11       0.1437
  26 H2        3.1373     4.5403     8.0894  H       1  <O>11       0.1437
  27 H3       -1.8908     6.5737     2.5133  H       1  <O>11       0.1882
  28 H4        1.7206     7.5230     6.0159  H       1  <O>11       0.0380
  29 H5        0.0159     9.4620     5.4240  H       1  <O>11       0.0287
  30 H6        1.6048     9.8811     6.1073  H       1  <O>11       0.0287
  31 H7        0.6910     9.9641     3.2131  H       1  <O>11       0.0465
  32 H8        1.7233    11.1183     4.0914  H       1  <O>11       0.0465
  33 H9        2.8955    11.6778     2.4109  H       1  <O>11       0.0394
  34 H10       1.7961     9.8990     0.7573  H       1  <O>11       0.0272
  35 H11       2.0355    11.5852     0.2380  H       1  <O>11       0.0272
  36 H12       3.4498     9.1355    -0.6539  H       1  <O>11       0.0265
  37 H13       3.3967    10.7422    -1.4211  H       1  <O>11       0.0265
  38 H14       5.4353     9.6091     0.3973  H       1  <O>11       0.0265
  39 H15       5.5433    11.0348    -0.6620  H       1  <O>11       0.0265
  40 H16       5.4630    11.3177     2.0314  H       1  <O>11       0.0272
  41 H17       4.6183    12.4765     0.9763  H       1  <O>11       0.0272
  42 H18       2.9552     7.2435     3.6353  H       1  <O>11       0.0471
  43 H19       3.6848     8.1749     4.9649  H       1  <O>11       0.0471
  44 H20       1.5999     5.4547     6.4321  H       1  <O>11       0.0658
  45 H21      -0.4079     4.4871     2.9393  H       1  <O>11       0.0830
  46 H22       2.4268     4.7886     2.3590  H       1  <O>11       0.0639
  47 H23       4.4041     3.5620     3.0065  H       1  <O>11       0.0830
@<TRIPOS>BOND
     1     1     2    1
     2     2     3   ar
     3     3     4   ar
     4     4     5    1
     5     5     6   ar
     6     6     7   ar
     7     7     8   ar
     8     8     9   ar
     9     5     9   ar
    10     9    10    1
    11    10    11    1
    12    11    12    1
    13    12    13    1
    14    13    14   am
    15    14    15    2
    16    14    16    1
    17    16    17    1
    18    17    18    1
    19    18    19    1
    20    19    20    1
    21    16    20    1
    22    13    21    1
    23    10    21    1
    24     4    22   ar
    25    22    23   ar
    26    23    24   ar
    27     2    24   ar
    28     1    25    1
    29     1    26    1
    30     7    27    1
    31    10    28    1
    32    11    29    1
    33    11    30    1
    34    12    31    1
    35    12    32    1
    36    16    33    1
    37    17    34    1
    38    17    35    1
    39    18    36    1
    40    18    37    1
    41    19    38    1
    42    19    39    1
    43    20    40    1
    44    20    41    1
    45    21    42    1
    46    21    43    1
    47     3    44    1
    48     6    45    1
    49    22    46    1
    50    23    47    1
@<TRIPOS>MOLECULE
mol6_1_7
 47 50 0 0 0
SMALL
USER_CHARGES
****
VDW energy = -59.89
@<TRIPOS>ATOM
   1 N1        3.7120     4.1520     7.3415  N.pl3   1  <O>11      -0.3431
   2 C1        3.3329     4.3488     5.9653  C.ar    1  <O>11       0.1167
   3 C2        2.1864     5.0670     5.6766  C.ar    1  <O>11      -0.0143
   4 C3        1.8446     5.2530     4.3395  C.ar    1  <O>11      -0.0100
   5 C4        0.7410     5.9700     3.9760  C.ar    1  <O>11       0.0230
   6 C5        0.7987     7.0659     3.2194  C.ar    1  <O>11       0.0303
   7 N2       -0.5370     7.4508     3.2121  N.ar    1  <O>11      -0.2839
   8 N3       -1.3506     6.5305     3.8169  N.ar    1  <O>11      -0.1779
   9 C6       -0.5083     5.6375     4.3457  C.ar    1  <O>11       0.0751
  10 C7       -0.7826     4.4797     5.1840  C.3     1  <O>11       0.0208
  11 C8       -1.0061     3.2706     4.3396  C.3     1  <O>11      -0.0274
  12 C9       -2.4663     3.4406     3.9478  C.3     1  <O>11       0.0153
  13 N4       -3.0651     4.1383     5.0714  N.am    1  <O>11      -0.3006
  14 C10      -4.3867     4.3068     5.3415  C.2     1  <O>11       0.2187
  15 O1       -5.2285     3.8399     4.5891  O.2     1  <O>11      -0.2753
  16 C11      -4.8084     5.0619     6.5559  C.3     1  <O>11       0.0358
  17 C12      -4.9555     4.1349     7.7169  C.3     1  <O>11      -0.0419
  18 C13      -6.3830     3.6038     7.5793  C.3     1  <O>11      -0.0523
  19 C14      -7.0772     4.4884     6.5445  C.3     1  <O>11      -0.0523
  20 C15      -6.1481     5.6772     6.3439  C.3     1  <O>11      -0.0419
  21 C16      -2.0427     4.6860     5.9538  C.3     1  <O>11       0.0230
  22 C17       2.6639     4.6834     3.3579  C.ar    1  <O>11      -0.0356
  23 C18       3.8024     3.9729     3.7374  C.ar    1  <O>11       0.0302
  24 N5        4.1374     3.8086     5.0266  N.ar    1  <O>11      -0.2407
  25 H1        4.5551     3.6243     7.5678  H       1  <O>11       0.1437
  26 H2        3.1373     4.5403     8.0894  H       1  <O>11       0.1437
  27 H3       -0.8528     8.3174     2.8014  H       1  <O>11       0.1882
  28 H4        0.0540     4.3179     5.8622  H       1  <O>11       0.0380
  29 H5       -0.3556     3.2708     3.4638  H       1  <O>11       0.0287
  30 H6       -0.8493     2.3545     4.9074  H       1  <O>11       0.0287
  31 H7       -2.5548     4.0302     3.0362  H       1  <O>11       0.0465
  32 H8       -2.9399     2.4694     3.8008  H       1  <O>11       0.0465
  33 H9       -4.0691     5.8325     6.7791  H       1  <O>11       0.0394
  34 H10      -4.2325     3.3219     7.6606  H       1  <O>11       0.0272
  35 H11      -4.8303     4.6690     8.6597  H       1  <O>11       0.0272
  36 H12      -6.3687     2.5672     7.2409  H       1  <O>11       0.0265
  37 H13      -6.9031     3.6666     8.5365  H       1  <O>11       0.0265
  38 H14      -7.2082     3.9459     5.6081  H       1  <O>11       0.0265
  39 H15      -8.0466     4.8183     6.9130  H       1  <O>11       0.0265
  40 H16      -6.2431     6.0876     5.3389  H       1  <O>11       0.0272
  41 H17      -6.3453     6.4605     7.0768  H       1  <O>11       0.0272
  42 H18      -2.2162     5.7452     6.1428  H       1  <O>11       0.0471
  43 H19      -2.0152     4.1470     6.8999  H       1  <O>11       0.0471
  44 H20       1.5999     5.4547     6.4321  H       1  <O>11       0.0658
  45 H21       1.6124     7.5077     2.7638  H       1  <O>11       0.0830
  46 H22       2.4268     4.7886     2.3590  H       1  <O>11       0.0639
  47 H23       4.4041     3.5620     3.0065  H       1  <O>11       0.0830
@<TRIPOS>BOND
     1     1     2    1
     2     2     3   ar
     3     3     4   ar
     4     4     5    1
     5     5     6   ar
     6     6     7   ar
     7     7     8   ar
     8     8     9   ar
     9     5     9   ar
    10     9    10    1
    11    10    11    1
    12    11    12    1
    13    12    13    1
    14    13    14   am
    15    14    15    2
    16    14    16    1
    17    16    17    1
    18    17    18    1
    19    18    19    1
    20    19    20    1
    21    16    20    1
    22    13    21    1
    23    10    21    1
    24     4    22   ar
    25    22    23   ar
    26    23    24   ar
    27     2    24   ar
    28     1    25    1
    29     1    26    1
    30     7    27    1
    31    10    28    1
    32    11    29    1
    33    11    30    1
    34    12    31    1
    35    12    32    1
    36    16    33    1
    37    17    34    1
    38    17    35    1
    39    18    36    1
    40    18    37    1
    41    19    38    1
    42    19    39    1
    43    20    40    1
    44    20    41    1
    45    21    42    1
    46    21    43    1
    47     3    44    1
    48     6    45    1
    49    22    46    1
    50    23    47    1
@<TRIPOS>MOLECULE
mol6_1_8
 47 50 0 0 0
SMALL
USER_CHARGES
****
VDW energy = -58.53
@<TRIPOS>ATOM
   1 N1        3.7120     4.1520     7.3415  N.pl3   1  <O>11      -0.3431
   2 C1        3.3329     4.3488     5.9653  C.ar    1  <O>11       0.1167
   3 C2        2.1864     5.0670     5.6766  C.ar    1  <O>11      -0.0143
   4 C3        1.8446     5.2530     4.3395  C.ar    1  <O>11      -0.0100
   5 C4        0.7410     5.9700     3.9760  C.ar    1  <O>11       0.0230
   6 C5       -0.4632     5.4231     3.8104  C.ar    1  <O>11       0.0303
   7 N2       -1.1934     6.5226     3.3741  N.ar    1  <O>11      -0.2839
   8 N3       -0.4726     7.6854     3.4293  N.ar    1  <O>11      -0.1779
   9 C6        0.7644     7.2957     3.7522  C.ar    1  <O>11       0.0751
  10 C7        1.9873     8.0764     3.8689  C.3     1  <O>11       0.0208
  11 C8        2.1444     8.5871     5.2616  C.3     1  <O>11      -0.0274
  12 C9        1.2565     9.8222     5.2330  C.3     1  <O>11       0.0153
  13 N4        1.3314    10.2920     3.8614  N.am    1  <O>11      -0.3006
  14 C10       0.9331    11.4942     3.3674  C.2     1  <O>11       0.2187
  15 O1        1.0651    11.7400     2.1778  O.2     1  <O>11      -0.2753
  16 C11       0.3357    12.5127     4.2776  C.3     1  <O>11       0.0358
  17 C12      -0.0228    13.7437     3.5129  C.3     1  <O>11      -0.0419
  18 C13       1.2751    14.5525     3.4971  C.3     1  <O>11      -0.0523
  19 C14       2.2067    13.8977     4.5162  C.3     1  <O>11      -0.0523
  20 C15       1.3285    12.9360     5.3039  C.3     1  <O>11      -0.0419
  21 C16       1.9176     9.2800     2.9918  C.3     1  <O>11       0.0230
  22 C17       2.6639     4.6834     3.3579  C.ar    1  <O>11      -0.0356
  23 C18       3.8024     3.9729     3.7374  C.ar    1  <O>11       0.0302
  24 N5        4.1374     3.8086     5.0266  N.ar    1  <O>11      -0.2407
  25 H1        4.5551     3.6243     7.5678  H       1  <O>11       0.1437
  26 H2        3.1373     4.5403     8.0894  H       1  <O>11       0.1437
  27 H3       -2.1488     6.4514     3.0553  H       1  <O>11       0.1882
  28 H4        2.8398     7.4564     3.5952  H       1  <O>11       0.0380
  29 H5        1.7923     7.8598     5.9944  H       1  <O>11       0.0287
  30 H6        3.1805     8.8453     5.4759  H       1  <O>11       0.0287
  31 H7        0.2312     9.5663     5.4975  H       1  <O>11       0.0465
  32 H8        1.6316    10.5806     5.9210  H       1  <O>11       0.0465
  33 H9       -0.5504    12.0949     4.7579  H       1  <O>11       0.0394
  34 H10      -0.3371    13.4956     2.4997  H       1  <O>11       0.0272
  35 H11      -0.8174    14.2966     4.0156  H       1  <O>11       0.0272
  36 H12       1.7239    14.5258     2.5036  H       1  <O>11       0.0265
  37 H13       1.0781    15.5880     3.7794  H       1  <O>11       0.0265
  38 H14       3.0040    13.3553     4.0079  H       1  <O>11       0.0265
  39 H15       2.6394    14.6480     5.1752  H       1  <O>11       0.0265
  40 H16       1.9045    12.0883     5.6741  H       1  <O>11       0.0272
  41 H17       0.8435    13.4397     6.1410  H       1  <O>11       0.0272
  42 H18       1.2839     9.0953     2.1246  H       1  <O>11       0.0471
  43 H19       2.9108     9.5795     2.6598  H       1  <O>11       0.0471
  44 H20       1.5999     5.4547     6.4321  H       1  <O>11       0.0658
  45 H21      -0.7697     4.4497     3.9640  H       1  <O>11       0.0830
  46 H22       2.4268     4.7886     2.3590  H       1  <O>11       0.0639
  47 H23       4.4041     3.5620     3.0065  H       1  <O>11       0.0830
@<TRIPOS>BOND
     1     1     2    1
     2     2     3   ar
     3     3     4   ar
     4     4     5    1
     5     5     6   ar
     6     6     7   ar
     7     7     8   ar
     8     8     9   ar
     9     5     9   ar
    10     9    10    1
    11    10    11    1
    12    11    12    1
    13    12    13    1
    14    13    14   am
    15    14    15    2
    16    14    16    1
    17    16    17    1
    18    17    18    1
    19    18    19    1
    20    19    20    1
    21    16    20    1
    22    13    21    1
    23    10    21    1
    24     4    22   ar
    25    22    23   ar
    26    23    24   ar
    27     2    24   ar
    28     1    25    1
    29     1    26    1
    30     7    27    1
    31    10    28    1
    32    11    29    1
    33    11    30    1
    34    12    31    1
    35    12    32    1
    36    16    33    1
    37    17    34    1
    38    17    35    1
    39    18    36    1
    40    18    37    1
    41    19    38    1
    42    19    39    1
    43    20    40    1
    44    20    41    1
    45    21    42    1
    46    21    43    1
    47     3    44    1
    48     6    45    1
    49    22    46    1
    50    23    47    1
@<TRIPOS>MOLECULE
mol6_1_9
 47 50 0 0 0
SMALL
USER_CHARGES
****
VDW energy = -58.43
@<TRIPOS>ATOM
   1 N1        3.7120     4.1520     7.3415  N.pl3   1  <O>11      -0.3431
   2 C1        3.3329     4.3488     5.9653  C.ar    1  <O>11       0.1167
   3 C2        2.1864     5.0670     5.6766  C.ar    1  <O>11      -0.0143
   4 C3        1.8446     5.2530     4.3395  C.ar    1  <O>11      -0.0100
   5 C4        0.7410     5.9700     3.9760  C.ar    1  <O>11       0.0230
   6 C5        0.7647     7.2839     3.7528  C.ar    1  <O>11       0.0303
   7 N2       -0.5804     7.5327     3.5055  N.ar    1  <O>11      -0.2839
   8 N3       -1.3228     6.3839     3.4432  N.ar    1  <O>11      -0.1779
   9 C6       -0.4735     5.4182     3.8075  C.ar    1  <O>11       0.0751
  10 C7       -0.7111     3.9973     4.0153  C.3     1  <O>11       0.0208
  11 C8       -0.4971     3.2455     2.7449  C.3     1  <O>11      -0.0274
  12 C9       -1.8302     3.4534     2.0419  C.3     1  <O>11       0.0153
  13 N4       -2.7963     3.5626     3.1199  N.am    1  <O>11      -0.3006
  14 C10      -4.1517     3.4998     3.0363  C.2     1  <O>11       0.2187
  15 O1       -4.8319     3.6101     4.0454  O.2     1  <O>11      -0.2753
  16 C11      -4.8079     3.2957     1.7133  C.3     1  <O>11       0.0358
  17 C12      -6.2920     3.2618     1.8710  C.3     1  <O>11      -0.0419
  18 C13      -6.5874     1.8017     2.2170  C.3     1  <O>11      -0.0523
  19 C14      -5.3072     1.0195     1.9265  C.3     1  <O>11      -0.0523
  20 C15      -4.4210     1.9760     1.1413  C.3     1  <O>11      -0.0419
  21 C16      -2.1318     3.7620     4.4015  C.3     1  <O>11       0.0230
  22 C17       2.6639     4.6834     3.3579  C.ar    1  <O>11      -0.0356
  23 C18       3.8024     3.9729     3.7374  C.ar    1  <O>11       0.0302
  24 N5        4.1374     3.8086     5.0266  N.ar    1  <O>11      -0.2407
  25 H1        4.5551     3.6243     7.5678  H       1  <O>11       0.1437
  26 H2        3.1373     4.5403     8.0894  H       1  <O>11       0.1437
  27 H3       -0.9502     8.4649     3.3879  H       1  <O>11       0.1882
  28 H4       -0.0411     3.6282     4.7905  H       1  <O>11       0.0380
  29 H5        0.3278     3.6657     2.1677  H       1  <O>11       0.0287
  30 H6       -0.3062     2.1902     2.9346  H       1  <O>11       0.0287
  31 H7       -1.8136     4.3646     1.4451  H       1  <O>11       0.0465
  32 H8       -2.0629     2.6025     1.4008  H       1  <O>11       0.0465
  33 H9       -4.5182     4.1010     1.0365  H       1  <O>11       0.0394
  34 H10      -6.6138     3.9232     2.6747  H       1  <O>11       0.0272
  35 H11      -6.7887     3.5479     0.9430  H       1  <O>11       0.0272
  36 H12      -6.8546     1.7104     3.2703  H       1  <O>11       0.0265
  37 H13      -7.4054     1.4257     1.6004  H       1  <O>11       0.0265
  38 H14      -4.8209     0.7280     2.8575  H       1  <O>11       0.0265
  39 H15      -5.5278     0.1314     1.3373  H       1  <O>11       0.0265
  40 H16      -3.3654     1.7637     1.3085  H       1  <O>11       0.0272
  41 H17      -4.6371     1.9278     0.0734  H       1  <O>11       0.0272
  42 H18      -2.5426     4.6253     4.9247  H       1  <O>11       0.0471
  43 H19      -2.2243     2.8773     5.0302  H       1  <O>11       0.0471
  44 H20       1.5999     5.4547     6.4321  H       1  <O>11       0.0658
  45 H21       1.5632     7.9376     3.7613  H       1  <O>11       0.0830
  46 H22       2.4268     4.7886     2.3590  H       1  <O>11       0.0639
  47 H23       4.4041     3.5620     3.0065  H       1  <O>11       0.0830
@<TRIPOS>BOND
     1     1     2    1
     2     2     3   ar
     3     3     4   ar
     4     4     5    1
     5     5     6   ar
     6     6     7   ar
     7     7     8   ar
     8     8     9   ar
     9     5     9   ar
    10     9    10    1
    11    10    11    1
    12    11    12    1
    13    12    13    1
    14    13    14   am
    15    14    15    2
    16    14    16    1
    17    16    17    1
    18    17    18    1
    19    18    19    1
    20    19    20    1
    21    16    20    1
    22    13    21    1
    23    10    21    1
    24     4    22   ar
    25    22    23   ar
    26    23    24   ar
    27     2    24   ar
    28     1    25    1
    29     1    26    1
    30     7    27    1
    31    10    28    1
    32    11    29    1
    33    11    30    1
    34    12    31    1
    35    12    32    1
    36    16    33    1
    37    17    34    1
    38    17    35    1
    39    18    36    1
    40    18    37    1
    41    19    38    1
    42    19    39    1
    43    20    40    1
    44    20    41    1
    45    21    42    1
    46    21    43    1
    47     3    44    1
    48     6    45    1
    49    22    46    1
    50    23    47    1
@<TRIPOS>MOLECULE
mol6_1_10
 47 50 0 0 0
SMALL
USER_CHARGES
****
VDW energy = -58.04
@<TRIPOS>ATOM
   1 N1        3.7120     4.1520     7.3415  N.pl3   1  <O>11      -0.3431
   2 C1        3.3329     4.3488     5.9653  C.ar    1  <O>11       0.1167
   3 C2        2.1864     5.0670     5.6766  C.ar    1  <O>11      -0.0143
   4 C3        1.8446     5.2530     4.3395  C.ar    1  <O>11      -0.0100
   5 C4        0.7410     5.9700     3.9760  C.ar    1  <O>11       0.0230
   6 C5       -0.2647     5.4544     3.2693  C.ar    1  <O>11       0.0303
   7 N2       -1.0679     6.5760     3.0983  N.ar    1  <O>11      -0.2839
   8 N3       -0.6144     7.6576     3.8048  N.ar    1  <O>11      -0.1779
   9 C6        0.5638     7.2635     4.2978  C.ar    1  <O>11       0.0751
  10 C7        1.5542     8.0123     5.0573  C.3     1  <O>11       0.0208
  11 C8        1.0942     9.4159     5.2653  C.3     1  <O>11      -0.0274
  12 C9        1.4903    10.0628     3.9465  C.3     1  <O>11       0.0153
  13 N4        2.6701     9.3308     3.5226  N.am    1  <O>11      -0.3006
  14 C10       3.5580     9.6686     2.5502  C.2     1  <O>11       0.2187
  15 O1        3.4052    10.7012     1.9152  O.2     1  <O>11      -0.2753
  16 C11       4.7180     8.7785     2.2586  C.3     1  <O>11       0.0358
  17 C12       5.8897     9.1624     3.1002  C.3     1  <O>11      -0.0419
  18 C13       6.5677    10.2717     2.2947  C.3     1  <O>11      -0.0523
  19 C14       5.9398    10.2422     0.9019  C.3     1  <O>11      -0.0523
  20 C15       5.1525     8.9409     0.8433  C.3     1  <O>11      -0.0419
  21 C16       2.8308     8.1039     4.2925  C.3     1  <O>11       0.0230
  22 C17       2.6639     4.6834     3.3579  C.ar    1  <O>11      -0.0356
  23 C18       3.8024     3.9729     3.7374  C.ar    1  <O>11       0.0302
  24 N5        4.1374     3.8086     5.0266  N.ar    1  <O>11      -0.2407
  25 H1        4.5551     3.6243     7.5678  H       1  <O>11       0.1437
  26 H2        3.1373     4.5403     8.0894  H       1  <O>11       0.1437
  27 H3       -1.8908     6.5737     2.5133  H       1  <O>11       0.1882
  28 H4        1.7206     7.5230     6.0159  H       1  <O>11       0.0380
  29 H5        0.0159     9.4620     5.4240  H       1  <O>11       0.0287
  30 H6        1.6048     9.8811     6.1073  H       1  <O>11       0.0287
  31 H7        0.6910     9.9641     3.2131  H       1  <O>11       0.0465
  32 H8        1.7233    11.1183     4.0914  H       1  <O>11       0.0465
  33 H9        4.4376     7.7419     2.4518  H       1  <O>11       0.0394
  34 H10       5.5667     9.5320     4.0729  H       1  <O>11       0.0272
  35 H11       6.5641     8.3163     3.2377  H       1  <O>11       0.0272
  36 H12       6.3947    11.2397     2.7663  H       1  <O>11       0.0265
  37 H13       7.6410    10.0869     2.2268  H       1  <O>11       0.0265
  38 H14       5.2748    11.0954     0.7672  H       1  <O>11       0.0265
  39 H15       6.7116    10.2574     0.1347  H       1  <O>11       0.0265
  40 H16       4.2985     9.0259     0.1719  H       1  <O>11       0.0272
  41 H17       5.7845     8.1110     0.5247  H       1  <O>11       0.0272
  42 H18       2.9552     7.2435     3.6353  H       1  <O>11       0.0471
  43 H19       3.6848     8.1749     4.9649  H       1  <O>11       0.0471
  44 H20       1.5999     5.4547     6.4321  H       1  <O>11       0.0658
  45 H21      -0.4079     4.4871     2.9393  H       1  <O>11       0.0830
  46 H22       2.4268     4.7886     2.3590  H       1  <O>11       0.0639
  47 H23       4.4041     3.5620     3.0065  H       1  <O>11       0.0830
@<TRIPOS>BOND
     1     1     2    1
     2     2     3   ar
     3     3     4   ar
     4     4     5    1
     5     5     6   ar
     6     6     7   ar
     7     7     8   ar
     8     8     9   ar
     9     5     9   ar
    10     9    10    1
    11    10    11    1
    12    11    12    1
    13    12    13    1
    14    13    14   am
    15    14    15    2
    16    14    16    1
    17    16    17    1
    18    17    18    1
    19    18    19    1
    20    19    20    1
    21    16    20    1
    22    13    21    1
    23    10    21    1
    24     4    22   ar
    25    22    23   ar
    26    23    24   ar
    27     2    24   ar
    28     1    25    1
    29     1    26    1
    30     7    27    1
    31    10    28    1
    32    11    29    1
    33    11    30    1
    34    12    31    1
    35    12    32    1
    36    16    33    1
    37    17    34    1
    38    17    35    1
    39    18    36    1
    40    18    37    1
    41    19    38    1
    42    19    39    1
    43    20    40    1
    44    20    41    1
    45    21    42    1
    46    21    43    1
    47     3    44    1
    48     6    45    1
    49    22    46    1
    50    23    47    1
@<TRIPOS>MOLECULE
mol6_1_11
 47 50 0 0 0
SMALL
USER_CHARGES
****
VDW energy = -57.36
@<TRIPOS>ATOM
   1 N1        3.7120     4.1520     7.3415  N.pl3   1  <O>11      -0.3431
   2 C1        3.3329     4.3488     5.9653  C.ar    1  <O>11       0.1167
   3 C2        2.1864     5.0670     5.6766  C.ar    1  <O>11      -0.0143
   4 C3        1.8446     5.2530     4.3395  C.ar    1  <O>11      -0.0100
   5 C4        0.7410     5.9700     3.9760  C.ar    1  <O>11       0.0230
   6 C5       -0.2647     5.4544     3.2693  C.ar    1  <O>11       0.0303
   7 N2       -1.0679     6.5760     3.0983  N.ar    1  <O>11      -0.2839
   8 N3       -0.6144     7.6576     3.8048  N.ar    1  <O>11      -0.1779
   9 C6        0.5638     7.2635     4.2978  C.ar    1  <O>11       0.0751
  10 C7        1.5542     8.0123     5.0573  C.3     1  <O>11       0.0208
  11 C8        1.2815     7.8965     6.5192  C.3     1  <O>11      -0.0274
  12 C9        0.2069     8.9561     6.7115  C.3     1  <O>11       0.0153
  13 N4        0.5097     9.9661     5.7135  N.am    1  <O>11      -0.3006
  14 C10       0.0169    11.2302     5.6282  C.2     1  <O>11       0.2187
  15 O1        0.3742    11.9652     4.7199  O.2     1  <O>11      -0.2753
  16 C11      -0.9590    11.7194     6.6436  C.3     1  <O>11       0.0358
  17 C12      -2.3549    11.4239     6.2045  C.3     1  <O>11      -0.0419
  18 C13      -2.7164    12.6155     5.3165  C.3     1  <O>11      -0.0523
  19 C14      -1.6391    13.6736     5.5506  C.3     1  <O>11      -0.0523
  20 C15      -0.8702    13.2003     6.7759  C.3     1  <O>11      -0.0419
  21 C16       1.4641     9.4648     4.7329  C.3     1  <O>11       0.0230
  22 C17       2.6639     4.6834     3.3579  C.ar    1  <O>11      -0.0356
  23 C18       3.8024     3.9729     3.7374  C.ar    1  <O>11       0.0302
  24 N5        4.1374     3.8086     5.0266  N.ar    1  <O>11      -0.2407
  25 H1        4.5551     3.6243     7.5678  H       1  <O>11       0.1437
  26 H2        3.1373     4.5403     8.0894  H       1  <O>11       0.1437
  27 H3       -1.8908     6.5737     2.5133  H       1  <O>11       0.1882
  28 H4        2.5489     7.6332     4.8271  H       1  <O>11       0.0380
  29 H5        0.9126     6.9030     6.7779  H       1  <O>11       0.0287
  30 H6        2.1703     8.1180     7.1083  H       1  <O>11       0.0287
  31 H7       -0.7840     8.5351     6.5457  H       1  <O>11       0.0465
  32 H8        0.2597     9.3787     7.7154  H       1  <O>11       0.0465
  33 H9       -0.7554    11.2409     7.6027  H       1  <O>11       0.0394
  34 H10      -2.3973    10.4931     5.6401  H       1  <O>11       0.0272
  35 H11      -3.0274    11.3614     7.0610  H       1  <O>11       0.0272
  36 H12      -2.7284    12.3145     4.2683  H       1  <O>11       0.0265
  37 H13      -3.6958    13.0090     5.5930  H       1  <O>11       0.0265
  38 H14      -0.9765    13.7382     4.6874  H       1  <O>11       0.0265
  39 H15      -2.0924    14.6456     5.7352  H       1  <O>11       0.0265
  40 H16       0.1644    13.5410     6.7489  H       1  <O>11       0.0272
  41 H17      -1.3429    13.5454     7.6963  H       1  <O>11       0.0272
  42 H18       1.0977     9.6164     3.7178  H       1  <O>11       0.0471
  43 H19       2.4319     9.9513     4.8471  H       1  <O>11       0.0471
  44 H20       1.5999     5.4547     6.4321  H       1  <O>11       0.0658
  45 H21      -0.4079     4.4871     2.9393  H       1  <O>11       0.0830
  46 H22       2.4268     4.7886     2.3590  H       1  <O>11       0.0639
  47 H23       4.4041     3.5620     3.0065  H       1  <O>11       0.0830
@<TRIPOS>BOND
     1     1     2    1
     2     2     3   ar
     3     3     4   ar
     4     4     5    1
     5     5     6   ar
     6     6     7   ar
     7     7     8   ar
     8     8     9   ar
     9     5     9   ar
    10     9    10    1
    11    10    11    1
    12    11    12    1
    13    12    13    1
    14    13    14   am
    15    14    15    2
    16    14    16    1
    17    16    17    1
    18    17    18    1
    19    18    19    1
    20    19    20    1
    21    16    20    1
    22    13    21    1
    23    10    21    1
    24     4    22   ar
    25    22    23   ar
    26    23    24   ar
    27     2    24   ar
    28     1    25    1
    29     1    26    1
    30     7    27    1
    31    10    28    1
    32    11    29    1
    33    11    30    1
    34    12    31    1
    35    12    32    1
    36    16    33    1
    37    17    34    1
    38    17    35    1
    39    18    36    1
    40    18    37    1
    41    19    38    1
    42    19    39    1
    43    20    40    1
    44    20    41    1
    45    21    42    1
    46    21    43    1
    47     3    44    1
    48     6    45    1
    49    22    46    1
    50    23    47    1
@<TRIPOS>MOLECULE
mol6_1_12
 47 50 0 0 0
SMALL
USER_CHARGES
****
VDW energy = -54.64
@<TRIPOS>ATOM
   1 N1        3.7120     4.1520     7.3415  N.pl3   1  <O>11      -0.3431
   2 C1        3.3329     4.3488     5.9653  C.ar    1  <O>11       0.1167
   3 C2        2.1864     5.0670     5.6766  C.ar    1  <O>11      -0.0143
   4 C3        1.8446     5.2530     4.3395  C.ar    1  <O>11      -0.0100
   5 C4        0.7410     5.9700     3.9760  C.ar    1  <O>11       0.0230
   6 C5        0.7647     7.2839     3.7528  C.ar    1  <O>11       0.0303
   7 N2       -0.5804     7.5327     3.5055  N.ar    1  <O>11      -0.2839
   8 N3       -1.3228     6.3839     3.4432  N.ar    1  <O>11      -0.1779
   9 C6       -0.4735     5.4182     3.8075  C.ar    1  <O>11       0.0751
  10 C7       -0.7111     3.9973     4.0153  C.3     1  <O>11       0.0208
  11 C8       -2.1432     3.6689     3.7582  C.3     1  <O>11      -0.0274
  12 C9       -2.7852     4.0576     5.0816  C.3     1  <O>11       0.0153
  13 N4       -1.7501     3.8193     6.0714  N.am    1  <O>11      -0.3006
  14 C10      -1.8843     3.7622     7.4229  C.2     1  <O>11       0.2187
  15 O1       -0.9072     3.5507     8.1255  O.2     1  <O>11      -0.2753
  16 C11      -3.2239     3.9572     8.0476  C.3     1  <O>11       0.0358
  17 C12      -3.4504     5.4022     8.3464  C.3     1  <O>11      -0.0419
  18 C13      -2.8071     5.5942     9.7206  C.3     1  <O>11      -0.0523
  19 C14      -2.5333     4.1951    10.2707  C.3     1  <O>11      -0.0523
  20 C15      -3.2941     3.2470     9.3548  C.3     1  <O>11      -0.0419
  21 C16      -0.4513     3.6325     5.4373  C.3     1  <O>11       0.0230
  22 C17       2.6639     4.6834     3.3579  C.ar    1  <O>11      -0.0356
  23 C18       3.8024     3.9729     3.7374  C.ar    1  <O>11       0.0302
  24 N5        4.1374     3.8086     5.0266  N.ar    1  <O>11      -0.2407
  25 H1        4.5551     3.6243     7.5678  H       1  <O>11       0.1437
  26 H2        3.1373     4.5403     8.0894  H       1  <O>11       0.1437
  27 H3       -0.9502     8.4649     3.3879  H       1  <O>11       0.1882
  28 H4       -0.0664     3.4221     3.3523  H       1  <O>11       0.0380
  29 H5       -2.5446     4.2577     2.9322  H       1  <O>11       0.0287
  30 H6       -2.2762     2.6090     3.5461  H       1  <O>11       0.0287
  31 H7       -3.0781     5.1067     5.0748  H       1  <O>11       0.0465
  32 H8       -3.6592     3.4368     5.2812  H       1  <O>11       0.0465
  33 H9       -3.9965     3.5853     7.3729  H       1  <O>11       0.0394
  34 H10      -2.9689     6.0346     7.6014  H       1  <O>11       0.0272
  35 H11      -4.5166     5.6296     8.3829  H       1  <O>11       0.0272
  36 H12      -1.8746     6.1517     9.6257  H       1  <O>11       0.0265
  37 H13      -3.4865     6.1323    10.3836  H       1  <O>11       0.0265
  38 H14      -1.4655     3.9778    10.2408  H       1  <O>11       0.0265
  39 H15      -2.8937     4.1101    11.2941  H       1  <O>11       0.0265
  40 H16      -2.8094     2.2723     9.3050  H       1  <O>11       0.0272
  41 H17      -4.3265     3.1234     9.6842  H       1  <O>11       0.0272
  42 H18       0.2973     4.2900     5.8789  H       1  <O>11       0.0471
  43 H19      -0.1220     2.5976     5.5213  H       1  <O>11       0.0471
  44 H20       1.5999     5.4547     6.4321  H       1  <O>11       0.0658
  45 H21       1.5632     7.9376     3.7613  H       1  <O>11       0.0830
  46 H22       2.4268     4.7886     2.3590  H       1  <O>11       0.0639
  47 H23       4.4041     3.5620     3.0065  H       1  <O>11       0.0830
@<TRIPOS>BOND
     1     1     2    1
     2     2     3   ar
     3     3     4   ar
     4     4     5    1
     5     5     6   ar
     6     6     7   ar
     7     7     8   ar
     8     8     9   ar
     9     5     9   ar
    10     9    10    1
    11    10    11    1
    12    11    12    1
    13    12    13    1
    14    13    14   am
    15    14    15    2
    16    14    16    1
    17    16    17    1
    18    17    18    1
    19    18    19    1
    20    19    20    1
    21    16    20    1
    22    13    21    1
    23    10    21    1
    24     4    22   ar
    25    22    23   ar
    26    23    24   ar
    27     2    24   ar
    28     1    25    1
    29     1    26    1
    30     7    27    1
    31    10    28    1
    32    11    29    1
    33    11    30    1
    34    12    31    1
    35    12    32    1
    36    16    33    1
    37    17    34    1
    38    17    35    1
    39    18    36    1
    40    18    37    1
    41    19    38    1
    42    19    39    1
    43    20    40    1
    44    20    41    1
    45    21    42    1
    46    21    43    1
    47     3    44    1
    48     6    45    1
    49    22    46    1
    50    23    47    1
@<TRIPOS>MOLECULE
mol6_1_13
 47 50 0 0 0
SMALL
USER_CHARGES
****
VDW energy = -54.46
@<TRIPOS>ATOM
   1 N1        3.7120     4.1520     7.3415  N.pl3   1  <O>11      -0.3431
   2 C1        3.3329     4.3488     5.9653  C.ar    1  <O>11       0.1167
   3 C2        2.1864     5.0670     5.6766  C.ar    1  <O>11      -0.0143
   4 C3        1.8446     5.2530     4.3395  C.ar    1  <O>11      -0.0100
   5 C4        0.7410     5.9700     3.9760  C.ar    1  <O>11       0.0230
   6 C5       -0.2647     5.4544     3.2693  C.ar    1  <O>11       0.0303
   7 N2       -1.0679     6.5760     3.0983  N.ar    1  <O>11      -0.2839
   8 N3       -0.6144     7.6576     3.8048  N.ar    1  <O>11      -0.1779
   9 C6        0.5638     7.2635     4.2978  C.ar    1  <O>11       0.0751
  10 C7        1.5542     8.0123     5.0573  C.3     1  <O>11       0.0208
  11 C8        1.2815     7.8965     6.5192  C.3     1  <O>11      -0.0274
  12 C9        0.2069     8.9561     6.7115  C.3     1  <O>11       0.0153
  13 N4        0.5097     9.9661     5.7135  N.am    1  <O>11      -0.3006
  14 C10       0.0169    11.2302     5.6282  C.2     1  <O>11       0.2187
  15 O1       -0.7832    11.6314     6.4599  O.2     1  <O>11      -0.2753
  16 C11       0.4528    12.1265     4.5195  C.3     1  <O>11       0.0358
  17 C12       1.6611    12.9032     4.9261  C.3     1  <O>11      -0.0419
  18 C13       1.0840    14.1195     5.6518  C.3     1  <O>11      -0.0523
  19 C14      -0.4129    14.1377     5.3451  C.3     1  <O>11      -0.0523
  20 C15      -0.6049    13.1313     4.2195  C.3     1  <O>11      -0.0419
  21 C16       1.4641     9.4648     4.7329  C.3     1  <O>11       0.0230
  22 C17       2.6639     4.6834     3.3579  C.ar    1  <O>11      -0.0356
  23 C18       3.8024     3.9729     3.7374  C.ar    1  <O>11       0.0302
  24 N5        4.1374     3.8086     5.0266  N.ar    1  <O>11      -0.2407
  25 H1        4.5551     3.6243     7.5678  H       1  <O>11       0.1437
  26 H2        3.1373     4.5403     8.0894  H       1  <O>11       0.1437
  27 H3       -1.8908     6.5737     2.5133  H       1  <O>11       0.1882
  28 H4        2.5489     7.6332     4.8271  H       1  <O>11       0.0380
  29 H5        0.9126     6.9030     6.7779  H       1  <O>11       0.0287
  30 H6        2.1703     8.1180     7.1083  H       1  <O>11       0.0287
  31 H7       -0.7840     8.5351     6.5457  H       1  <O>11       0.0465
  32 H8        0.2597     9.3787     7.7154  H       1  <O>11       0.0465
  33 H9        0.6689    11.5284     3.6329  H       1  <O>11       0.0394
  34 H10       2.2942    12.3186     5.5927  H       1  <O>11       0.0272
  35 H11       2.2380    13.2110     4.0531  H       1  <O>11       0.0272
  36 H12       1.2481    14.0303     6.7262  H       1  <O>11       0.0265
  37 H13       1.5534    15.0345     5.2870  H       1  <O>11       0.0265
  38 H14      -0.9841    13.8389     6.2241  H       1  <O>11       0.0265
  39 H15      -0.7255    15.1308     5.0279  H       1  <O>11       0.0265
  40 H16      -1.5986    12.6855     4.2537  H       1  <O>11       0.0272
  41 H17      -0.4472    13.5943     3.2447  H       1  <O>11       0.0272
  42 H18       1.0977     9.6164     3.7178  H       1  <O>11       0.0471
  43 H19       2.4319     9.9513     4.8471  H       1  <O>11       0.0471
  44 H20       1.5999     5.4547     6.4321  H       1  <O>11       0.0658
  45 H21      -0.4079     4.4871     2.9393  H       1  <O>11       0.0830
  46 H22       2.4268     4.7886     2.3590  H       1  <O>11       0.0639
  47 H23       4.4041     3.5620     3.0065  H       1  <O>11       0.0830
@<TRIPOS>BOND
     1     1     2    1
     2     2     3   ar
     3     3     4   ar
     4     4     5    1
     5     5     6   ar
     6     6     7   ar
     7     7     8   ar
     8     8     9   ar
     9     5     9   ar
    10     9    10    1
    11    10    11    1
    12    11    12    1
    13    12    13    1
    14    13    14   am
    15    14    15    2
    16    14    16    1
    17    16    17    1
    18    17    18    1
    19    18    19    1
    20    19    20    1
    21    16    20    1
    22    13    21    1
    23    10    21    1
    24     4    22   ar
    25    22    23   ar
    26    23    24   ar
    27     2    24   ar
    28     1    25    1
    29     1    26    1
    30     7    27    1
    31    10    28    1
    32    11    29    1
    33    11    30    1
    34    12    31    1
    35    12    32    1
    36    16    33    1
    37    17    34    1
    38    17    35    1
    39    18    36    1
    40    18    37    1
    41    19    38    1
    42    19    39    1
    43    20    40    1
    44    20    41    1
    45    21    42    1
    46    21    43    1
    47     3    44    1
    48     6    45    1
    49    22    46    1
    50    23    47    1
@<TRIPOS>MOLECULE
mol6_1_14
 47 50 0 0 0
SMALL
USER_CHARGES
****
VDW energy = -53.77
@<TRIPOS>ATOM
   1 N1        3.7120     4.1520     7.3415  N.pl3   1  <O>11      -0.3431
   2 C1        3.3329     4.3488     5.9653  C.ar    1  <O>11       0.1167
   3 C2        2.1864     5.0670     5.6766  C.ar    1  <O>11      -0.0143
   4 C3        1.8446     5.2530     4.3395  C.ar    1  <O>11      -0.0100
   5 C4        0.7410     5.9700     3.9760  C.ar    1  <O>11       0.0230
   6 C5       -0.4632     5.4231     3.8104  C.ar    1  <O>11       0.0303
   7 N2       -1.1934     6.5226     3.3741  N.ar    1  <O>11      -0.2839
   8 N3       -0.4726     7.6854     3.4293  N.ar    1  <O>11      -0.1779
   9 C6        0.7644     7.2957     3.7522  C.ar    1  <O>11       0.0751
  10 C7        1.9873     8.0764     3.8689  C.3     1  <O>11       0.0208
  11 C8        1.7162     9.5113     3.5651  C.3     1  <O>11      -0.0274
  12 C9        1.7590     9.5120     2.0443  C.3     1  <O>11       0.0153
  13 N4        2.7046     8.4634     1.7069  N.am    1  <O>11      -0.3006
  14 C10       3.2937     8.2250     0.5052  C.2     1  <O>11       0.2187
  15 O1        4.0753     7.2939     0.3819  O.2     1  <O>11      -0.2753
  16 C11       2.9862     9.1001    -0.6620  C.3     1  <O>11       0.0358
  17 C12       1.8186     8.5609    -1.4200  C.3     1  <O>11      -0.0419
  18 C13       2.4443     7.5444    -2.3762  C.3     1  <O>11      -0.0523
  19 C14       3.9528     7.7855    -2.3393  C.3     1  <O>11      -0.0523
  20 C15       4.1302     9.1127    -1.6156  C.3     1  <O>11      -0.0419
  21 C16       2.9887     7.6218     2.8623  C.3     1  <O>11       0.0230
  22 C17       2.6639     4.6834     3.3579  C.ar    1  <O>11      -0.0356
  23 C18       3.8024     3.9729     3.7374  C.ar    1  <O>11       0.0302
  24 N5        4.1374     3.8086     5.0266  N.ar    1  <O>11      -0.2407
  25 H1        4.5551     3.6243     7.5678  H       1  <O>11       0.1437
  26 H2        3.1373     4.5403     8.0894  H       1  <O>11       0.1437
  27 H3       -2.1488     6.4514     3.0553  H       1  <O>11       0.1882
  28 H4        2.3880     7.9724     4.8763  H       1  <O>11       0.0380
  29 H5        0.7378     9.8191     3.9366  H       1  <O>11       0.0287
  30 H6        2.4840    10.1589     3.9862  H       1  <O>11       0.0287
  31 H7        0.7755     9.2921     1.6307  H       1  <O>11       0.0465
  32 H8        2.1039    10.4766     1.6703  H       1  <O>11       0.0465
  33 H9        2.7746    10.1114    -0.3115  H       1  <O>11       0.0394
  34 H10       1.1087     8.0768    -0.7502  H       1  <O>11       0.0272
  35 H11       1.3142     9.3537    -1.9738  H       1  <O>11       0.0272
  36 H12       2.2162     6.5293    -2.0493  H       1  <O>11       0.0265
  37 H13       2.0645     7.6945    -3.3881  H       1  <O>11       0.0265
  38 H14       4.4519     6.9848    -1.7933  H       1  <O>11       0.0265
  39 H15       4.3549     7.8434    -3.3490  H       1  <O>11       0.0265
  40 H16       5.0848     9.1522    -1.0917  H       1  <O>11       0.0272
  41 H17       4.0602     9.9524    -2.3081  H       1  <O>11       0.0272
  42 H18       2.8501     6.5679     2.6216  H       1  <O>11       0.0471
  43 H19       4.0044     7.7828     3.2213  H       1  <O>11       0.0471
  44 H20       1.5999     5.4547     6.4321  H       1  <O>11       0.0658
  45 H21      -0.7697     4.4497     3.9640  H       1  <O>11       0.0830
  46 H22       2.4268     4.7886     2.3590  H       1  <O>11       0.0639
  47 H23       4.4041     3.5620     3.0065  H       1  <O>11       0.0830
@<TRIPOS>BOND
     1     1     2    1
     2     2     3   ar
     3     3     4   ar
     4     4     5    1
     5     5     6   ar
     6     6     7   ar
     7     7     8   ar
     8     8     9   ar
     9     5     9   ar
    10     9    10    1
    11    10    11    1
    12    11    12    1
    13    12    13    1
    14    13    14   am
    15    14    15    2
    16    14    16    1
    17    16    17    1
    18    17    18    1
    19    18    19    1
    20    19    20    1
    21    16    20    1
    22    13    21    1
    23    10    21    1
    24     4    22   ar
    25    22    23   ar
    26    23    24   ar
    27     2    24   ar
    28     1    25    1
    29     1    26    1
    30     7    27    1
    31    10    28    1
    32    11    29    1
    33    11    30    1
    34    12    31    1
    35    12    32    1
    36    16    33    1
    37    17    34    1
    38    17    35    1
    39    18    36    1
    40    18    37    1
    41    19    38    1
    42    19    39    1
    43    20    40    1
    44    20    41    1
    45    21    42    1
    46    21    43    1
    47     3    44    1
    48     6    45    1
    49    22    46    1
    50    23    47    1
@<TRIPOS>MOLECULE
mol6_1_15
 47 50 0 0 0
SMALL
USER_CHARGES
****
VDW energy = -52.45
@<TRIPOS>ATOM
   1 N1        3.7120     4.1520     7.3415  N.pl3   1  <O>11      -0.3431
   2 C1        3.3329     4.3488     5.9653  C.ar    1  <O>11       0.1167
   3 C2        2.1864     5.0670     5.6766  C.ar    1  <O>11      -0.0143
   4 C3        1.8446     5.2530     4.3395  C.ar    1  <O>11      -0.0100
   5 C4        0.7410     5.9700     3.9760  C.ar    1  <O>11       0.0230
   6 C5        0.7987     7.0659     3.2194  C.ar    1  <O>11       0.0303
   7 N2       -0.5370     7.4508     3.2121  N.ar    1  <O>11      -0.2839
   8 N3       -1.3506     6.5305     3.8169  N.ar    1  <O>11      -0.1779
   9 C6       -0.5083     5.6375     4.3457  C.ar    1  <O>11       0.0751
  10 C7       -0.7826     4.4797     5.1840  C.3     1  <O>11       0.0208
  11 C8       -1.0061     3.2706     4.3396  C.3     1  <O>11      -0.0274
  12 C9       -2.4663     3.4406     3.9478  C.3     1  <O>11       0.0153
  13 N4       -3.0651     4.1383     5.0714  N.am    1  <O>11      -0.3006
  14 C10      -4.3867     4.3068     5.3415  C.2     1  <O>11       0.2187
  15 O1       -4.7328     4.9246     6.3373  O.2     1  <O>11      -0.2753
  16 C11      -5.4134     3.7373     4.4228  C.3     1  <O>11       0.0358
  17 C12      -6.7852     4.0495     4.9221  C.3     1  <O>11      -0.0419
  18 C13      -7.0774     2.9205     5.9116  C.3     1  <O>11      -0.0523
  19 C14      -6.0010     1.8590     5.6888  C.3     1  <O>11      -0.0523
  20 C15      -5.3118     2.2518     4.3897  C.3     1  <O>11      -0.0419
  21 C16      -2.0427     4.6860     5.9538  C.3     1  <O>11       0.0230
  22 C17       2.6639     4.6834     3.3579  C.ar    1  <O>11      -0.0356
  23 C18       3.8024     3.9729     3.7374  C.ar    1  <O>11       0.0302
  24 N5        4.1374     3.8086     5.0266  N.ar    1  <O>11      -0.2407
  25 H1        4.5551     3.6243     7.5678  H       1  <O>11       0.1437
  26 H2        3.1373     4.5403     8.0894  H       1  <O>11       0.1437
  27 H3       -0.8528     8.3174     2.8014  H       1  <O>11       0.1882
  28 H4        0.0540     4.3179     5.8622  H       1  <O>11       0.0380
  29 H5       -0.3556     3.2708     3.4638  H       1  <O>11       0.0287
  30 H6       -0.8493     2.3545     4.9074  H       1  <O>11       0.0287
  31 H7       -2.5548     4.0302     3.0362  H       1  <O>11       0.0465
  32 H8       -2.9399     2.4694     3.8008  H       1  <O>11       0.0465
  33 H9       -5.2730     4.1485     3.4220  H       1  <O>11       0.0394
  34 H10      -6.8075     5.0176     5.4214  H       1  <O>11       0.0272
  35 H11      -7.5075     4.0445     4.1048  H       1  <O>11       0.0272
  36 H12      -7.0323     3.2948     6.9348  H       1  <O>11       0.0265
  37 H13      -8.0658     2.4987     5.7220  H       1  <O>11       0.0265
  38 H14      -5.2882     1.8623     6.5135  H       1  <O>11       0.0265
  39 H15      -6.4507     0.8719     5.6001  H       1  <O>11       0.0265
  40 H16      -4.2727     1.9239     4.3792  H       1  <O>11       0.0272
  41 H17      -5.8327     1.8376     3.5256  H       1  <O>11       0.0272
  42 H18      -2.2162     5.7452     6.1428  H       1  <O>11       0.0471
  43 H19      -2.0152     4.1470     6.8999  H       1  <O>11       0.0471
  44 H20       1.5999     5.4547     6.4321  H       1  <O>11       0.0658
  45 H21       1.6124     7.5077     2.7638  H       1  <O>11       0.0830
  46 H22       2.4268     4.7886     2.3590  H       1  <O>11       0.0639
  47 H23       4.4041     3.5620     3.0065  H       1  <O>11       0.0830
@<TRIPOS>BOND
     1     1     2    1
     2     2     3   ar
     3     3     4   ar
     4     4     5    1
     5     5     6   ar
     6     6     7   ar
     7     7     8   ar
     8     8     9   ar
     9     5     9   ar
    10     9    10    1
    11    10    11    1
    12    11    12    1
    13    12    13    1
    14    13    14   am
    15    14    15    2
    16    14    16    1
    17    16    17    1
    18    17    18    1
    19    18    19    1
    20    19    20    1
    21    16    20    1
    22    13    21    1
    23    10    21    1
    24     4    22   ar
    25    22    23   ar
    26    23    24   ar
    27     2    24   ar
    28     1    25    1
    29     1    26    1
    30     7    27    1
    31    10    28    1
    32    11    29    1
    33    11    30    1
    34    12    31    1
    35    12    32    1
    36    16    33    1
    37    17    34    1
    38    17    35    1
    39    18    36    1
    40    18    37    1
    41    19    38    1
    42    19    39    1
    43    20    40    1
    44    20    41    1
    45    21    42    1
    46    21    43    1
    47     3    44    1
    48     6    45    1
    49    22    46    1
    50    23    47    1
@<TRIPOS>MOLECULE
mol6_1_16
 47 50 0 0 0
SMALL
USER_CHARGES
****
VDW energy = -52.07
@<TRIPOS>ATOM
   1 N1        3.7120     4.1520     7.3415  N.pl3   1  <O>11      -0.3431
   2 C1        3.3329     4.3488     5.9653  C.ar    1  <O>11       0.1167
   3 C2        2.1864     5.0670     5.6766  C.ar    1  <O>11      -0.0143
   4 C3        1.8446     5.2530     4.3395  C.ar    1  <O>11      -0.0100
   5 C4        0.7410     5.9700     3.9760  C.ar    1  <O>11       0.0230
   6 C5        0.7647     7.2839     3.7528  C.ar    1  <O>11       0.0303
   7 N2       -0.5804     7.5327     3.5055  N.ar    1  <O>11      -0.2839
   8 N3       -1.3228     6.3839     3.4432  N.ar    1  <O>11      -0.1779
   9 C6       -0.4735     5.4182     3.8075  C.ar    1  <O>11       0.0751
  10 C7       -0.7111     3.9973     4.0153  C.3     1  <O>11       0.0208
  11 C8       -2.1432     3.6689     3.7582  C.3     1  <O>11      -0.0274
  12 C9       -2.7852     4.0576     5.0816  C.3     1  <O>11       0.0153
  13 N4       -1.7501     3.8193     6.0714  N.am    1  <O>11      -0.3006
  14 C10      -1.8843     3.7622     7.4229  C.2     1  <O>11       0.2187
  15 O1       -2.9820     3.9216     7.9353  O.2     1  <O>11      -0.2753
  16 C11      -0.6916     3.5054     8.2798  C.3     1  <O>11       0.0358
  17 C12      -0.5150     2.0388     8.4955  C.3     1  <O>11      -0.0419
  18 C13      -1.4136     1.7374     9.6958  C.3     1  <O>11      -0.0523
  19 C14      -1.8026     3.0876    10.2964  C.3     1  <O>11      -0.0523
  20 C15      -0.8855     4.1032     9.6301  C.3     1  <O>11      -0.0419
  21 C16      -0.4513     3.6325     5.4373  C.3     1  <O>11       0.0230
  22 C17       2.6639     4.6834     3.3579  C.ar    1  <O>11      -0.0356
  23 C18       3.8024     3.9729     3.7374  C.ar    1  <O>11       0.0302
  24 N5        4.1374     3.8086     5.0266  N.ar    1  <O>11      -0.2407
  25 H1        4.5551     3.6243     7.5678  H       1  <O>11       0.1437
  26 H2        3.1373     4.5403     8.0894  H       1  <O>11       0.1437
  27 H3       -0.9502     8.4649     3.3879  H       1  <O>11       0.1882
  28 H4       -0.0664     3.4221     3.3523  H       1  <O>11       0.0380
  29 H5       -2.5446     4.2577     2.9322  H       1  <O>11       0.0287
  30 H6       -2.2762     2.6090     3.5461  H       1  <O>11       0.0287
  31 H7       -3.0781     5.1067     5.0748  H       1  <O>11       0.0465
  32 H8       -3.6592     3.4368     5.2812  H       1  <O>11       0.0465
  33 H9        0.1950     3.9266     7.8033  H       1  <O>11       0.0394
  34 H10      -0.8354     1.4746     7.6203  H       1  <O>11       0.0272
  35 H11       0.5252     1.8010     8.7214  H       1  <O>11       0.0272
  36 H12      -2.3043     1.1969     9.3736  H       1  <O>11       0.0265
  37 H13      -0.8727     1.1406    10.4320  H       1  <O>11       0.0265
  38 H14      -2.8457     3.3147    10.0758  H       1  <O>11       0.0265
  39 H15      -1.6508     3.0840    11.3741  H       1  <O>11       0.0265
  40 H16      -1.3597     5.0823     9.5676  H       1  <O>11       0.0272
  41 H17       0.0611     4.1909    10.1648  H       1  <O>11       0.0272
  42 H18       0.2973     4.2900     5.8789  H       1  <O>11       0.0471
  43 H19      -0.1220     2.5976     5.5213  H       1  <O>11       0.0471
  44 H20       1.5999     5.4547     6.4321  H       1  <O>11       0.0658
  45 H21       1.5632     7.9376     3.7613  H       1  <O>11       0.0830
  46 H22       2.4268     4.7886     2.3590  H       1  <O>11       0.0639
  47 H23       4.4041     3.5620     3.0065  H       1  <O>11       0.0830
@<TRIPOS>BOND
     1     1     2    1
     2     2     3   ar
     3     3     4   ar
     4     4     5    1
     5     5     6   ar
     6     6     7   ar
     7     7     8   ar
     8     8     9   ar
     9     5     9   ar
    10     9    10    1
    11    10    11    1
    12    11    12    1
    13    12    13    1
    14    13    14   am
    15    14    15    2
    16    14    16    1
    17    16    17    1
    18    17    18    1
    19    18    19    1
    20    19    20    1
    21    16    20    1
    22    13    21    1
    23    10    21    1
    24     4    22   ar
    25    22    23   ar
    26    23    24   ar
    27     2    24   ar
    28     1    25    1
    29     1    26    1
    30     7    27    1
    31    10    28    1
    32    11    29    1
    33    11    30    1
    34    12    31    1
    35    12    32    1
    36    16    33    1
    37    17    34    1
    38    17    35    1
    39    18    36    1
    40    18    37    1
    41    19    38    1
    42    19    39    1
    43    20    40    1
    44    20    41    1
    45    21    42    1
    46    21    43    1
    47     3    44    1
    48     6    45    1
    49    22    46    1
    50    23    47    1
@<TRIPOS>MOLECULE
mol6_1_17
 47 50 0 0 0
SMALL
USER_CHARGES
****
VDW energy = -49.85
@<TRIPOS>ATOM
   1 N1        3.7120     4.1520     7.3415  N.pl3   1  <O>11      -0.3431
   2 C1        3.3329     4.3488     5.9653  C.ar    1  <O>11       0.1167
   3 C2        2.1864     5.0670     5.6766  C.ar    1  <O>11      -0.0143
   4 C3        1.8446     5.2530     4.3395  C.ar    1  <O>11      -0.0100
   5 C4        0.7410     5.9700     3.9760  C.ar    1  <O>11       0.0230
   6 C5       -0.2647     5.4544     3.2693  C.ar    1  <O>11       0.0303
   7 N2       -1.0679     6.5760     3.0983  N.ar    1  <O>11      -0.2839
   8 N3       -0.6144     7.6576     3.8048  N.ar    1  <O>11      -0.1779
   9 C6        0.5638     7.2635     4.2978  C.ar    1  <O>11       0.0751
  10 C7        1.5542     8.0123     5.0573  C.3     1  <O>11       0.0208
  11 C8        1.0942     9.4159     5.2653  C.3     1  <O>11      -0.0274
  12 C9        1.4903    10.0628     3.9465  C.3     1  <O>11       0.0153
  13 N4        2.6701     9.3308     3.5226  N.am    1  <O>11      -0.3006
  14 C10       3.5580     9.6686     2.5502  C.2     1  <O>11       0.2187
  15 O1        4.5090     8.9396     2.3112  O.2     1  <O>11      -0.2753
  16 C11       3.3713    10.9289     1.7760  C.3     1  <O>11       0.0358
  17 C12       4.4628    11.0849     0.7695  C.3     1  <O>11      -0.0419
  18 C13       5.5874    11.7610     1.5550  C.3     1  <O>11      -0.0523
  19 C14       4.9713    12.2416     2.8682  C.3     1  <O>11      -0.0523
  20 C15       3.4669    12.1100     2.6783  C.3     1  <O>11      -0.0419
  21 C16       2.8308     8.1039     4.2925  C.3     1  <O>11       0.0230
  22 C17       2.6639     4.6834     3.3579  C.ar    1  <O>11      -0.0356
  23 C18       3.8024     3.9729     3.7374  C.ar    1  <O>11       0.0302
  24 N5        4.1374     3.8086     5.0266  N.ar    1  <O>11      -0.2407
  25 H1        4.5551     3.6243     7.5678  H       1  <O>11       0.1437
  26 H2        3.1373     4.5403     8.0894  H       1  <O>11       0.1437
  27 H3       -1.8908     6.5737     2.5133  H       1  <O>11       0.1882
  28 H4        1.7206     7.5230     6.0159  H       1  <O>11       0.0380
  29 H5        0.0159     9.4620     5.4240  H       1  <O>11       0.0287
  30 H6        1.6048     9.8811     6.1073  H       1  <O>11       0.0287
  31 H7        0.6910     9.9641     3.2131  H       1  <O>11       0.0465
  32 H8        1.7233    11.1183     4.0914  H       1  <O>11       0.0465
  33 H9        2.3998    10.9094     1.2797  H       1  <O>11       0.0394
  34 H10       4.7841    10.1157     0.3894  H       1  <O>11       0.0272
  35 H11       4.1392    11.7129    -0.0615  H       1  <O>11       0.0272
  36 H12       6.3899    11.0494     1.7527  H       1  <O>11       0.0265
  37 H13       5.9834    12.6087     0.9935  H       1  <O>11       0.0265
  38 H14       5.3063    11.6162     3.6959  H       1  <O>11       0.0265
  39 H15       5.2435    13.2775     3.0611  H       1  <O>11       0.0265
  40 H16       2.9635    11.9277     3.6273  H       1  <O>11       0.0272
  41 H17       3.0485    13.0018     2.2101  H       1  <O>11       0.0272
  42 H18       2.9552     7.2435     3.6353  H       1  <O>11       0.0471
  43 H19       3.6848     8.1749     4.9649  H       1  <O>11       0.0471
  44 H20       1.5999     5.4547     6.4321  H       1  <O>11       0.0658
  45 H21      -0.4079     4.4871     2.9393  H       1  <O>11       0.0830
  46 H22       2.4268     4.7886     2.3590  H       1  <O>11       0.0639
  47 H23       4.4041     3.5620     3.0065  H       1  <O>11       0.0830
@<TRIPOS>BOND
     1     1     2    1
     2     2     3   ar
     3     3     4   ar
     4     4     5    1
     5     5     6   ar
     6     6     7   ar
     7     7     8   ar
     8     8     9   ar
     9     5     9   ar
    10     9    10    1
    11    10    11    1
    12    11    12    1
    13    12    13    1
    14    13    14   am
    15    14    15    2
    16    14    16    1
    17    16    17    1
    18    17    18    1
    19    18    19    1
    20    19    20    1
    21    16    20    1
    22    13    21    1
    23    10    21    1
    24     4    22   ar
    25    22    23   ar
    26    23    24   ar
    27     2    24   ar
    28     1    25    1
    29     1    26    1
    30     7    27    1
    31    10    28    1
    32    11    29    1
    33    11    30    1
    34    12    31    1
    35    12    32    1
    36    16    33    1
    37    17    34    1
    38    17    35    1
    39    18    36    1
    40    18    37    1
    41    19    38    1
    42    19    39    1
    43    20    40    1
    44    20    41    1
    45    21    42    1
    46    21    43    1
    47     3    44    1
    48     6    45    1
    49    22    46    1
    50    23    47    1
@<TRIPOS>MOLECULE
mol6_1_18
 47 50 0 0 0
SMALL
USER_CHARGES
****
VDW energy = -44.12
@<TRIPOS>ATOM
   1 N1        3.7120     4.1520     7.3415  N.pl3   1  <O>11      -0.3431
   2 C1        3.3329     4.3488     5.9653  C.ar    1  <O>11       0.1167
   3 C2        2.1864     5.0670     5.6766  C.ar    1  <O>11      -0.0143
   4 C3        1.8446     5.2530     4.3395  C.ar    1  <O>11      -0.0100
   5 C4        0.7410     5.9700     3.9760  C.ar    1  <O>11       0.0230
   6 C5        0.7647     7.2839     3.7528  C.ar    1  <O>11       0.0303
   7 N2       -0.5804     7.5327     3.5055  N.ar    1  <O>11      -0.2839
   8 N3       -1.3228     6.3839     3.4432  N.ar    1  <O>11      -0.1779
   9 C6       -0.4735     5.4182     3.8075  C.ar    1  <O>11       0.0751
  10 C7       -0.7111     3.9973     4.0153  C.3     1  <O>11       0.0208
  11 C8       -2.1432     3.6689     3.7582  C.3     1  <O>11      -0.0274
  12 C9       -2.7852     4.0576     5.0816  C.3     1  <O>11       0.0153
  13 N4       -1.7501     3.8193     6.0714  N.am    1  <O>11      -0.3006
  14 C10      -1.8843     3.7622     7.4229  C.2     1  <O>11       0.2187
  15 O1       -0.9072     3.5507     8.1255  O.2     1  <O>11      -0.2753
  16 C11      -3.2239     3.9572     8.0476  C.3     1  <O>11       0.0358
  17 C12      -3.1226     3.8525     9.5333  C.3     1  <O>11      -0.0419
  18 C13      -3.2419     2.3514     9.8007  C.3     1  <O>11      -0.0523
  19 C14      -3.7215     1.7152     8.4967  C.3     1  <O>11      -0.0523
  20 C15      -4.1575     2.8791     7.6181  C.3     1  <O>11      -0.0419
  21 C16      -0.4513     3.6325     5.4373  C.3     1  <O>11       0.0230
  22 C17       2.6639     4.6834     3.3579  C.ar    1  <O>11      -0.0356
  23 C18       3.8024     3.9729     3.7374  C.ar    1  <O>11       0.0302
  24 N5        4.1374     3.8086     5.0266  N.ar    1  <O>11      -0.2407
  25 H1        4.5551     3.6243     7.5678  H       1  <O>11       0.1437
  26 H2        3.1373     4.5403     8.0894  H       1  <O>11       0.1437
  27 H3       -0.9502     8.4649     3.3879  H       1  <O>11       0.1882
  28 H4       -0.0664     3.4221     3.3523  H       1  <O>11       0.0380
  29 H5       -2.5446     4.2577     2.9322  H       1  <O>11       0.0287
  30 H6       -2.2762     2.6090     3.5461  H       1  <O>11       0.0287
  31 H7       -3.0781     5.1067     5.0748  H       1  <O>11       0.0465
  32 H8       -3.6592     3.4368     5.2812  H       1  <O>11       0.0465
  33 H9       -3.6179     4.9342     7.7637  H       1  <O>11       0.0394
  34 H10      -2.1654     4.2341     9.8867  H       1  <O>11       0.0272
  35 H11      -3.9335     4.3976    10.0181  H       1  <O>11       0.0272
  36 H12      -2.2727     1.9412    10.0866  H       1  <O>11       0.0265
  37 H13      -3.9644     2.1660    10.5971  H       1  <O>11       0.0265
  38 H14      -2.9096     1.1638     8.0223  H       1  <O>11       0.0265
  39 H15      -4.5570     1.0435     8.6844  H       1  <O>11       0.0265
  40 H16      -4.0347     2.6437     6.5613  H       1  <O>11       0.0272
  41 H17      -5.1954     3.1527     7.8117  H       1  <O>11       0.0272
  42 H18       0.2973     4.2900     5.8789  H       1  <O>11       0.0471
  43 H19      -0.1220     2.5976     5.5213  H       1  <O>11       0.0471
  44 H20       1.5999     5.4547     6.4321  H       1  <O>11       0.0658
  45 H21       1.5632     7.9376     3.7613  H       1  <O>11       0.0830
  46 H22       2.4268     4.7886     2.3590  H       1  <O>11       0.0639
  47 H23       4.4041     3.5620     3.0065  H       1  <O>11       0.0830
@<TRIPOS>BOND
     1     1     2    1
     2     2     3   ar
     3     3     4   ar
     4     4     5    1
     5     5     6   ar
     6     6     7   ar
     7     7     8   ar
     8     8     9   ar
     9     5     9   ar
    10     9    10    1
    11    10    11    1
    12    11    12    1
    13    12    13    1
    14    13    14   am
    15    14    15    2
    16    14    16    1
    17    16    17    1
    18    17    18    1
    19    18    19    1
    20    19    20    1
    21    16    20    1
    22    13    21    1
    23    10    21    1
    24     4    22   ar
    25    22    23   ar
    26    23    24   ar
    27     2    24   ar
    28     1    25    1
    29     1    26    1
    30     7    27    1
    31    10    28    1
    32    11    29    1
    33    11    30    1
    34    12    31    1
    35    12    32    1
    36    16    33    1
    37    17    34    1
    38    17    35    1
    39    18    36    1
    40    18    37    1
    41    19    38    1
    42    19    39    1
    43    20    40    1
    44    20    41    1
    45    21    42    1
    46    21    43    1
    47     3    44    1
    48     6    45    1
    49    22    46    1
    50    23    47    1
@<TRIPOS>MOLECULE
mol6_1_19
 47 50 0 0 0
SMALL
USER_CHARGES
****
VDW energy = -43.62
@<TRIPOS>ATOM
   1 N1        3.7120     4.1520     7.3415  N.pl3   1  <O>11      -0.3431
   2 C1        3.3329     4.3488     5.9653  C.ar    1  <O>11       0.1167
   3 C2        2.1864     5.0670     5.6766  C.ar    1  <O>11      -0.0143
   4 C3        1.8446     5.2530     4.3395  C.ar    1  <O>11      -0.0100
   5 C4        0.7410     5.9700     3.9760  C.ar    1  <O>11       0.0230
   6 C5        0.7647     7.2839     3.7528  C.ar    1  <O>11       0.0303
   7 N2       -0.5804     7.5327     3.5055  N.ar    1  <O>11      -0.2839
   8 N3       -1.3228     6.3839     3.4432  N.ar    1  <O>11      -0.1779
   9 C6       -0.4735     5.4182     3.8075  C.ar    1  <O>11       0.0751
  10 C7       -0.7111     3.9973     4.0153  C.3     1  <O>11       0.0208
  11 C8       -0.4971     3.2455     2.7449  C.3     1  <O>11      -0.0274
  12 C9       -1.8302     3.4534     2.0419  C.3     1  <O>11       0.0153
  13 N4       -2.7963     3.5626     3.1199  N.am    1  <O>11      -0.3006
  14 C10      -4.1517     3.4998     3.0363  C.2     1  <O>11       0.2187
  15 O1       -4.6899     3.3322     1.9523  O.2     1  <O>11      -0.2753
  16 C11      -4.9812     3.6359     4.2676  C.3     1  <O>11       0.0358
  17 C12      -6.4315     3.5335     3.9289  C.3     1  <O>11      -0.0419
  18 C13      -6.8155     4.9619     3.5400  C.3     1  <O>11      -0.0523
  19 C14      -5.6582     5.8574     3.9803  C.3     1  <O>11      -0.0523
  20 C15      -4.7907     4.9827     4.8742  C.3     1  <O>11      -0.0419
  21 C16      -2.1318     3.7620     4.4015  C.3     1  <O>11       0.0230
  22 C17       2.6639     4.6834     3.3579  C.ar    1  <O>11      -0.0356
  23 C18       3.8024     3.9729     3.7374  C.ar    1  <O>11       0.0302
  24 N5        4.1374     3.8086     5.0266  N.ar    1  <O>11      -0.2407
  25 H1        4.5551     3.6243     7.5678  H       1  <O>11       0.1437
  26 H2        3.1373     4.5403     8.0894  H       1  <O>11       0.1437
  27 H3       -0.9502     8.4649     3.3879  H       1  <O>11       0.1882
  28 H4       -0.0411     3.6282     4.7905  H       1  <O>11       0.0380
  29 H5        0.3278     3.6657     2.1677  H       1  <O>11       0.0287
  30 H6       -0.3062     2.1902     2.9346  H       1  <O>11       0.0287
  31 H7       -1.8136     4.3646     1.4451  H       1  <O>11       0.0465
  32 H8       -2.0629     2.6025     1.4008  H       1  <O>11       0.0465
  33 H9       -4.7038     2.8574     4.9800  H       1  <O>11       0.0394
  34 H10      -6.5900     2.8493     3.0961  H       1  <O>11       0.0272
  35 H11      -7.0099     3.1982     4.7908  H       1  <O>11       0.0272
  36 H12      -6.9588     5.0334     2.4613  H       1  <O>11       0.0265
  37 H13      -7.7341     5.2578     4.0492  H       1  <O>11       0.0265
  38 H14      -5.0903     6.1971     3.1140  H       1  <O>11       0.0265
  39 H15      -6.0303     6.7184     4.5322  H       1  <O>11       0.0265
  40 H16      -3.7467     5.2923     4.8364  H       1  <O>11       0.0272
  41 H17      -5.1396     5.0055     5.9073  H       1  <O>11       0.0272
  42 H18      -2.5426     4.6253     4.9247  H       1  <O>11       0.0471
  43 H19      -2.2243     2.8773     5.0302  H       1  <O>11       0.0471
  44 H20       1.5999     5.4547     6.4321  H       1  <O>11       0.0658
  45 H21       1.5632     7.9376     3.7613  H       1  <O>11       0.0830
  46 H22       2.4268     4.7886     2.3590  H       1  <O>11       0.0639
  47 H23       4.4041     3.5620     3.0065  H       1  <O>11       0.0830
@<TRIPOS>BOND
     1     1     2    1
     2     2     3   ar
     3     3     4   ar
     4     4     5    1
     5     5     6   ar
     6     6     7   ar
     7     7     8   ar
     8     8     9   ar
     9     5     9   ar
    10     9    10    1
    11    10    11    1
    12    11    12    1
    13    12    13    1
    14    13    14   am
    15    14    15    2
    16    14    16    1
    17    16    17    1
    18    17    18    1
    19    18    19    1
    20    19    20    1
    21    16    20    1
    22    13    21    1
    23    10    21    1
    24     4    22   ar
    25    22    23   ar
    26    23    24   ar
    27     2    24   ar
    28     1    25    1
    29     1    26    1
    30     7    27    1
    31    10    28    1
    32    11    29    1
    33    11    30    1
    34    12    31    1
    35    12    32    1
    36    16    33    1
    37    17    34    1
    38    17    35    1
    39    18    36    1
    40    18    37    1
    41    19    38    1
    42    19    39    1
    43    20    40    1
    44    20    41    1
    45    21    42    1
    46    21    43    1
    47     3    44    1
    48     6    45    1
    49    22    46    1
    50    23    47    1
@<TRIPOS>MOLECULE
mol6_1_20
 47 50 0 0 0
SMALL
USER_CHARGES
****
VDW energy = -43.25
@<TRIPOS>ATOM
   1 N1        3.7120     4.1520     7.3415  N.pl3   1  <O>11      -0.3431
   2 C1        3.3329     4.3488     5.9653  C.ar    1  <O>11       0.1167
   3 C2        2.1864     5.0670     5.6766  C.ar    1  <O>11      -0.0143
   4 C3        1.8446     5.2530     4.3395  C.ar    1  <O>11      -0.0100
   5 C4        0.7410     5.9700     3.9760  C.ar    1  <O>11       0.0230
   6 C5       -0.4632     5.4231     3.8104  C.ar    1  <O>11       0.0303
   7 N2       -1.1934     6.5226     3.3741  N.ar    1  <O>11      -0.2839
   8 N3       -0.4726     7.6854     3.4293  N.ar    1  <O>11      -0.1779
   9 C6        0.7644     7.2957     3.7522  C.ar    1  <O>11       0.0751
  10 C7        1.9873     8.0764     3.8689  C.3     1  <O>11       0.0208
  11 C8        1.7162     9.5113     3.5651  C.3     1  <O>11      -0.0274
  12 C9        1.7590     9.5120     2.0443  C.3     1  <O>11       0.0153
  13 N4        2.7046     8.4634     1.7069  N.am    1  <O>11      -0.3006
  14 C10       3.2937     8.2250     0.5052  C.2     1  <O>11       0.2187
  15 O1        4.0753     7.2939     0.3819  O.2     1  <O>11      -0.2753
  16 C11       2.9862     9.1001    -0.6620  C.3     1  <O>11       0.0358
  17 C12       3.7456     8.6457    -1.8642  C.3     1  <O>11      -0.0419
  18 C13       5.0984     9.3453    -1.7253  C.3     1  <O>11      -0.0523
  19 C14       4.9302    10.4024    -0.6348  C.3     1  <O>11      -0.0523
  20 C15       3.4303    10.4962    -0.3938  C.3     1  <O>11      -0.0419
  21 C16       2.9887     7.6218     2.8623  C.3     1  <O>11       0.0230
  22 C17       2.6639     4.6834     3.3579  C.ar    1  <O>11      -0.0356
  23 C18       3.8024     3.9729     3.7374  C.ar    1  <O>11       0.0302
  24 N5        4.1374     3.8086     5.0266  N.ar    1  <O>11      -0.2407
  25 H1        4.5551     3.6243     7.5678  H       1  <O>11       0.1437
  26 H2        3.1373     4.5403     8.0894  H       1  <O>11       0.1437
  27 H3       -2.1488     6.4514     3.0553  H       1  <O>11       0.1882
  28 H4        2.3880     7.9724     4.8763  H       1  <O>11       0.0380
  29 H5        0.7378     9.8191     3.9366  H       1  <O>11       0.0287
  30 H6        2.4840    10.1589     3.9862  H       1  <O>11       0.0287
  31 H7        0.7755     9.2921     1.6307  H       1  <O>11       0.0465
  32 H8        2.1039    10.4766     1.6703  H       1  <O>11       0.0465
  33 H9        1.9137     9.0758    -0.8612  H       1  <O>11       0.0394
  34 H10       3.8672     7.5630    -1.8623  H       1  <O>11       0.0272
  35 H11       3.2427     8.9540    -2.7818  H       1  <O>11       0.0272
  36 H12       5.8669     8.6265    -1.4389  H       1  <O>11       0.0265
  37 H13       5.3770     9.8191    -2.6680  H       1  <O>11       0.0265
  38 H14       5.4431    10.0931     0.2760  H       1  <O>11       0.0265
  39 H15       5.3250    11.3604    -0.9676  H       1  <O>11       0.0265
  40 H16       3.2129    10.7930     0.6319  H       1  <O>11       0.0272
  41 H17       2.9629    11.2005    -1.0831  H       1  <O>11       0.0272
  42 H18       2.8501     6.5679     2.6216  H       1  <O>11       0.0471
  43 H19       4.0044     7.7828     3.2213  H       1  <O>11       0.0471
  44 H20       1.5999     5.4547     6.4321  H       1  <O>11       0.0658
  45 H21      -0.7697     4.4497     3.9640  H       1  <O>11       0.0830
  46 H22       2.4268     4.7886     2.3590  H       1  <O>11       0.0639
  47 H23       4.4041     3.5620     3.0065  H       1  <O>11       0.0830
@<TRIPOS>BOND
     1     1     2    1
     2     2     3   ar
     3     3     4   ar
     4     4     5    1
     5     5     6   ar
     6     6     7   ar
     7     7     8   ar
     8     8     9   ar
     9     5     9   ar
    10     9    10    1
    11    10    11    1
    12    11    12    1
    13    12    13    1
    14    13    14   am
    15    14    15    2
    16    14    16    1
    17    16    17    1
    18    17    18    1
    19    18    19    1
    20    19    20    1
    21    16    20    1
    22    13    21    1
    23    10    21    1
    24     4    22   ar
    25    22    23   ar
    26    23    24   ar
    27     2    24   ar
    28     1    25    1
    29     1    26    1
    30     7    27    1
    31    10    28    1
    32    11    29    1
    33    11    30    1
    34    12    31    1
    35    12    32    1
    36    16    33    1
    37    17    34    1
    38    17    35    1
    39    18    36    1
    40    18    37    1
    41    19    38    1
    42    19    39    1
    43    20    40    1
    44    20    41    1
    45    21    42    1
    46    21    43    1
    47     3    44    1
    48     6    45    1
    49    22    46    1
    50    23    47    1
@<TRIPOS>MOLECULE
mol6_1_21
 47 50 0 0 0
SMALL
USER_CHARGES
****
VDW energy = -41.98
@<TRIPOS>ATOM
   1 N1        3.7120     4.1520     7.3415  N.pl3   1  <O>11      -0.3431
   2 C1        3.3329     4.3488     5.9653  C.ar    1  <O>11       0.1167
   3 C2        2.1864     5.0670     5.6766  C.ar    1  <O>11      -0.0143
   4 C3        1.8446     5.2530     4.3395  C.ar    1  <O>11      -0.0100
   5 C4        0.7410     5.9700     3.9760  C.ar    1  <O>11       0.0230
   6 C5       -0.4632     5.4231     3.8104  C.ar    1  <O>11       0.0303
   7 N2       -1.1934     6.5226     3.3741  N.ar    1  <O>11      -0.2839
   8 N3       -0.4726     7.6854     3.4293  N.ar    1  <O>11      -0.1779
   9 C6        0.7644     7.2957     3.7522  C.ar    1  <O>11       0.0751
  10 C7        1.9873     8.0764     3.8689  C.3     1  <O>11       0.0208
  11 C8        2.1444     8.5871     5.2616  C.3     1  <O>11      -0.0274
  12 C9        1.2565     9.8222     5.2330  C.3     1  <O>11       0.0153
  13 N4        1.3314    10.2920     3.8614  N.am    1  <O>11      -0.3006
  14 C10       0.9331    11.4942     3.3674  C.2     1  <O>11       0.2187
  15 O1        1.0651    11.7400     2.1778  O.2     1  <O>11      -0.2753
  16 C11       0.3357    12.5127     4.2776  C.3     1  <O>11       0.0358
  17 C12      -0.6737    11.8766     5.1749  C.3     1  <O>11      -0.0419
  18 C13      -1.9594    11.8958     4.3469  C.3     1  <O>11      -0.0523
  19 C14      -1.6966    12.8208     3.1591  C.3     1  <O>11      -0.0523
  20 C15      -0.3985    13.5427     3.4913  C.3     1  <O>11      -0.0419
  21 C16       1.9176     9.2800     2.9918  C.3     1  <O>11       0.0230
  22 C17       2.6639     4.6834     3.3579  C.ar    1  <O>11      -0.0356
  23 C18       3.8024     3.9729     3.7374  C.ar    1  <O>11       0.0302
  24 N5        4.1374     3.8086     5.0266  N.ar    1  <O>11      -0.2407
  25 H1        4.5551     3.6243     7.5678  H       1  <O>11       0.1437
  26 H2        3.1373     4.5403     8.0894  H       1  <O>11       0.1437
  27 H3       -2.1488     6.4514     3.0553  H       1  <O>11       0.1882
  28 H4        2.8398     7.4564     3.5952  H       1  <O>11       0.0380
  29 H5        1.7923     7.8598     5.9944  H       1  <O>11       0.0287
  30 H6        3.1805     8.8453     5.4759  H       1  <O>11       0.0287
  31 H7        0.2312     9.5663     5.4975  H       1  <O>11       0.0465
  32 H8        1.6316    10.5806     5.9210  H       1  <O>11       0.0465
  33 H9        1.1254    12.9793     4.8683  H       1  <O>11       0.0394
  34 H10      -0.3871    10.8549     5.4218  H       1  <O>11       0.0272
  35 H11      -0.7960    12.4525     6.0931  H       1  <O>11       0.0272
  36 H12      -2.1976    10.8908     3.9971  H       1  <O>11       0.0265
  37 H13      -2.7879    12.2786     4.9449  H       1  <O>11       0.0265
  38 H14      -1.5853    12.2401     2.2433  H       1  <O>11       0.0265
  39 H15      -2.5114    13.5327     3.0422  H       1  <O>11       0.0265
  40 H16       0.1446    13.8150     2.5868  H       1  <O>11       0.0272
  41 H17      -0.5855    14.4374     4.0865  H       1  <O>11       0.0272
  42 H18       1.2839     9.0953     2.1246  H       1  <O>11       0.0471
  43 H19       2.9108     9.5795     2.6598  H       1  <O>11       0.0471
  44 H20       1.5999     5.4547     6.4321  H       1  <O>11       0.0658
  45 H21      -0.7697     4.4497     3.9640  H       1  <O>11       0.0830
  46 H22       2.4268     4.7886     2.3590  H       1  <O>11       0.0639
  47 H23       4.4041     3.5620     3.0065  H       1  <O>11       0.0830
@<TRIPOS>BOND
     1     1     2    1
     2     2     3   ar
     3     3     4   ar
     4     4     5    1
     5     5     6   ar
     6     6     7   ar
     7     7     8   ar
     8     8     9   ar
     9     5     9   ar
    10     9    10    1
    11    10    11    1
    12    11    12    1
    13    12    13    1
    14    13    14   am
    15    14    15    2
    16    14    16    1
    17    16    17    1
    18    17    18    1
    19    18    19    1
    20    19    20    1
    21    16    20    1
    22    13    21    1
    23    10    21    1
    24     4    22   ar
    25    22    23   ar
    26    23    24   ar
    27     2    24   ar
    28     1    25    1
    29     1    26    1
    30     7    27    1
    31    10    28    1
    32    11    29    1
    33    11    30    1
    34    12    31    1
    35    12    32    1
    36    16    33    1
    37    17    34    1
    38    17    35    1
    39    18    36    1
    40    18    37    1
    41    19    38    1
    42    19    39    1
    43    20    40    1
    44    20    41    1
    45    21    42    1
    46    21    43    1
    47     3    44    1
    48     6    45    1
    49    22    46    1
    50    23    47    1
@<TRIPOS>MOLECULE
mol6_1_22
 47 50 0 0 0
SMALL
USER_CHARGES
****
VDW energy = -41.88
@<TRIPOS>ATOM
   1 N1        3.7120     4.1520     7.3415  N.pl3   1  <O>11      -0.3431
   2 C1        3.3329     4.3488     5.9653  C.ar    1  <O>11       0.1167
   3 C2        2.1864     5.0670     5.6766  C.ar    1  <O>11      -0.0143
   4 C3        1.8446     5.2530     4.3395  C.ar    1  <O>11      -0.0100
   5 C4        0.7410     5.9700     3.9760  C.ar    1  <O>11       0.0230
   6 C5        0.7647     7.2839     3.7528  C.ar    1  <O>11       0.0303
   7 N2       -0.5804     7.5327     3.5055  N.ar    1  <O>11      -0.2839
   8 N3       -1.3228     6.3839     3.4432  N.ar    1  <O>11      -0.1779
   9 C6       -0.4735     5.4182     3.8075  C.ar    1  <O>11       0.0751
  10 C7       -0.7111     3.9973     4.0153  C.3     1  <O>11       0.0208
  11 C8       -0.4971     3.2455     2.7449  C.3     1  <O>11      -0.0274
  12 C9       -1.8302     3.4534     2.0419  C.3     1  <O>11       0.0153
  13 N4       -2.7963     3.5626     3.1199  N.am    1  <O>11      -0.3006
  14 C10      -4.1517     3.4998     3.0363  C.2     1  <O>11       0.2187
  15 O1       -4.8319     3.6101     4.0454  O.2     1  <O>11      -0.2753
  16 C11      -4.8079     3.2957     1.7133  C.3     1  <O>11       0.0358
  17 C12      -4.1913     4.1869     0.6866  C.3     1  <O>11      -0.0419
  18 C13      -4.9583     5.5013     0.8385  C.3     1  <O>11      -0.0523
  19 C14      -6.1741     5.1956     1.7123  C.3     1  <O>11      -0.0523
  20 C15      -6.2459     3.6769     1.7840  C.3     1  <O>11      -0.0419
  21 C16      -2.1318     3.7620     4.4015  C.3     1  <O>11       0.0230
  22 C17       2.6639     4.6834     3.3579  C.ar    1  <O>11      -0.0356
  23 C18       3.8024     3.9729     3.7374  C.ar    1  <O>11       0.0302
  24 N5        4.1374     3.8086     5.0266  N.ar    1  <O>11      -0.2407
  25 H1        4.5551     3.6243     7.5678  H       1  <O>11       0.1437
  26 H2        3.1373     4.5403     8.0894  H       1  <O>11       0.1437
  27 H3       -0.9502     8.4649     3.3879  H       1  <O>11       0.1882
  28 H4       -0.0411     3.6282     4.7905  H       1  <O>11       0.0380
  29 H5        0.3278     3.6657     2.1677  H       1  <O>11       0.0287
  30 H6       -0.3062     2.1902     2.9346  H       1  <O>11       0.0287
  31 H7       -1.8136     4.3646     1.4451  H       1  <O>11       0.0465
  32 H8       -2.0629     2.6025     1.4008  H       1  <O>11       0.0465
  33 H9       -4.7076     2.2508     1.4157  H       1  <O>11       0.0394
  34 H10      -3.1297     4.3328     0.8837  H       1  <O>11       0.0272
  35 H11      -4.3224     3.7758    -0.3152  H       1  <O>11       0.0272
  36 H12      -4.3286     6.2521     1.3172  H       1  <O>11       0.0265
  37 H13      -5.2799     5.8659    -0.1384  H       1  <O>11       0.0265
  38 H14      -6.0412     5.6175     2.7086  H       1  <O>11       0.0265
  39 H15      -7.0787     5.6007     1.2630  H       1  <O>11       0.0265
  40 H16      -6.6998     3.3467     2.7180  H       1  <O>11       0.0272
  41 H17      -6.8066     3.2680     0.9426  H       1  <O>11       0.0272
  42 H18      -2.5426     4.6253     4.9247  H       1  <O>11       0.0471
  43 H19      -2.2243     2.8773     5.0302  H       1  <O>11       0.0471
  44 H20       1.5999     5.4547     6.4321  H       1  <O>11       0.0658
  45 H21       1.5632     7.9376     3.7613  H       1  <O>11       0.0830
  46 H22       2.4268     4.7886     2.3590  H       1  <O>11       0.0639
  47 H23       4.4041     3.5620     3.0065  H       1  <O>11       0.0830
@<TRIPOS>BOND
     1     1     2    1
     2     2     3   ar
     3     3     4   ar
     4     4     5    1
     5     5     6   ar
     6     6     7   ar
     7     7     8   ar
     8     8     9   ar
     9     5     9   ar
    10     9    10    1
    11    10    11    1
    12    11    12    1
    13    12    13    1
    14    13    14   am
    15    14    15    2
    16    14    16    1
    17    16    17    1
    18    17    18    1
    19    18    19    1
    20    19    20    1
    21    16    20    1
    22    13    21    1
    23    10    21    1
    24     4    22   ar
    25    22    23   ar
    26    23    24   ar
    27     2    24   ar
    28     1    25    1
    29     1    26    1
    30     7    27    1
    31    10    28    1
    32    11    29    1
    33    11    30    1
    34    12    31    1
    35    12    32    1
    36    16    33    1
    37    17    34    1
    38    17    35    1
    39    18    36    1
    40    18    37    1
    41    19    38    1
    42    19    39    1
    43    20    40    1
    44    20    41    1
    45    21    42    1
    46    21    43    1
    47     3    44    1
    48     6    45    1
    49    22    46    1
    50    23    47    1
@<TRIPOS>MOLECULE
mol6_1_23
 47 50 0 0 0
SMALL
USER_CHARGES
****
VDW energy = -37.60
@<TRIPOS>ATOM
   1 N1        3.7120     4.1520     7.3415  N.pl3   1  <O>11      -0.3431
   2 C1        3.3329     4.3488     5.9653  C.ar    1  <O>11       0.1167
   3 C2        2.1864     5.0670     5.6766  C.ar    1  <O>11      -0.0143
   4 C3        1.8446     5.2530     4.3395  C.ar    1  <O>11      -0.0100
   5 C4        0.7410     5.9700     3.9760  C.ar    1  <O>11       0.0230
   6 C5        0.7987     7.0659     3.2194  C.ar    1  <O>11       0.0303
   7 N2       -0.5370     7.4508     3.2121  N.ar    1  <O>11      -0.2839
   8 N3       -1.3506     6.5305     3.8169  N.ar    1  <O>11      -0.1779
   9 C6       -0.5083     5.6375     4.3457  C.ar    1  <O>11       0.0751
  10 C7       -0.7826     4.4797     5.1840  C.3     1  <O>11       0.0208
  11 C8       -1.0061     3.2706     4.3396  C.3     1  <O>11      -0.0274
  12 C9       -2.4663     3.4406     3.9478  C.3     1  <O>11       0.0153
  13 N4       -3.0651     4.1383     5.0714  N.am    1  <O>11      -0.3006
  14 C10      -4.3867     4.3068     5.3415  C.2     1  <O>11       0.2187
  15 O1       -5.2285     3.8399     4.5891  O.2     1  <O>11      -0.2753
  16 C11      -4.8084     5.0619     6.5559  C.3     1  <O>11       0.0358
  17 C12      -6.2979     5.1144     6.6416  C.3     1  <O>11      -0.0419
  18 C13      -6.6685     6.3273     5.7869  C.3     1  <O>11      -0.0523
  19 C14      -5.3683     7.0857     5.5231  C.3     1  <O>11      -0.0523
  20 C15      -4.3473     6.4756     6.4729  C.3     1  <O>11      -0.0419
  21 C16      -2.0427     4.6860     5.9538  C.3     1  <O>11       0.0230
  22 C17       2.6639     4.6834     3.3579  C.ar    1  <O>11      -0.0356
  23 C18       3.8024     3.9729     3.7374  C.ar    1  <O>11       0.0302
  24 N5        4.1374     3.8086     5.0266  N.ar    1  <O>11      -0.2407
  25 H1        4.5551     3.6243     7.5678  H       1  <O>11       0.1437
  26 H2        3.1373     4.5403     8.0894  H       1  <O>11       0.1437
  27 H3       -0.8528     8.3174     2.8014  H       1  <O>11       0.1882
  28 H4        0.0540     4.3179     5.8622  H       1  <O>11       0.0380
  29 H5       -0.3556     3.2708     3.4638  H       1  <O>11       0.0287
  30 H6       -0.8493     2.3545     4.9074  H       1  <O>11       0.0287
  31 H7       -2.5548     4.0302     3.0362  H       1  <O>11       0.0465
  32 H8       -2.9399     2.4694     3.8008  H       1  <O>11       0.0465
  33 H9       -4.3957     4.5808     7.4440  H       1  <O>11       0.0394
  34 H10      -6.7439     4.2057     6.2388  H       1  <O>11       0.0272
  35 H11      -6.6238     5.2538     7.6732  H       1  <O>11       0.0272
  36 H12      -7.1140     6.0033     4.8457  H       1  <O>11       0.0265
  37 H13      -7.3735     6.9653     6.3222  H       1  <O>11       0.0265
  38 H14      -5.0534     6.9507     4.4883  H       1  <O>11       0.0265
  39 H15      -5.4966     8.1466     5.7292  H       1  <O>11       0.0265
  40 H16      -3.3392     6.5423     6.0648  H       1  <O>11       0.0272
  41 H17      -4.3773     6.9607     7.4493  H       1  <O>11       0.0272
  42 H18      -2.2162     5.7452     6.1428  H       1  <O>11       0.0471
  43 H19      -2.0152     4.1470     6.8999  H       1  <O>11       0.0471
  44 H20       1.5999     5.4547     6.4321  H       1  <O>11       0.0658
  45 H21       1.6124     7.5077     2.7638  H       1  <O>11       0.0830
  46 H22       2.4268     4.7886     2.3590  H       1  <O>11       0.0639
  47 H23       4.4041     3.5620     3.0065  H       1  <O>11       0.0830
@<TRIPOS>BOND
     1     1     2    1
     2     2     3   ar
     3     3     4   ar
     4     4     5    1
     5     5     6   ar
     6     6     7   ar
     7     7     8   ar
     8     8     9   ar
     9     5     9   ar
    10     9    10    1
    11    10    11    1
    12    11    12    1
    13    12    13    1
    14    13    14   am
    15    14    15    2
    16    14    16    1
    17    16    17    1
    18    17    18    1
    19    18    19    1
    20    19    20    1
    21    16    20    1
    22    13    21    1
    23    10    21    1
    24     4    22   ar
    25    22    23   ar
    26    23    24   ar
    27     2    24   ar
    28     1    25    1
    29     1    26    1
    30     7    27    1
    31    10    28    1
    32    11    29    1
    33    11    30    1
    34    12    31    1
    35    12    32    1
    36    16    33    1
    37    17    34    1
    38    17    35    1
    39    18    36    1
    40    18    37    1
    41    19    38    1
    42    19    39    1
    43    20    40    1
    44    20    41    1
    45    21    42    1
    46    21    43    1
    47     3    44    1
    48     6    45    1
    49    22    46    1
    50    23    47    1
@<TRIPOS>MOLECULE
mol6_1_24
 47 50 0 0 0
SMALL
USER_CHARGES
****
VDW energy = -35.90
@<TRIPOS>ATOM
   1 N1        3.7120     4.1520     7.3415  N.pl3   1  <O>11      -0.3431
   2 C1        3.3329     4.3488     5.9653  C.ar    1  <O>11       0.1167
   3 C2        2.1864     5.0670     5.6766  C.ar    1  <O>11      -0.0143
   4 C3        1.8446     5.2530     4.3395  C.ar    1  <O>11      -0.0100
   5 C4        0.7410     5.9700     3.9760  C.ar    1  <O>11       0.0230
   6 C5        0.7987     7.0659     3.2194  C.ar    1  <O>11       0.0303
   7 N2       -0.5370     7.4508     3.2121  N.ar    1  <O>11      -0.2839
   8 N3       -1.3506     6.5305     3.8169  N.ar    1  <O>11      -0.1779
   9 C6       -0.5083     5.6375     4.3457  C.ar    1  <O>11       0.0751
  10 C7       -0.7826     4.4797     5.1840  C.3     1  <O>11       0.0208
  11 C8       -1.0061     3.2706     4.3396  C.3     1  <O>11      -0.0274
  12 C9       -2.4663     3.4406     3.9478  C.3     1  <O>11       0.0153
  13 N4       -3.0651     4.1383     5.0714  N.am    1  <O>11      -0.3006
  14 C10      -4.3867     4.3068     5.3415  C.2     1  <O>11       0.2187
  15 O1       -4.7328     4.9246     6.3373  O.2     1  <O>11      -0.2753
  16 C11      -5.4134     3.7373     4.4228  C.3     1  <O>11       0.0358
  17 C12      -5.0567     4.0292     3.0029  C.3     1  <O>11      -0.0419
  18 C13      -5.6436     5.4203     2.7594  C.3     1  <O>11      -0.0523
  19 C14      -6.5716     5.7120     3.9379  C.3     1  <O>11      -0.0523
  20 C15      -6.7350     4.3820     4.6597  C.3     1  <O>11      -0.0419
  21 C16      -2.0427     4.6860     5.9538  C.3     1  <O>11       0.0230
  22 C17       2.6639     4.6834     3.3579  C.ar    1  <O>11      -0.0356
  23 C18       3.8024     3.9729     3.7374  C.ar    1  <O>11       0.0302
  24 N5        4.1374     3.8086     5.0266  N.ar    1  <O>11      -0.2407
  25 H1        4.5551     3.6243     7.5678  H       1  <O>11       0.1437
  26 H2        3.1373     4.5403     8.0894  H       1  <O>11       0.1437
  27 H3       -0.8528     8.3174     2.8014  H       1  <O>11       0.1882
  28 H4        0.0540     4.3179     5.8622  H       1  <O>11       0.0380
  29 H5       -0.3556     3.2708     3.4638  H       1  <O>11       0.0287
  30 H6       -0.8493     2.3545     4.9074  H       1  <O>11       0.0287
  31 H7       -2.5548     4.0302     3.0362  H       1  <O>11       0.0465
  32 H8       -2.9399     2.4694     3.8008  H       1  <O>11       0.0465
  33 H9       -5.4842     2.6601     4.5808  H       1  <O>11       0.0394
  34 H10      -3.9759     4.0352     2.8658  H       1  <O>11       0.0272
  35 H11      -5.5050     3.2968     2.3304  H       1  <O>11       0.0272
  36 H12      -4.8464     6.1631     2.7139  H       1  <O>11       0.0265
  37 H13      -6.2072     5.4341     1.8251  H       1  <O>11       0.0265
  38 H14      -6.1224     6.4518     4.6007  H       1  <O>11       0.0265
  39 H15      -7.5343     6.0765     3.5846  H       1  <O>11       0.0265
  40 H16      -6.9209     4.5300     5.7231  H       1  <O>11       0.0272
  41 H17      -7.5460     3.7950     4.2269  H       1  <O>11       0.0272
  42 H18      -2.2162     5.7452     6.1428  H       1  <O>11       0.0471
  43 H19      -2.0152     4.1470     6.8999  H       1  <O>11       0.0471
  44 H20       1.5999     5.4547     6.4321  H       1  <O>11       0.0658
  45 H21       1.6124     7.5077     2.7638  H       1  <O>11       0.0830
  46 H22       2.4268     4.7886     2.3590  H       1  <O>11       0.0639
  47 H23       4.4041     3.5620     3.0065  H       1  <O>11       0.0830
@<TRIPOS>BOND
     1     1     2    1
     2     2     3   ar
     3     3     4   ar
     4     4     5    1
     5     5     6   ar
     6     6     7   ar
     7     7     8   ar
     8     8     9   ar
     9     5     9   ar
    10     9    10    1
    11    10    11    1
    12    11    12    1
    13    12    13    1
    14    13    14   am
    15    14    15    2
    16    14    16    1
    17    16    17    1
    18    17    18    1
    19    18    19    1
    20    19    20    1
    21    16    20    1
    22    13    21    1
    23    10    21    1
    24     4    22   ar
    25    22    23   ar
    26    23    24   ar
    27     2    24   ar
    28     1    25    1
    29     1    26    1
    30     7    27    1
    31    10    28    1
    32    11    29    1
    33    11    30    1
    34    12    31    1
    35    12    32    1
    36    16    33    1
    37    17    34    1
    38    17    35    1
    39    18    36    1
    40    18    37    1
    41    19    38    1
    42    19    39    1
    43    20    40    1
    44    20    41    1
    45    21    42    1
    46    21    43    1
    47     3    44    1
    48     6    45    1
    49    22    46    1
    50    23    47    1
@<TRIPOS>MOLECULE
mol6_1_25
 47 50 0 0 0
SMALL
USER_CHARGES
****
VDW energy = -35.42
@<TRIPOS>ATOM
   1 N1        3.7120     4.1520     7.3415  N.pl3   1  <O>11      -0.3431
   2 C1        3.3329     4.3488     5.9653  C.ar    1  <O>11       0.1167
   3 C2        2.1864     5.0670     5.6766  C.ar    1  <O>11      -0.0143
   4 C3        1.8446     5.2530     4.3395  C.ar    1  <O>11      -0.0100
   5 C4        0.7410     5.9700     3.9760  C.ar    1  <O>11       0.0230
   6 C5       -0.2647     5.4544     3.2693  C.ar    1  <O>11       0.0303
   7 N2       -1.0679     6.5760     3.0983  N.ar    1  <O>11      -0.2839
   8 N3       -0.6144     7.6576     3.8048  N.ar    1  <O>11      -0.1779
   9 C6        0.5638     7.2635     4.2978  C.ar    1  <O>11       0.0751
  10 C7        1.5542     8.0123     5.0573  C.3     1  <O>11       0.0208
  11 C8        1.0942     9.4159     5.2653  C.3     1  <O>11      -0.0274
  12 C9        1.4903    10.0628     3.9465  C.3     1  <O>11       0.0153
  13 N4        2.6701     9.3308     3.5226  N.am    1  <O>11      -0.3006
  14 C10       3.5580     9.6686     2.5502  C.2     1  <O>11       0.2187
  15 O1        3.4052    10.7012     1.9152  O.2     1  <O>11      -0.2753
  16 C11       4.7180     8.7785     2.2586  C.3     1  <O>11       0.0358
  17 C12       5.5488     9.3538     1.1599  C.3     1  <O>11      -0.0419
  18 C13       4.8693     8.8470    -0.1131  C.3     1  <O>11      -0.0523
  19 C14       3.8886     7.7590     0.3224  C.3     1  <O>11      -0.0523
  20 C15       4.2442     7.4535     1.7705  C.3     1  <O>11      -0.0419
  21 C16       2.8308     8.1039     4.2925  C.3     1  <O>11       0.0230
  22 C17       2.6639     4.6834     3.3579  C.ar    1  <O>11      -0.0356
  23 C18       3.8024     3.9729     3.7374  C.ar    1  <O>11       0.0302
  24 N5        4.1374     3.8086     5.0266  N.ar    1  <O>11      -0.2407
  25 H1        4.5551     3.6243     7.5678  H       1  <O>11       0.1437
  26 H2        3.1373     4.5403     8.0894  H       1  <O>11       0.1437
  27 H3       -1.8908     6.5737     2.5133  H       1  <O>11       0.1882
  28 H4        1.7206     7.5230     6.0159  H       1  <O>11       0.0380
  29 H5        0.0159     9.4620     5.4240  H       1  <O>11       0.0287
  30 H6        1.6048     9.8811     6.1073  H       1  <O>11       0.0287
  31 H7        0.6910     9.9641     3.2131  H       1  <O>11       0.0465
  32 H8        1.7233    11.1183     4.0914  H       1  <O>11       0.0465
  33 H9        5.3179     8.6566     3.1617  H       1  <O>11       0.0394
  34 H10       5.5423    10.4427     1.1954  H       1  <O>11       0.0272
  35 H11       6.5767     8.9937     1.2196  H       1  <O>11       0.0272
  36 H12       4.3358     9.6609    -0.6053  H       1  <O>11       0.0265
  37 H13       5.6110     8.4322    -0.7974  H       1  <O>11       0.0265
  38 H14       2.8631     8.1216     0.2510  H       1  <O>11       0.0265
  39 H15       4.0047     6.8708    -0.2957  H       1  <O>11       0.0265
  40 H16       3.3722     7.1125     2.3277  H       1  <O>11       0.0272
  41 H17       5.0326     6.7025     1.8334  H       1  <O>11       0.0272
  42 H18       2.9552     7.2435     3.6353  H       1  <O>11       0.0471
  43 H19       3.6848     8.1749     4.9649  H       1  <O>11       0.0471
  44 H20       1.5999     5.4547     6.4321  H       1  <O>11       0.0658
  45 H21      -0.4079     4.4871     2.9393  H       1  <O>11       0.0830
  46 H22       2.4268     4.7886     2.3590  H       1  <O>11       0.0639
  47 H23       4.4041     3.5620     3.0065  H       1  <O>11       0.0830
@<TRIPOS>BOND
     1     1     2    1
     2     2     3   ar
     3     3     4   ar
     4     4     5    1
     5     5     6   ar
     6     6     7   ar
     7     7     8   ar
     8     8     9   ar
     9     5     9   ar
    10     9    10    1
    11    10    11    1
    12    11    12    1
    13    12    13    1
    14    13    14   am
    15    14    15    2
    16    14    16    1
    17    16    17    1
    18    17    18    1
    19    18    19    1
    20    19    20    1
    21    16    20    1
    22    13    21    1
    23    10    21    1
    24     4    22   ar
    25    22    23   ar
    26    23    24   ar
    27     2    24   ar
    28     1    25    1
    29     1    26    1
    30     7    27    1
    31    10    28    1
    32    11    29    1
    33    11    30    1
    34    12    31    1
    35    12    32    1
    36    16    33    1
    37    17    34    1
    38    17    35    1
    39    18    36    1
    40    18    37    1
    41    19    38    1
    42    19    39    1
    43    20    40    1
    44    20    41    1
    45    21    42    1
    46    21    43    1
    47     3    44    1
    48     6    45    1
    49    22    46    1
    50    23    47    1
@<TRIPOS>MOLECULE
mol6_1_26
 47 50 0 0 0
SMALL
USER_CHARGES
****
VDW energy = -33.29
@<TRIPOS>ATOM
   1 N1        3.7120     4.1520     7.3415  N.pl3   1  <O>11      -0.3431
   2 C1        3.3329     4.3488     5.9653  C.ar    1  <O>11       0.1167
   3 C2        2.1864     5.0670     5.6766  C.ar    1  <O>11      -0.0143
   4 C3        1.8446     5.2530     4.3395  C.ar    1  <O>11      -0.0100
   5 C4        0.7410     5.9700     3.9760  C.ar    1  <O>11       0.0230
   6 C5       -0.2647     5.4544     3.2693  C.ar    1  <O>11       0.0303
   7 N2       -1.0679     6.5760     3.0983  N.ar    1  <O>11      -0.2839
   8 N3       -0.6144     7.6576     3.8048  N.ar    1  <O>11      -0.1779
   9 C6        0.5638     7.2635     4.2978  C.ar    1  <O>11       0.0751
  10 C7        1.5542     8.0123     5.0573  C.3     1  <O>11       0.0208
  11 C8        1.0942     9.4159     5.2653  C.3     1  <O>11      -0.0274
  12 C9        1.4903    10.0628     3.9465  C.3     1  <O>11       0.0153
  13 N4        2.6701     9.3308     3.5226  N.am    1  <O>11      -0.3006
  14 C10       3.5580     9.6686     2.5502  C.2     1  <O>11       0.2187
  15 O1        4.5090     8.9396     2.3112  O.2     1  <O>11      -0.2753
  16 C11       3.3713    10.9289     1.7760  C.3     1  <O>11       0.0358
  17 C12       1.9466    11.0705     1.3531  C.3     1  <O>11      -0.0419
  18 C13       1.8762    10.2829     0.0440  C.3     1  <O>11      -0.0523
  19 C14       3.3197    10.0054    -0.3736  C.3     1  <O>11      -0.0523
  20 C15       4.1745    10.8905     0.5223  C.3     1  <O>11      -0.0419
  21 C16       2.8308     8.1039     4.2925  C.3     1  <O>11       0.0230
  22 C17       2.6639     4.6834     3.3579  C.ar    1  <O>11      -0.0356
  23 C18       3.8024     3.9729     3.7374  C.ar    1  <O>11       0.0302
  24 N5        4.1374     3.8086     5.0266  N.ar    1  <O>11      -0.2407
  25 H1        4.5551     3.6243     7.5678  H       1  <O>11       0.1437
  26 H2        3.1373     4.5403     8.0894  H       1  <O>11       0.1437
  27 H3       -1.8908     6.5737     2.5133  H       1  <O>11       0.1882
  28 H4        1.7206     7.5230     6.0159  H       1  <O>11       0.0380
  29 H5        0.0159     9.4620     5.4240  H       1  <O>11       0.0287
  30 H6        1.6048     9.8811     6.1073  H       1  <O>11       0.0287
  31 H7        0.6910     9.9641     3.2131  H       1  <O>11       0.0465
  32 H8        1.7233    11.1183     4.0914  H       1  <O>11       0.0465
  33 H9        3.6694    11.7798     2.3904  H       1  <O>11       0.0394
  34 H10       1.2747    10.6452     2.0978  H       1  <O>11       0.0272
  35 H11       1.6917    12.1183     1.1887  H       1  <O>11       0.0272
  36 H12       1.3405     9.3453     0.1965  H       1  <O>11       0.0265
  37 H13       1.3695    10.8705    -0.7233  H       1  <O>11       0.0265
  38 H14       3.5651     8.9551    -0.2163  H       1  <O>11       0.0265
  39 H15       3.4702    10.2617    -1.4205  H       1  <O>11       0.0265
  40 H16       5.1564    10.4494     0.6920  H       1  <O>11       0.0272
  41 H17       4.2923    11.8874     0.0959  H       1  <O>11       0.0272
  42 H18       2.9552     7.2435     3.6353  H       1  <O>11       0.0471
  43 H19       3.6848     8.1749     4.9649  H       1  <O>11       0.0471
  44 H20       1.5999     5.4547     6.4321  H       1  <O>11       0.0658
  45 H21      -0.4079     4.4871     2.9393  H       1  <O>11       0.0830
  46 H22       2.4268     4.7886     2.3590  H       1  <O>11       0.0639
  47 H23       4.4041     3.5620     3.0065  H       1  <O>11       0.0830
@<TRIPOS>BOND
     1     1     2    1
     2     2     3   ar
     3     3     4   ar
     4     4     5    1
     5     5     6   ar
     6     6     7   ar
     7     7     8   ar
     8     8     9   ar
     9     5     9   ar
    10     9    10    1
    11    10    11    1
    12    11    12    1
    13    12    13    1
    14    13    14   am
    15    14    15    2
    16    14    16    1
    17    16    17    1
    18    17    18    1
    19    18    19    1
    20    19    20    1
    21    16    20    1
    22    13    21    1
    23    10    21    1
    24     4    22   ar
    25    22    23   ar
    26    23    24   ar
    27     2    24   ar
    28     1    25    1
    29     1    26    1
    30     7    27    1
    31    10    28    1
    32    11    29    1
    33    11    30    1
    34    12    31    1
    35    12    32    1
    36    16    33    1
    37    17    34    1
    38    17    35    1
    39    18    36    1
    40    18    37    1
    41    19    38    1
    42    19    39    1
    43    20    40    1
    44    20    41    1
    45    21    42    1
    46    21    43    1
    47     3    44    1
    48     6    45    1
    49    22    46    1
    50    23    47    1
@<TRIPOS>MOLECULE
mol6_1_27
 47 50 0 0 0
SMALL
USER_CHARGES
****
VDW energy = -32.17
@<TRIPOS>ATOM
   1 N1        3.7120     4.1520     7.3415  N.pl3   1  <O>11      -0.3431
   2 C1        3.3329     4.3488     5.9653  C.ar    1  <O>11       0.1167
   3 C2        2.1864     5.0670     5.6766  C.ar    1  <O>11      -0.0143
   4 C3        1.8446     5.2530     4.3395  C.ar    1  <O>11      -0.0100
   5 C4        0.7410     5.9700     3.9760  C.ar    1  <O>11       0.0230
   6 C5       -0.2647     5.4544     3.2693  C.ar    1  <O>11       0.0303
   7 N2       -1.0679     6.5760     3.0983  N.ar    1  <O>11      -0.2839
   8 N3       -0.6144     7.6576     3.8048  N.ar    1  <O>11      -0.1779
   9 C6        0.5638     7.2635     4.2978  C.ar    1  <O>11       0.0751
  10 C7        1.5542     8.0123     5.0573  C.3     1  <O>11       0.0208
  11 C8        1.2815     7.8965     6.5192  C.3     1  <O>11      -0.0274
  12 C9        0.2069     8.9561     6.7115  C.3     1  <O>11       0.0153
  13 N4        0.5097     9.9661     5.7135  N.am    1  <O>11      -0.3006
  14 C10       0.0169    11.2302     5.6282  C.2     1  <O>11       0.2187
  15 O1       -0.7826    11.6317     6.4604  O.2     1  <O>11      -0.2753
  16 C11       0.4521    12.1262     4.5190  C.3     1  <O>11       0.0358
  17 C12      -0.2176    13.4554     4.6340  C.3     1  <O>11      -0.0419
  18 C13      -1.5527    13.2530     3.9161  C.3     1  <O>11      -0.0523
  19 C14      -1.4417    11.9307     3.1583  C.3     1  <O>11      -0.0523
  20 C15       0.0347    11.5635     3.2046  C.3     1  <O>11      -0.0419
  21 C16       1.4641     9.4648     4.7329  C.3     1  <O>11       0.0230
  22 C17       2.6639     4.6834     3.3579  C.ar    1  <O>11      -0.0356
  23 C18       3.8024     3.9729     3.7374  C.ar    1  <O>11       0.0302
  24 N5        4.1374     3.8086     5.0266  N.ar    1  <O>11      -0.2407
  25 H1        4.5551     3.6243     7.5678  H       1  <O>11       0.1437
  26 H2        3.1373     4.5403     8.0894  H       1  <O>11       0.1437
  27 H3       -1.8908     6.5737     2.5133  H       1  <O>11       0.1882
  28 H4        2.5489     7.6332     4.8271  H       1  <O>11       0.0380
  29 H5        0.9126     6.9030     6.7779  H       1  <O>11       0.0287
  30 H6        2.1703     8.1180     7.1083  H       1  <O>11       0.0287
  31 H7       -0.7840     8.5351     6.5457  H       1  <O>11       0.0465
  32 H8        0.2597     9.3787     7.7154  H       1  <O>11       0.0465
  33 H9        1.5362    12.2452     4.5525  H       1  <O>11       0.0394
  34 H10      -0.3758    13.7232     5.6781  H       1  <O>11       0.0272
  35 H11       0.3715    14.2318     4.1442  H       1  <O>11       0.0272
  36 H12      -2.3668    13.2059     4.6402  H       1  <O>11       0.0265
  37 H13      -1.7339    14.0719     3.2180  H       1  <O>11       0.0265
  38 H14      -2.0403    11.1618     3.6470  H       1  <O>11       0.0265
  39 H15      -1.7739    12.0514     2.1290  H       1  <O>11       0.0265
  40 H16       0.1742    10.4833     3.1716  H       1  <O>11       0.0272
  41 H17       0.5826    12.0263     2.3829  H       1  <O>11       0.0272
  42 H18       1.0977     9.6164     3.7178  H       1  <O>11       0.0471
  43 H19       2.4319     9.9513     4.8471  H       1  <O>11       0.0471
  44 H20       1.5999     5.4547     6.4321  H       1  <O>11       0.0658
  45 H21      -0.4079     4.4871     2.9393  H       1  <O>11       0.0830
  46 H22       2.4268     4.7886     2.3590  H       1  <O>11       0.0639
  47 H23       4.4041     3.5620     3.0065  H       1  <O>11       0.0830
@<TRIPOS>BOND
     1     1     2    1
     2     2     3   ar
     3     3     4   ar
     4     4     5    1
     5     5     6   ar
     6     6     7   ar
     7     7     8   ar
     8     8     9   ar
     9     5     9   ar
    10     9    10    1
    11    10    11    1
    12    11    12    1
    13    12    13    1
    14    13    14   am
    15    14    15    2
    16    14    16    1
    17    16    17    1
    18    17    18    1
    19    18    19    1
    20    19    20    1
    21    16    20    1
    22    13    21    1
    23    10    21    1
    24     4    22   ar
    25    22    23   ar
    26    23    24   ar
    27     2    24   ar
    28     1    25    1
    29     1    26    1
    30     7    27    1
    31    10    28    1
    32    11    29    1
    33    11    30    1
    34    12    31    1
    35    12    32    1
    36    16    33    1
    37    17    34    1
    38    17    35    1
    39    18    36    1
    40    18    37    1
    41    19    38    1
    42    19    39    1
    43    20    40    1
    44    20    41    1
    45    21    42    1
    46    21    43    1
    47     3    44    1
    48     6    45    1
    49    22    46    1
    50    23    47    1
@<TRIPOS>MOLECULE
mol6_1_28
 47 50 0 0 0
SMALL
USER_CHARGES
****
VDW energy = -30.31
@<TRIPOS>ATOM
   1 N1        3.7120     4.1520     7.3415  N.pl3   1  <O>11      -0.3431
   2 C1        3.3329     4.3488     5.9653  C.ar    1  <O>11       0.1167
   3 C2        2.1864     5.0670     5.6766  C.ar    1  <O>11      -0.0143
   4 C3        1.8446     5.2530     4.3395  C.ar    1  <O>11      -0.0100
   5 C4        0.7410     5.9700     3.9760  C.ar    1  <O>11       0.0230
   6 C5       -0.2647     5.4544     3.2693  C.ar    1  <O>11       0.0303
   7 N2       -1.0679     6.5760     3.0983  N.ar    1  <O>11      -0.2839
   8 N3       -0.6144     7.6576     3.8048  N.ar    1  <O>11      -0.1779
   9 C6        0.5638     7.2635     4.2978  C.ar    1  <O>11       0.0751
  10 C7        1.5542     8.0123     5.0573  C.3     1  <O>11       0.0208
  11 C8        1.2815     7.8965     6.5192  C.3     1  <O>11      -0.0274
  12 C9        0.2069     8.9561     6.7115  C.3     1  <O>11       0.0153
  13 N4        0.5097     9.9661     5.7135  N.am    1  <O>11      -0.3006
  14 C10       0.0169    11.2302     5.6282  C.2     1  <O>11       0.2187
  15 O1        0.3742    11.9652     4.7199  O.2     1  <O>11      -0.2753
  16 C11      -0.9590    11.7194     6.6436  C.3     1  <O>11       0.0358
  17 C12      -2.0104    10.6886     6.8899  C.3     1  <O>11      -0.0419
  18 C13      -3.0465    10.9581     5.7977  C.3     1  <O>11      -0.0523
  19 C14      -2.6940    12.3156     5.1909  C.3     1  <O>11      -0.0523
  20 C15      -1.6710    12.9260     6.1383  C.3     1  <O>11      -0.0419
  21 C16       1.4641     9.4648     4.7329  C.3     1  <O>11       0.0230
  22 C17       2.6639     4.6834     3.3579  C.ar    1  <O>11      -0.0356
  23 C18       3.8024     3.9729     3.7374  C.ar    1  <O>11       0.0302
  24 N5        4.1374     3.8086     5.0266  N.ar    1  <O>11      -0.2407
  25 H1        4.5551     3.6243     7.5678  H       1  <O>11       0.1437
  26 H2        3.1373     4.5403     8.0894  H       1  <O>11       0.1437
  27 H3       -1.8908     6.5737     2.5133  H       1  <O>11       0.1882
  28 H4        2.5489     7.6332     4.8271  H       1  <O>11       0.0380
  29 H5        0.9126     6.9030     6.7779  H       1  <O>11       0.0287
  30 H6        2.1703     8.1180     7.1083  H       1  <O>11       0.0287
  31 H7       -0.7840     8.5351     6.5457  H       1  <O>11       0.0465
  32 H8        0.2597     9.3787     7.7154  H       1  <O>11       0.0465
  33 H9       -0.4326    11.9512     7.5707  H       1  <O>11       0.0394
  34 H10      -1.6007     9.6836     6.7958  H       1  <O>11       0.0272
  35 H11      -2.4511    10.8110     7.8802  H       1  <O>11       0.0272
  36 H12      -3.0009    10.1803     5.0347  H       1  <O>11       0.0265
  37 H13      -4.0491    10.9877     6.2274  H       1  <O>11       0.0265
  38 H14      -2.2635    12.1871     4.1977  H       1  <O>11       0.0265
  39 H15      -3.5789    12.9458     5.1254  H       1  <O>11       0.0265
  40 H16      -0.9935    13.5958     5.6095  H       1  <O>11       0.0272
  41 H17      -2.1584    13.4679     6.9497  H       1  <O>11       0.0272
  42 H18       1.0977     9.6164     3.7178  H       1  <O>11       0.0471
  43 H19       2.4319     9.9513     4.8471  H       1  <O>11       0.0471
  44 H20       1.5999     5.4547     6.4321  H       1  <O>11       0.0658
  45 H21      -0.4079     4.4871     2.9393  H       1  <O>11       0.0830
  46 H22       2.4268     4.7886     2.3590  H       1  <O>11       0.0639
  47 H23       4.4041     3.5620     3.0065  H       1  <O>11       0.0830
@<TRIPOS>BOND
     1     1     2    1
     2     2     3   ar
     3     3     4   ar
     4     4     5    1
     5     5     6   ar
     6     6     7   ar
     7     7     8   ar
     8     8     9   ar
     9     5     9   ar
    10     9    10    1
    11    10    11    1
    12    11    12    1
    13    12    13    1
    14    13    14   am
    15    14    15    2
    16    14    16    1
    17    16    17    1
    18    17    18    1
    19    18    19    1
    20    19    20    1
    21    16    20    1
    22    13    21    1
    23    10    21    1
    24     4    22   ar
    25    22    23   ar
    26    23    24   ar
    27     2    24   ar
    28     1    25    1
    29     1    26    1
    30     7    27    1
    31    10    28    1
    32    11    29    1
    33    11    30    1
    34    12    31    1
    35    12    32    1
    36    16    33    1
    37    17    34    1
    38    17    35    1
    39    18    36    1
    40    18    37    1
    41    19    38    1
    42    19    39    1
    43    20    40    1
    44    20    41    1
    45    21    42    1
    46    21    43    1
    47     3    44    1
    48     6    45    1
    49    22    46    1
    50    23    47    1
@<TRIPOS>MOLECULE
mol6_1_29
 47 50 0 0 0
SMALL
USER_CHARGES
****
VDW energy = -27.57
@<TRIPOS>ATOM
   1 N1        3.7120     4.1520     7.3415  N.pl3   1  <O>11      -0.3431
   2 C1        3.3329     4.3488     5.9653  C.ar    1  <O>11       0.1167
   3 C2        2.1864     5.0670     5.6766  C.ar    1  <O>11      -0.0143
   4 C3        1.8446     5.2530     4.3395  C.ar    1  <O>11      -0.0100
   5 C4        0.7410     5.9700     3.9760  C.ar    1  <O>11       0.0230
   6 C5        0.7647     7.2839     3.7528  C.ar    1  <O>11       0.0303
   7 N2       -0.5804     7.5327     3.5055  N.ar    1  <O>11      -0.2839
   8 N3       -1.3228     6.3839     3.4432  N.ar    1  <O>11      -0.1779
   9 C6       -0.4735     5.4182     3.8075  C.ar    1  <O>11       0.0751
  10 C7       -0.7111     3.9973     4.0153  C.3     1  <O>11       0.0208
  11 C8       -2.1432     3.6689     3.7582  C.3     1  <O>11      -0.0274
  12 C9       -2.7852     4.0576     5.0816  C.3     1  <O>11       0.0153
  13 N4       -1.7501     3.8193     6.0714  N.am    1  <O>11      -0.3006
  14 C10      -1.8843     3.7622     7.4229  C.2     1  <O>11       0.2187
  15 O1       -0.9072     3.5507     8.1255  O.2     1  <O>11      -0.2753
  16 C11      -3.2239     3.9572     8.0476  C.3     1  <O>11       0.0358
  17 C12      -3.9168     5.1274     7.4320  C.3     1  <O>11      -0.0419
  18 C13      -3.3949     6.3213     8.2329  C.3     1  <O>11      -0.0523
  19 C14      -2.6865     5.7453     9.4583  C.3     1  <O>11      -0.0523
  20 C15      -3.0789     4.2751     9.4954  C.3     1  <O>11      -0.0419
  21 C16      -0.4513     3.6325     5.4373  C.3     1  <O>11       0.0230
  22 C17       2.6639     4.6834     3.3579  C.ar    1  <O>11      -0.0356
  23 C18       3.8024     3.9729     3.7374  C.ar    1  <O>11       0.0302
  24 N5        4.1374     3.8086     5.0266  N.ar    1  <O>11      -0.2407
  25 H1        4.5551     3.6243     7.5678  H       1  <O>11       0.1437
  26 H2        3.1373     4.5403     8.0894  H       1  <O>11       0.1437
  27 H3       -0.9502     8.4649     3.3879  H       1  <O>11       0.1882
  28 H4       -0.0664     3.4221     3.3523  H       1  <O>11       0.0380
  29 H5       -2.5446     4.2577     2.9322  H       1  <O>11       0.0287
  30 H6       -2.2762     2.6090     3.5461  H       1  <O>11       0.0287
  31 H7       -3.0781     5.1067     5.0748  H       1  <O>11       0.0465
  32 H8       -3.6592     3.4368     5.2812  H       1  <O>11       0.0465
  33 H9       -3.8205     3.0531     7.9166  H       1  <O>11       0.0394
  34 H10      -3.6571     5.2244     6.3784  H       1  <O>11       0.0272
  35 H11      -4.9990     5.0366     7.5334  H       1  <O>11       0.0272
  36 H12      -2.6955     6.9023     7.6309  H       1  <O>11       0.0265
  37 H13      -4.2241     6.9589     8.5436  H       1  <O>11       0.0265
  38 H14      -1.6062     5.8481     9.3553  H       1  <O>11       0.0265
  39 H15      -3.0159     6.2523    10.3632  H       1  <O>11       0.0265
  40 H16      -2.3006     3.6703     9.9598  H       1  <O>11       0.0272
  41 H17      -4.0189     4.1308    10.0293  H       1  <O>11       0.0272
  42 H18       0.2973     4.2900     5.8789  H       1  <O>11       0.0471
  43 H19      -0.1220     2.5976     5.5213  H       1  <O>11       0.0471
  44 H20       1.5999     5.4547     6.4321  H       1  <O>11       0.0658
  45 H21       1.5632     7.9376     3.7613  H       1  <O>11       0.0830
  46 H22       2.4268     4.7886     2.3590  H       1  <O>11       0.0639
  47 H23       4.4041     3.5620     3.0065  H       1  <O>11       0.0830
@<TRIPOS>BOND
     1     1     2    1
     2     2     3   ar
     3     3     4   ar
     4     4     5    1
     5     5     6   ar
     6     6     7   ar
     7     7     8   ar
     8     8     9   ar
     9     5     9   ar
    10     9    10    1
    11    10    11    1
    12    11    12    1
    13    12    13    1
    14    13    14   am
    15    14    15    2
    16    14    16    1
    17    16    17    1
    18    17    18    1
    19    18    19    1
    20    19    20    1
    21    16    20    1
    22    13    21    1
    23    10    21    1
    24     4    22   ar
    25    22    23   ar
    26    23    24   ar
    27     2    24   ar
    28     1    25    1
    29     1    26    1
    30     7    27    1
    31    10    28    1
    32    11    29    1
    33    11    30    1
    34    12    31    1
    35    12    32    1
    36    16    33    1
    37    17    34    1
    38    17    35    1
    39    18    36    1
    40    18    37    1
    41    19    38    1
    42    19    39    1
    43    20    40    1
    44    20    41    1
    45    21    42    1
    46    21    43    1
    47     3    44    1
    48     6    45    1
    49    22    46    1
    50    23    47    1
@<TRIPOS>MOLECULE
mol6_1_30
 47 50 0 0 0
SMALL
USER_CHARGES
****
VDW energy = -26.70
@<TRIPOS>ATOM
   1 N1        3.7120     4.1520     7.3415  N.pl3   1  <O>11      -0.3431
   2 C1        3.3329     4.3488     5.9653  C.ar    1  <O>11       0.1167
   3 C2        2.1864     5.0670     5.6766  C.ar    1  <O>11      -0.0143
   4 C3        1.8446     5.2530     4.3395  C.ar    1  <O>11      -0.0100
   5 C4        0.7410     5.9700     3.9760  C.ar    1  <O>11       0.0230
   6 C5       -0.4632     5.4231     3.8104  C.ar    1  <O>11       0.0303
   7 N2       -1.1934     6.5226     3.3741  N.ar    1  <O>11      -0.2839
   8 N3       -0.4726     7.6854     3.4293  N.ar    1  <O>11      -0.1779
   9 C6        0.7644     7.2957     3.7522  C.ar    1  <O>11       0.0751
  10 C7        1.9873     8.0764     3.8689  C.3     1  <O>11       0.0208
  11 C8        1.7162     9.5113     3.5651  C.3     1  <O>11      -0.0274
  12 C9        1.7590     9.5120     2.0443  C.3     1  <O>11       0.0153
  13 N4        2.7046     8.4634     1.7069  N.am    1  <O>11      -0.3006
  14 C10       3.2937     8.2250     0.5052  C.2     1  <O>11       0.2187
  15 O1        4.0753     7.2939     0.3819  O.2     1  <O>11      -0.2753
  16 C11       2.9862     9.1001    -0.6620  C.3     1  <O>11       0.0358
  17 C12       1.5152     9.3357    -0.7591  C.3     1  <O>11      -0.0419
  18 C13       1.0065     8.1333    -1.5557  C.3     1  <O>11      -0.0523
  19 C14       2.2402     7.4476    -2.1414  C.3     1  <O>11      -0.0523
  20 C15       3.3838     8.4296    -1.9311  C.3     1  <O>11      -0.0419
  21 C16       2.9887     7.6218     2.8623  C.3     1  <O>11       0.0230
  22 C17       2.6639     4.6834     3.3579  C.ar    1  <O>11      -0.0356
  23 C18       3.8024     3.9729     3.7374  C.ar    1  <O>11       0.0302
  24 N5        4.1374     3.8086     5.0266  N.ar    1  <O>11      -0.2407
  25 H1        4.5551     3.6243     7.5678  H       1  <O>11       0.1437
  26 H2        3.1373     4.5403     8.0894  H       1  <O>11       0.1437
  27 H3       -2.1488     6.4514     3.0553  H       1  <O>11       0.1882
  28 H4        2.3880     7.9724     4.8763  H       1  <O>11       0.0380
  29 H5        0.7378     9.8191     3.9366  H       1  <O>11       0.0287
  30 H6        2.4840    10.1589     3.9862  H       1  <O>11       0.0287
  31 H7        0.7755     9.2921     1.6307  H       1  <O>11       0.0465
  32 H8        2.1039    10.4766     1.6703  H       1  <O>11       0.0465
  33 H9        3.5143    10.0486    -0.5536  H       1  <O>11       0.0394
  34 H10       1.0591     9.3663     0.2298  H       1  <O>11       0.0272
  35 H11       1.3041    10.2668    -1.2865  H       1  <O>11       0.0272
  36 H12       0.4687     7.4472    -0.9005  H       1  <O>11       0.0265
  37 H13       0.3446     8.4644    -2.3576  H       1  <O>11       0.0265
  38 H14       2.4399     6.5131    -1.6168  H       1  <O>11       0.0265
  39 H15       2.0982     7.2469    -3.2016  H       1  <O>11       0.0265
  40 H16       4.3359     7.9102    -1.8256  H       1  <O>11       0.0272
  41 H17       3.4479     9.1431    -2.7535  H       1  <O>11       0.0272
  42 H18       2.8501     6.5679     2.6216  H       1  <O>11       0.0471
  43 H19       4.0044     7.7828     3.2213  H       1  <O>11       0.0471
  44 H20       1.5999     5.4547     6.4321  H       1  <O>11       0.0658
  45 H21      -0.7697     4.4497     3.9640  H       1  <O>11       0.0830
  46 H22       2.4268     4.7886     2.3590  H       1  <O>11       0.0639
  47 H23       4.4041     3.5620     3.0065  H       1  <O>11       0.0830
@<TRIPOS>BOND
     1     1     2    1
     2     2     3   ar
     3     3     4   ar
     4     4     5    1
     5     5     6   ar
     6     6     7   ar
     7     7     8   ar
     8     8     9   ar
     9     5     9   ar
    10     9    10    1
    11    10    11    1
    12    11    12    1
    13    12    13    1
    14    13    14   am
    15    14    15    2
    16    14    16    1
    17    16    17    1
    18    17    18    1
    19    18    19    1
    20    19    20    1
    21    16    20    1
    22    13    21    1
    23    10    21    1
    24     4    22   ar
    25    22    23   ar
    26    23    24   ar
    27     2    24   ar
    28     1    25    1
    29     1    26    1
    30     7    27    1
    31    10    28    1
    32    11    29    1
    33    11    30    1
    34    12    31    1
    35    12    32    1
    36    16    33    1
    37    17    34    1
    38    17    35    1
    39    18    36    1
    40    18    37    1
    41    19    38    1
    42    19    39    1
    43    20    40    1
    44    20    41    1
    45    21    42    1
    46    21    43    1
    47     3    44    1
    48     6    45    1
    49    22    46    1
    50    23    47    1
@<TRIPOS>MOLECULE
mol6_2_1
 47 50 0 0 0
SMALL
USER_CHARGES
****
VDW energy = -72.74
@<TRIPOS>ATOM
   1 N1        3.7120     4.1520     7.3415  N.pl3   1  <O>11      -0.3431
   2 C1        3.3329     4.3488     5.9653  C.ar    1  <O>11       0.1167
   3 C2        2.1864     5.0670     5.6766  C.ar    1  <O>11      -0.0143
   4 C3        1.8446     5.2530     4.3395  C.ar    1  <O>11      -0.0100
   5 C4        0.7410     5.9700     3.9760  C.ar    1  <O>11       0.0230
   6 C5       -0.4632     5.4231     3.8104  C.ar    1  <O>11       0.0303
   7 N2       -1.1934     6.5226     3.3741  N.ar    1  <O>11      -0.2839
   8 N3       -0.4726     7.6854     3.4293  N.ar    1  <O>11      -0.1779
   9 C6        0.7644     7.2957     3.7522  C.ar    1  <O>11       0.0751
  10 C7        1.9873     8.0764     3.8689  C.3     1  <O>11       0.0208
  11 C8        2.1444     8.5871     5.2616  C.3     1  <O>11      -0.0274
  12 C9        1.2565     9.8222     5.2330  C.3     1  <O>11       0.0153
  13 N4        1.3314    10.2920     3.8614  N.am    1  <O>11      -0.3006
  14 C10       0.9331    11.4942     3.3674  C.2     1  <O>11       0.2187
  15 O1        1.0651    11.7400     2.1778  O.2     1  <O>11      -0.2753
  16 C11       0.3357    12.5127     4.2776  C.3     1  <O>11       0.0358
  17 C12       1.4018    13.3923     4.8442  C.3     1  <O>11      -0.0419
  18 C13       0.6737    14.7022     5.1432  C.3     1  <O>11      -0.0523
  19 C14      -0.6838    14.6129     4.4461  C.3     1  <O>11      -0.0523
  20 C15      -0.5816    13.4100     3.5195  C.3     1  <O>11      -0.0419
  21 C16       1.9176     9.2800     2.9918  C.3     1  <O>11       0.0230
  22 C17       2.6639     4.6834     3.3579  C.ar    1  <O>11      -0.0356
  23 C18       3.8024     3.9729     3.7374  C.ar    1  <O>11       0.0302
  24 N5        4.1374     3.8086     5.0266  N.ar    1  <O>11      -0.2407
  25 H1        4.5551     3.6243     7.5678  H       1  <O>11       0.1437
  26 H2        3.1373     4.5403     8.0894  H       1  <O>11       0.1437
  27 H3       -2.1488     6.4514     3.0553  H       1  <O>11       0.1882
  28 H4        2.8398     7.4564     3.5952  H       1  <O>11       0.0380
  29 H5        1.7923     7.8598     5.9944  H       1  <O>11       0.0287
  30 H6        3.1805     8.8453     5.4759  H       1  <O>11       0.0287
  31 H7        0.2312     9.5663     5.4975  H       1  <O>11       0.0465
  32 H8        1.6316    10.5806     5.9210  H       1  <O>11       0.0465
  33 H9       -0.2058    12.0092     5.0808  H       1  <O>11       0.0394
  34 H10       1.8168    12.9622     5.7543  H       1  <O>11       0.0272
  35 H11       2.2006    13.5490     4.1194  H       1  <O>11       0.0272
  36 H12       0.5379    14.8199     6.2178  H       1  <O>11       0.0265
  37 H13       1.2420    15.5474     4.7528  H       1  <O>11       0.0265
  38 H14      -1.4789    14.4650     5.1765  H       1  <O>11       0.0265
  39 H15      -0.8785    15.5193     3.8738  H       1  <O>11       0.0265
  40 H16      -1.5558    12.9445     3.3658  H       1  <O>11       0.0272
  41 H17      -0.1570    13.6876     2.5547  H       1  <O>11       0.0272
  42 H18       1.2839     9.0953     2.1246  H       1  <O>11       0.0471
  43 H19       2.9108     9.5795     2.6598  H       1  <O>11       0.0471
  44 H20       1.5999     5.4547     6.4321  H       1  <O>11       0.0658
  45 H21      -0.7697     4.4497     3.9640  H       1  <O>11       0.0830
  46 H22       2.4268     4.7886     2.3590  H       1  <O>11       0.0639
  47 H23       4.4041     3.5620     3.0065  H       1  <O>11       0.0830
@<TRIPOS>BOND
     1     1     2    1
     2     2     3   ar
     3     3     4   ar
     4     4     5    1
     5     5     6   ar
     6     6     7   ar
     7     7     8   ar
     8     8     9   ar
     9     5     9   ar
    10     9    10    1
    11    10    11    1
    12    11    12    1
    13    12    13    1
    14    13    14   am
    15    14    15    2
    16    14    16    1
    17    16    17    1
    18    17    18    1
    19    18    19    1
    20    19    20    1
    21    16    20    1
    22    13    21    1
    23    10    21    1
    24     4    22   ar
    25    22    23   ar
    26    23    24   ar
    27     2    24   ar
    28     1    25    1
    29     1    26    1
    30     7    27    1
    31    10    28    1
    32    11    29    1
    33    11    30    1
    34    12    31    1
    35    12    32    1
    36    16    33    1
    37    17    34    1
    38    17    35    1
    39    18    36    1
    40    18    37    1
    41    19    38    1
    42    19    39    1
    43    20    40    1
    44    20    41    1
    45    21    42    1
    46    21    43    1
    47     3    44    1
    48     6    45    1
    49    22    46    1
    50    23    47    1
@<TRIPOS>MOLECULE
mol6_2_2
 47 50 0 0 0
SMALL
USER_CHARGES
****
VDW energy = -70.23
@<TRIPOS>ATOM
   1 N1        3.7120     4.1520     7.3415  N.pl3   1  <O>11      -0.3431
   2 C1        3.3329     4.3488     5.9653  C.ar    1  <O>11       0.1167
   3 C2        2.1864     5.0670     5.6766  C.ar    1  <O>11      -0.0143
   4 C3        1.8446     5.2530     4.3395  C.ar    1  <O>11      -0.0100
   5 C4        0.7410     5.9700     3.9760  C.ar    1  <O>11       0.0230
   6 C5       -0.4632     5.4231     3.8104  C.ar    1  <O>11       0.0303
   7 N2       -1.1934     6.5226     3.3741  N.ar    1  <O>11      -0.2839
   8 N3       -0.4726     7.6854     3.4293  N.ar    1  <O>11      -0.1779
   9 C6        0.7644     7.2957     3.7522  C.ar    1  <O>11       0.0751
  10 C7        1.9873     8.0764     3.8689  C.3     1  <O>11       0.0208
  11 C8        2.1444     8.5871     5.2616  C.3     1  <O>11      -0.0274
  12 C9        1.2565     9.8222     5.2330  C.3     1  <O>11       0.0153
  13 N4        1.3314    10.2920     3.8614  N.am    1  <O>11      -0.3006
  14 C10       0.9331    11.4942     3.3674  C.2     1  <O>11       0.2187
  15 O1        0.4438    12.3293     4.1130  O.2     1  <O>11      -0.2753
  16 C11       1.0932    11.7930     1.9156  C.3     1  <O>11       0.0358
  17 C12      -0.1257    11.3728     1.1611  C.3     1  <O>11      -0.0419
  18 C13      -0.1383    12.2966    -0.0561  C.3     1  <O>11      -0.0523
  19 C14       0.8844    13.3977     0.2243  C.3     1  <O>11      -0.0523
  20 C15       1.2267    13.2618     1.7009  C.3     1  <O>11      -0.0419
  21 C16       1.9176     9.2800     2.9918  C.3     1  <O>11       0.0230
  22 C17       2.6639     4.6834     3.3579  C.ar    1  <O>11      -0.0356
  23 C18       3.8024     3.9729     3.7374  C.ar    1  <O>11       0.0302
  24 N5        4.1374     3.8086     5.0266  N.ar    1  <O>11      -0.2407
  25 H1        4.5551     3.6243     7.5678  H       1  <O>11       0.1437
  26 H2        3.1373     4.5403     8.0894  H       1  <O>11       0.1437
  27 H3       -2.1488     6.4514     3.0553  H       1  <O>11       0.1882
  28 H4        2.8398     7.4564     3.5952  H       1  <O>11       0.0380
  29 H5        1.7923     7.8598     5.9944  H       1  <O>11       0.0287
  30 H6        3.1805     8.8453     5.4759  H       1  <O>11       0.0287
  31 H7        0.2312     9.5663     5.4975  H       1  <O>11       0.0465
  32 H8        1.6316    10.5806     5.9210  H       1  <O>11       0.0465
  33 H9        1.9733    11.2730     1.5324  H       1  <O>11       0.0394
  34 H10      -0.0531    10.3299     0.8564  H       1  <O>11       0.0272
  35 H11      -1.0225    11.5134     1.7644  H       1  <O>11       0.0272
  36 H12       0.1413    11.7425    -0.9515  H       1  <O>11       0.0265
  37 H13      -1.1301    12.7301    -0.1905  H       1  <O>11       0.0265
  38 H14       1.7747    13.2564    -0.3880  H       1  <O>11       0.0265
  39 H15       0.4542    14.3778     0.0214  H       1  <O>11       0.0265
  40 H16       2.2423    13.6026     1.9051  H       1  <O>11       0.0272
  41 H17       0.5262    13.8188     2.3232  H       1  <O>11       0.0272
  42 H18       1.2839     9.0953     2.1246  H       1  <O>11       0.0471
  43 H19       2.9108     9.5795     2.6598  H       1  <O>11       0.0471
  44 H20       1.5999     5.4547     6.4321  H       1  <O>11       0.0658
  45 H21      -0.7697     4.4497     3.9640  H       1  <O>11       0.0830
  46 H22       2.4268     4.7886     2.3590  H       1  <O>11       0.0639
  47 H23       4.4041     3.5620     3.0065  H       1  <O>11       0.0830
@<TRIPOS>BOND
     1     1     2    1
     2     2     3   ar
     3     3     4   ar
     4     4     5    1
     5     5     6   ar
     6     6     7   ar
     7     7     8   ar
     8     8     9   ar
     9     5     9   ar
    10     9    10    1
    11    10    11    1
    12    11    12    1
    13    12    13    1
    14    13    14   am
    15    14    15    2
    16    14    16    1
    17    16    17    1
    18    17    18    1
    19    18    19    1
    20    19    20    1
    21    16    20    1
    22    13    21    1
    23    10    21    1
    24     4    22   ar
    25    22    23   ar
    26    23    24   ar
    27     2    24   ar
    28     1    25    1
    29     1    26    1
    30     7    27    1
    31    10    28    1
    32    11    29    1
    33    11    30    1
    34    12    31    1
    35    12    32    1
    36    16    33    1
    37    17    34    1
    38    17    35    1
    39    18    36    1
    40    18    37    1
    41    19    38    1
    42    19    39    1
    43    20    40    1
    44    20    41    1
    45    21    42    1
    46    21    43    1
    47     3    44    1
    48     6    45    1
    49    22    46    1
    50    23    47    1
@<TRIPOS>MOLECULE
mol6_2_3
 47 50 0 0 0
SMALL
USER_CHARGES
****
VDW energy = -70.05
@<TRIPOS>ATOM
   1 N1        3.7120     4.1520     7.3415  N.pl3   1  <O>11      -0.3431
   2 C1        3.3329     4.3488     5.9653  C.ar    1  <O>11       0.1167
   3 C2        2.1864     5.0670     5.6766  C.ar    1  <O>11      -0.0143
   4 C3        1.8446     5.2530     4.3395  C.ar    1  <O>11      -0.0100
   5 C4        0.7410     5.9700     3.9760  C.ar    1  <O>11       0.0230
   6 C5        0.7647     7.2839     3.7528  C.ar    1  <O>11       0.0303
   7 N2       -0.5804     7.5327     3.5055  N.ar    1  <O>11      -0.2839
   8 N3       -1.3228     6.3839     3.4432  N.ar    1  <O>11      -0.1779
   9 C6       -0.4735     5.4182     3.8075  C.ar    1  <O>11       0.0751
  10 C7       -0.7111     3.9973     4.0153  C.3     1  <O>11       0.0208
  11 C8       -0.4971     3.2455     2.7449  C.3     1  <O>11      -0.0274
  12 C9       -1.8302     3.4534     2.0419  C.3     1  <O>11       0.0153
  13 N4       -2.7963     3.5626     3.1199  N.am    1  <O>11      -0.3006
  14 C10      -4.1517     3.4998     3.0363  C.2     1  <O>11       0.2187
  15 O1       -4.6899     3.3329     1.9522  O.2     1  <O>11      -0.2753
  16 C11      -4.9812     3.6349     4.2678  C.3     1  <O>11       0.0358
  17 C12      -5.3230     5.0689     4.5092  C.3     1  <O>11      -0.0419
  18 C13      -6.6350     5.0051     5.2901  C.3     1  <O>11      -0.0523
  19 C14      -7.1353     3.5648     5.1808  C.3     1  <O>11      -0.0523
  20 C15      -6.2795     2.9230     4.0983  C.3     1  <O>11      -0.0419
  21 C16      -2.1318     3.7620     4.4015  C.3     1  <O>11       0.0230
  22 C17       2.6639     4.6834     3.3579  C.ar    1  <O>11      -0.0356
  23 C18       3.8024     3.9729     3.7374  C.ar    1  <O>11       0.0302
  24 N5        4.1374     3.8086     5.0266  N.ar    1  <O>11      -0.2407
  25 H1        4.5551     3.6243     7.5678  H       1  <O>11       0.1437
  26 H2        3.1373     4.5403     8.0894  H       1  <O>11       0.1437
  27 H3       -0.9502     8.4649     3.3879  H       1  <O>11       0.1882
  28 H4       -0.0411     3.6282     4.7905  H       1  <O>11       0.0380
  29 H5        0.3278     3.6657     2.1677  H       1  <O>11       0.0287
  30 H6       -0.3062     2.1902     2.9346  H       1  <O>11       0.0287
  31 H7       -1.8136     4.3646     1.4451  H       1  <O>11       0.0465
  32 H8       -2.0629     2.6025     1.4008  H       1  <O>11       0.0465
  33 H9       -4.4347     3.2275     5.1205  H       1  <O>11       0.0394
  34 H10      -4.5466     5.5598     5.0939  H       1  <O>11       0.0272
  35 H11      -5.4578     5.5991     3.5666  H       1  <O>11       0.0272
  36 H12      -6.4642     5.2659     6.3341  H       1  <O>11       0.0265
  37 H13      -7.3650     5.6906     4.8579  H       1  <O>11       0.0265
  38 H14      -7.0058     3.0428     6.1286  H       1  <O>11       0.0265
  39 H15      -8.1867     3.5473     4.8957  H       1  <O>11       0.0265
  40 H16      -6.1695     1.8508     4.2642  H       1  <O>11       0.0272
  41 H17      -6.6994     3.0945     3.1072  H       1  <O>11       0.0272
  42 H18      -2.5426     4.6253     4.9247  H       1  <O>11       0.0471
  43 H19      -2.2243     2.8773     5.0302  H       1  <O>11       0.0471
  44 H20       1.5999     5.4547     6.4321  H       1  <O>11       0.0658
  45 H21       1.5632     7.9376     3.7613  H       1  <O>11       0.0830
  46 H22       2.4268     4.7886     2.3590  H       1  <O>11       0.0639
  47 H23       4.4041     3.5620     3.0065  H       1  <O>11       0.0830
@<TRIPOS>BOND
     1     1     2    1
     2     2     3   ar
     3     3     4   ar
     4     4     5    1
     5     5     6   ar
     6     6     7   ar
     7     7     8   ar
     8     8     9   ar
     9     5     9   ar
    10     9    10    1
    11    10    11    1
    12    11    12    1
    13    12    13    1
    14    13    14   am
    15    14    15    2
    16    14    16    1
    17    16    17    1
    18    17    18    1
    19    18    19    1
    20    19    20    1
    21    16    20    1
    22    13    21    1
    23    10    21    1
    24     4    22   ar
    25    22    23   ar
    26    23    24   ar
    27     2    24   ar
    28     1    25    1
    29     1    26    1
    30     7    27    1
    31    10    28    1
    32    11    29    1
    33    11    30    1
    34    12    31    1
    35    12    32    1
    36    16    33    1
    37    17    34    1
    38    17    35    1
    39    18    36    1
    40    18    37    1
    41    19    38    1
    42    19    39    1
    43    20    40    1
    44    20    41    1
    45    21    42    1
    46    21    43    1
    47     3    44    1
    48     6    45    1
    49    22    46    1
    50    23    47    1
@<TRIPOS>MOLECULE
mol6_2_4
 47 50 0 0 0
SMALL
USER_CHARGES
****
VDW energy = -64.06
@<TRIPOS>ATOM
   1 N1        3.7120     4.1520     7.3415  N.pl3   1  <O>11      -0.3431
   2 C1        3.3329     4.3488     5.9653  C.ar    1  <O>11       0.1167
   3 C2        2.1864     5.0670     5.6766  C.ar    1  <O>11      -0.0143
   4 C3        1.8446     5.2530     4.3395  C.ar    1  <O>11      -0.0100
   5 C4        0.7410     5.9700     3.9760  C.ar    1  <O>11       0.0230
   6 C5       -0.2647     5.4544     3.2693  C.ar    1  <O>11       0.0303
   7 N2       -1.0679     6.5760     3.0983  N.ar    1  <O>11      -0.2839
   8 N3       -0.6144     7.6576     3.8048  N.ar    1  <O>11      -0.1779
   9 C6        0.5638     7.2635     4.2978  C.ar    1  <O>11       0.0751
  10 C7        1.5542     8.0123     5.0573  C.3     1  <O>11       0.0208
  11 C8        1.0942     9.4159     5.2653  C.3     1  <O>11      -0.0274
  12 C9        1.4903    10.0628     3.9465  C.3     1  <O>11       0.0153
  13 N4        2.6701     9.3308     3.5226  N.am    1  <O>11      -0.3006
  14 C10       3.5580     9.6686     2.5502  C.2     1  <O>11       0.2187
  15 O1        4.5090     8.9396     2.3112  O.2     1  <O>11      -0.2753
  16 C11       3.3713    10.9289     1.7760  C.3     1  <O>11       0.0358
  17 C12       4.0753    12.0614     2.4492  C.3     1  <O>11      -0.0419
  18 C13       4.3910    13.0260     1.3068  C.3     1  <O>11      -0.0523
  19 C14       4.1373    12.2591     0.0089  C.3     1  <O>11      -0.0523
  20 C15       3.9880    10.8029     0.4251  C.3     1  <O>11      -0.0419
  21 C16       2.8308     8.1039     4.2925  C.3     1  <O>11       0.0230
  22 C17       2.6639     4.6834     3.3579  C.ar    1  <O>11      -0.0356
  23 C18       3.8024     3.9729     3.7374  C.ar    1  <O>11       0.0302
  24 N5        4.1374     3.8086     5.0266  N.ar    1  <O>11      -0.2407
  25 H1        4.5551     3.6243     7.5678  H       1  <O>11       0.1437
  26 H2        3.1373     4.5403     8.0894  H       1  <O>11       0.1437
  27 H3       -1.8908     6.5737     2.5133  H       1  <O>11       0.1882
  28 H4        1.7206     7.5230     6.0159  H       1  <O>11       0.0380
  29 H5        0.0159     9.4620     5.4240  H       1  <O>11       0.0287
  30 H6        1.6048     9.8811     6.1073  H       1  <O>11       0.0287
  31 H7        0.6910     9.9641     3.2131  H       1  <O>11       0.0465
  32 H8        1.7233    11.1183     4.0914  H       1  <O>11       0.0465
  33 H9        2.3051    11.1458     1.6865  H       1  <O>11       0.0394
  34 H10       3.4312    12.5336     3.1894  H       1  <O>11       0.0272
  35 H11       4.9905    11.7173     2.9308  H       1  <O>11       0.0272
  36 H12       3.7410    13.8988     1.3613  H       1  <O>11       0.0265
  37 H13       5.4331    13.3437     1.3583  H       1  <O>11       0.0265
  38 H14       3.2259    12.6136    -0.4720  H       1  <O>11       0.0265
  39 H15       4.9786    12.3762    -0.6733  H       1  <O>11       0.0265
  40 H16       3.3363    10.2599    -0.2603  H       1  <O>11       0.0272
  41 H17       4.9557    10.3038     0.4759  H       1  <O>11       0.0272
  42 H18       2.9552     7.2435     3.6353  H       1  <O>11       0.0471
  43 H19       3.6848     8.1749     4.9649  H       1  <O>11       0.0471
  44 H20       1.5999     5.4547     6.4321  H       1  <O>11       0.0658
  45 H21      -0.4079     4.4871     2.9393  H       1  <O>11       0.0830
  46 H22       2.4268     4.7886     2.3590  H       1  <O>11       0.0639
  47 H23       4.4041     3.5620     3.0065  H       1  <O>11       0.0830
@<TRIPOS>BOND
     1     1     2    1
     2     2     3   ar
     3     3     4   ar
     4     4     5    1
     5     5     6   ar
     6     6     7   ar
     7     7     8   ar
     8     8     9   ar
     9     5     9   ar
    10     9    10    1
    11    10    11    1
    12    11    12    1
    13    12    13    1
    14    13    14   am
    15    14    15    2
    16    14    16    1
    17    16    17    1
    18    17    18    1
    19    18    19    1
    20    19    20    1
    21    16    20    1
    22    13    21    1
    23    10    21    1
    24     4    22   ar
    25    22    23   ar
    26    23    24   ar
    27     2    24   ar
    28     1    25    1
    29     1    26    1
    30     7    27    1
    31    10    28    1
    32    11    29    1
    33    11    30    1
    34    12    31    1
    35    12    32    1
    36    16    33    1
    37    17    34    1
    38    17    35    1
    39    18    36    1
    40    18    37    1
    41    19    38    1
    42    19    39    1
    43    20    40    1
    44    20    41    1
    45    21    42    1
    46    21    43    1
    47     3    44    1
    48     6    45    1
    49    22    46    1
    50    23    47    1
@<TRIPOS>MOLECULE
mol6_2_5
 47 50 0 0 0
SMALL
USER_CHARGES
****
VDW energy = -64.03
@<TRIPOS>ATOM
   1 N1        3.7120     4.1520     7.3415  N.pl3   1  <O>11      -0.3431
   2 C1        3.3329     4.3488     5.9653  C.ar    1  <O>11       0.1167
   3 C2        2.1864     5.0670     5.6766  C.ar    1  <O>11      -0.0143
   4 C3        1.8446     5.2530     4.3395  C.ar    1  <O>11      -0.0100
   5 C4        0.7410     5.9700     3.9760  C.ar    1  <O>11       0.0230
   6 C5        0.7987     7.0659     3.2194  C.ar    1  <O>11       0.0303
   7 N2       -0.5370     7.4508     3.2121  N.ar    1  <O>11      -0.2839
   8 N3       -1.3506     6.5305     3.8169  N.ar    1  <O>11      -0.1779
   9 C6       -0.5083     5.6375     4.3457  C.ar    1  <O>11       0.0751
  10 C7       -0.7826     4.4797     5.1840  C.3     1  <O>11       0.0208
  11 C8       -1.0061     3.2706     4.3396  C.3     1  <O>11      -0.0274
  12 C9       -2.4663     3.4406     3.9478  C.3     1  <O>11       0.0153
  13 N4       -3.0651     4.1383     5.0714  N.am    1  <O>11      -0.3006
  14 C10      -4.3867     4.3068     5.3415  C.2     1  <O>11       0.2187
  15 O1       -5.2285     3.8399     4.5891  O.2     1  <O>11      -0.2753
  16 C11      -4.8084     5.0619     6.5559  C.3     1  <O>11       0.0358
  17 C12      -4.9549     6.5145     6.2398  C.3     1  <O>11      -0.0419
  18 C13      -5.9833     7.0076     7.2569  C.3     1  <O>11      -0.0523
  19 C14      -6.6018     5.7603     7.8881  C.3     1  <O>11      -0.0523
  20 C15      -6.1500     4.6005     7.0125  C.3     1  <O>11      -0.0419
  21 C16      -2.0427     4.6860     5.9538  C.3     1  <O>11       0.0230
  22 C17       2.6639     4.6834     3.3579  C.ar    1  <O>11      -0.0356
  23 C18       3.8024     3.9729     3.7374  C.ar    1  <O>11       0.0302
  24 N5        4.1374     3.8086     5.0266  N.ar    1  <O>11      -0.2407
  25 H1        4.5551     3.6243     7.5678  H       1  <O>11       0.1437
  26 H2        3.1373     4.5403     8.0894  H       1  <O>11       0.1437
  27 H3       -0.8528     8.3174     2.8014  H       1  <O>11       0.1882
  28 H4        0.0540     4.3179     5.8622  H       1  <O>11       0.0380
  29 H5       -0.3556     3.2708     3.4638  H       1  <O>11       0.0287
  30 H6       -0.8493     2.3545     4.9074  H       1  <O>11       0.0287
  31 H7       -2.5548     4.0302     3.0362  H       1  <O>11       0.0465
  32 H8       -2.9399     2.4694     3.8008  H       1  <O>11       0.0465
  33 H9       -4.0698     4.9195     7.3471  H       1  <O>11       0.0394
  34 H10      -4.0068     7.0358     6.3622  H       1  <O>11       0.0272
  35 H11      -5.3178     6.6548     5.2217  H       1  <O>11       0.0272
  36 H12      -5.4963     7.6136     8.0203  H       1  <O>11       0.0265
  37 H13      -6.7532     7.5983     6.7589  H       1  <O>11       0.0265
  38 H14      -6.2419     5.6304     8.9085  H       1  <O>11       0.0265
  39 H15      -7.6888     5.8343     7.8917  H       1  <O>11       0.0265
  40 H16      -6.0784     3.6757     7.5861  H       1  <O>11       0.0272
  41 H17      -6.8262     4.4525     6.1705  H       1  <O>11       0.0272
  42 H18      -2.2162     5.7452     6.1428  H       1  <O>11       0.0471
  43 H19      -2.0152     4.1470     6.8999  H       1  <O>11       0.0471
  44 H20       1.5999     5.4547     6.4321  H       1  <O>11       0.0658
  45 H21       1.6124     7.5077     2.7638  H       1  <O>11       0.0830
  46 H22       2.4268     4.7886     2.3590  H       1  <O>11       0.0639
  47 H23       4.4041     3.5620     3.0065  H       1  <O>11       0.0830
@<TRIPOS>BOND
     1     1     2    1
     2     2     3   ar
     3     3     4   ar
     4     4     5    1
     5     5     6   ar
     6     6     7   ar
     7     7     8   ar
     8     8     9   ar
     9     5     9   ar
    10     9    10    1
    11    10    11    1
    12    11    12    1
    13    12    13    1
    14    13    14   am
    15    14    15    2
    16    14    16    1
    17    16    17    1
    18    17    18    1
    19    18    19    1
    20    19    20    1
    21    16    20    1
    22    13    21    1
    23    10    21    1
    24     4    22   ar
    25    22    23   ar
    26    23    24   ar
    27     2    24   ar
    28     1    25    1
    29     1    26    1
    30     7    27    1
    31    10    28    1
    32    11    29    1
    33    11    30    1
    34    12    31    1
    35    12    32    1
    36    16    33    1
    37    17    34    1
    38    17    35    1
    39    18    36    1
    40    18    37    1
    41    19    38    1
    42    19    39    1
    43    20    40    1
    44    20    41    1
    45    21    42    1
    46    21    43    1
    47     3    44    1
    48     6    45    1
    49    22    46    1
    50    23    47    1
@<TRIPOS>MOLECULE
mol6_2_6
 47 50 0 0 0
SMALL
USER_CHARGES
****
VDW energy = -62.35
@<TRIPOS>ATOM
   1 N1        3.7120     4.1520     7.3415  N.pl3   1  <O>11      -0.3431
   2 C1        3.3329     4.3488     5.9653  C.ar    1  <O>11       0.1167
   3 C2        2.1864     5.0670     5.6766  C.ar    1  <O>11      -0.0143
   4 C3        1.8446     5.2530     4.3395  C.ar    1  <O>11      -0.0100
   5 C4        0.7410     5.9700     3.9760  C.ar    1  <O>11       0.0230
   6 C5       -0.2647     5.4544     3.2693  C.ar    1  <O>11       0.0303
   7 N2       -1.0679     6.5760     3.0983  N.ar    1  <O>11      -0.2839
   8 N3       -0.6144     7.6576     3.8048  N.ar    1  <O>11      -0.1779
   9 C6        0.5638     7.2635     4.2978  C.ar    1  <O>11       0.0751
  10 C7        1.5542     8.0123     5.0573  C.3     1  <O>11       0.0208
  11 C8        1.0942     9.4159     5.2653  C.3     1  <O>11      -0.0274
  12 C9        1.4903    10.0628     3.9465  C.3     1  <O>11       0.0153
  13 N4        2.6701     9.3308     3.5226  N.am    1  <O>11      -0.3006
  14 C10       3.5580     9.6686     2.5502  C.2     1  <O>11       0.2187
  15 O1        3.4056    10.7016     1.9157  O.2     1  <O>11      -0.2753
  16 C11       4.7175     8.7780     2.2580  C.3     1  <O>11       0.0358
  17 C12       4.3520     7.7752     1.2129  C.3     1  <O>11      -0.0419
  18 C13       5.6860     7.4380     0.5481  C.3     1  <O>11      -0.0523
  19 C14       6.6876     8.4885     1.0278  C.3     1  <O>11      -0.0523
  20 C15       5.8486     9.5685     1.6953  C.3     1  <O>11      -0.0419
  21 C16       2.8308     8.1039     4.2925  C.3     1  <O>11       0.0230
  22 C17       2.6639     4.6834     3.3579  C.ar    1  <O>11      -0.0356
  23 C18       3.8024     3.9729     3.7374  C.ar    1  <O>11       0.0302
  24 N5        4.1374     3.8086     5.0266  N.ar    1  <O>11      -0.2407
  25 H1        4.5551     3.6243     7.5678  H       1  <O>11       0.1437
  26 H2        3.1373     4.5403     8.0894  H       1  <O>11       0.1437
  27 H3       -1.8908     6.5737     2.5133  H       1  <O>11       0.1882
  28 H4        1.7206     7.5230     6.0159  H       1  <O>11       0.0380
  29 H5        0.0159     9.4620     5.4240  H       1  <O>11       0.0287
  30 H6        1.6048     9.8811     6.1073  H       1  <O>11       0.0287
  31 H7        0.6910     9.9641     3.2131  H       1  <O>11       0.0465
  32 H8        1.7233    11.1183     4.0914  H       1  <O>11       0.0465
  33 H9        5.0279     8.2730     3.1748  H       1  <O>11       0.0394
  34 H10       3.9078     6.8892     1.6638  H       1  <O>11       0.0272
  35 H11       3.6561     8.2034     0.4916  H       1  <O>11       0.0272
  36 H12       6.0133     6.4423     0.8458  H       1  <O>11       0.0265
  37 H13       5.5879     7.4800    -0.5374  H       1  <O>11       0.0265
  38 H14       7.3857     8.0522     1.7419  H       1  <O>11       0.0265
  39 H15       7.2397     8.9016     0.1843  H       1  <O>11       0.0265
  40 H16       6.4089    10.0759     2.4814  H       1  <O>11       0.0272
  41 H17       5.4974    10.3026     0.9701  H       1  <O>11       0.0272
  42 H18       2.9552     7.2435     3.6353  H       1  <O>11       0.0471
  43 H19       3.6848     8.1749     4.9649  H       1  <O>11       0.0471
  44 H20       1.5999     5.4547     6.4321  H       1  <O>11       0.0658
  45 H21      -0.4079     4.4871     2.9393  H       1  <O>11       0.0830
  46 H22       2.4268     4.7886     2.3590  H       1  <O>11       0.0639
  47 H23       4.4041     3.5620     3.0065  H       1  <O>11       0.0830
@<TRIPOS>BOND
     1     1     2    1
     2     2     3   ar
     3     3     4   ar
     4     4     5    1
     5     5     6   ar
     6     6     7   ar
     7     7     8   ar
     8     8     9   ar
     9     5     9   ar
    10     9    10    1
    11    10    11    1
    12    11    12    1
    13    12    13    1
    14    13    14   am
    15    14    15    2
    16    14    16    1
    17    16    17    1
    18    17    18    1
    19    18    19    1
    20    19    20    1
    21    16    20    1
    22    13    21    1
    23    10    21    1
    24     4    22   ar
    25    22    23   ar
    26    23    24   ar
    27     2    24   ar
    28     1    25    1
    29     1    26    1
    30     7    27    1
    31    10    28    1
    32    11    29    1
    33    11    30    1
    34    12    31    1
    35    12    32    1
    36    16    33    1
    37    17    34    1
    38    17    35    1
    39    18    36    1
    40    18    37    1
    41    19    38    1
    42    19    39    1
    43    20    40    1
    44    20    41    1
    45    21    42    1
    46    21    43    1
    47     3    44    1
    48     6    45    1
    49    22    46    1
    50    23    47    1
@<TRIPOS>MOLECULE
mol6_2_7
 47 50 0 0 0
SMALL
USER_CHARGES
****
VDW energy = -61.23
@<TRIPOS>ATOM
   1 N1        3.7120     4.1520     7.3415  N.pl3   1  <O>11      -0.3431
   2 C1        3.3329     4.3488     5.9653  C.ar    1  <O>11       0.1167
   3 C2        2.1864     5.0670     5.6766  C.ar    1  <O>11      -0.0143
   4 C3        1.8446     5.2530     4.3395  C.ar    1  <O>11      -0.0100
   5 C4        0.7410     5.9700     3.9760  C.ar    1  <O>11       0.0230
   6 C5       -0.2647     5.4544     3.2693  C.ar    1  <O>11       0.0303
   7 N2       -1.0679     6.5760     3.0983  N.ar    1  <O>11      -0.2839
   8 N3       -0.6144     7.6576     3.8048  N.ar    1  <O>11      -0.1779
   9 C6        0.5638     7.2635     4.2978  C.ar    1  <O>11       0.0751
  10 C7        1.5542     8.0123     5.0573  C.3     1  <O>11       0.0208
  11 C8        1.0942     9.4159     5.2653  C.3     1  <O>11      -0.0274
  12 C9        1.4903    10.0628     3.9465  C.3     1  <O>11       0.0153
  13 N4        2.6701     9.3308     3.5226  N.am    1  <O>11      -0.3006
  14 C10       3.5580     9.6686     2.5502  C.2     1  <O>11       0.2187
  15 O1        4.5090     8.9396     2.3112  O.2     1  <O>11      -0.2753
  16 C11       3.3713    10.9289     1.7760  C.3     1  <O>11       0.0358
  17 C12       4.4644    11.0877     0.7703  C.3     1  <O>11      -0.0419
  18 C13       3.8285    11.9379    -0.3289  C.3     1  <O>11      -0.0523
  19 C14       2.3257    11.9547    -0.0497  C.3     1  <O>11      -0.0523
  20 C15       2.0998    10.8765     1.0003  C.3     1  <O>11      -0.0419
  21 C16       2.8308     8.1039     4.2925  C.3     1  <O>11       0.0230
  22 C17       2.6639     4.6834     3.3579  C.ar    1  <O>11      -0.0356
  23 C18       3.8024     3.9729     3.7374  C.ar    1  <O>11       0.0302
  24 N5        4.1374     3.8086     5.0266  N.ar    1  <O>11      -0.2407
  25 H1        4.5551     3.6243     7.5678  H       1  <O>11       0.1437
  26 H2        3.1373     4.5403     8.0894  H       1  <O>11       0.1437
  27 H3       -1.8908     6.5737     2.5133  H       1  <O>11       0.1882
  28 H4        1.7206     7.5230     6.0159  H       1  <O>11       0.0380
  29 H5        0.0159     9.4620     5.4240  H       1  <O>11       0.0287
  30 H6        1.6048     9.8811     6.1073  H       1  <O>11       0.0287
  31 H7        0.6910     9.9641     3.2131  H       1  <O>11       0.0465
  32 H8        1.7233    11.1183     4.0914  H       1  <O>11       0.0465
  33 H9        3.3617    11.7784     2.4615  H       1  <O>11       0.0394
  34 H10       5.3226    11.5960     1.2069  H       1  <O>11       0.0272
  35 H11       4.7758    10.1188     0.3803  H       1  <O>11       0.0272
  36 H12       4.2282    12.9511    -0.2990  H       1  <O>11       0.0265
  37 H13       4.0243    11.4975    -1.3073  H       1  <O>11       0.0265
  38 H14       2.0192    12.9284     0.3316  H       1  <O>11       0.0265
  39 H15       1.7672    11.7262    -0.9568  H       1  <O>11       0.0265
  40 H16       1.2404    11.1104     1.6296  H       1  <O>11       0.0272
  41 H17       1.9559     9.8989     0.5402  H       1  <O>11       0.0272
  42 H18       2.9552     7.2435     3.6353  H       1  <O>11       0.0471
  43 H19       3.6848     8.1749     4.9649  H       1  <O>11       0.0471
  44 H20       1.5999     5.4547     6.4321  H       1  <O>11       0.0658
  45 H21      -0.4079     4.4871     2.9393  H       1  <O>11       0.0830
  46 H22       2.4268     4.7886     2.3590  H       1  <O>11       0.0639
  47 H23       4.4041     3.5620     3.0065  H       1  <O>11       0.0830
@<TRIPOS>BOND
     1     1     2    1
     2     2     3   ar
     3     3     4   ar
     4     4     5    1
     5     5     6   ar
     6     6     7   ar
     7     7     8   ar
     8     8     9   ar
     9     5     9   ar
    10     9    10    1
    11    10    11    1
    12    11    12    1
    13    12    13    1
    14    13    14   am
    15    14    15    2
    16    14    16    1
    17    16    17    1
    18    17    18    1
    19    18    19    1
    20    19    20    1
    21    16    20    1
    22    13    21    1
    23    10    21    1
    24     4    22   ar
    25    22    23   ar
    26    23    24   ar
    27     2    24   ar
    28     1    25    1
    29     1    26    1
    30     7    27    1
    31    10    28    1
    32    11    29    1
    33    11    30    1
    34    12    31    1
    35    12    32    1
    36    16    33    1
    37    17    34    1
    38    17    35    1
    39    18    36    1
    40    18    37    1
    41    19    38    1
    42    19    39    1
    43    20    40    1
    44    20    41    1
    45    21    42    1
    46    21    43    1
    47     3    44    1
    48     6    45    1
    49    22    46    1
    50    23    47    1
@<TRIPOS>MOLECULE
mol6_2_8
 47 50 0 0 0
SMALL
USER_CHARGES
****
VDW energy = -61.07
@<TRIPOS>ATOM
   1 N1        3.7120     4.1520     7.3415  N.pl3   1  <O>11      -0.3431
   2 C1        3.3329     4.3488     5.9653  C.ar    1  <O>11       0.1167
   3 C2        2.1864     5.0670     5.6766  C.ar    1  <O>11      -0.0143
   4 C3        1.8446     5.2530     4.3395  C.ar    1  <O>11      -0.0100
   5 C4        0.7410     5.9700     3.9760  C.ar    1  <O>11       0.0230
   6 C5       -0.2647     5.4544     3.2693  C.ar    1  <O>11       0.0303
   7 N2       -1.0679     6.5760     3.0983  N.ar    1  <O>11      -0.2839
   8 N3       -0.6144     7.6576     3.8048  N.ar    1  <O>11      -0.1779
   9 C6        0.5638     7.2635     4.2978  C.ar    1  <O>11       0.0751
  10 C7        1.5542     8.0123     5.0573  C.3     1  <O>11       0.0208
  11 C8        1.2815     7.8965     6.5192  C.3     1  <O>11      -0.0274
  12 C9        0.2069     8.9561     6.7115  C.3     1  <O>11       0.0153
  13 N4        0.5097     9.9661     5.7135  N.am    1  <O>11      -0.3006
  14 C10       0.0169    11.2302     5.6282  C.2     1  <O>11       0.2187
  15 O1        0.3742    11.9652     4.7199  O.2     1  <O>11      -0.2753
  16 C11      -0.9590    11.7194     6.6436  C.3     1  <O>11       0.0358
  17 C12      -0.2420    12.3554     7.7893  C.3     1  <O>11      -0.0419
  18 C13      -1.2550    13.3563     8.3438  C.3     1  <O>11      -0.0523
  19 C14      -2.3695    13.4669     7.3035  C.3     1  <O>11      -0.0523
  20 C15      -1.8269    12.7803     6.0585  C.3     1  <O>11      -0.0419
  21 C16       1.4641     9.4648     4.7329  C.3     1  <O>11       0.0230
  22 C17       2.6639     4.6834     3.3579  C.ar    1  <O>11      -0.0356
  23 C18       3.8024     3.9729     3.7374  C.ar    1  <O>11       0.0302
  24 N5        4.1374     3.8086     5.0266  N.ar    1  <O>11      -0.2407
  25 H1        4.5551     3.6243     7.5678  H       1  <O>11       0.1437
  26 H2        3.1373     4.5403     8.0894  H       1  <O>11       0.1437
  27 H3       -1.8908     6.5737     2.5133  H       1  <O>11       0.1882
  28 H4        2.5489     7.6332     4.8271  H       1  <O>11       0.0380
  29 H5        0.9126     6.9030     6.7779  H       1  <O>11       0.0287
  30 H6        2.1703     8.1180     7.1083  H       1  <O>11       0.0287
  31 H7       -0.7840     8.5351     6.5457  H       1  <O>11       0.0465
  32 H8        0.2597     9.3787     7.7154  H       1  <O>11       0.0465
  33 H9       -1.5674    10.8838     6.9949  H       1  <O>11       0.0394
  34 H10       0.0228    11.6137     8.5413  H       1  <O>11       0.0272
  35 H11       0.6594    12.8642     7.4480  H       1  <O>11       0.0272
  36 H12      -1.6580    12.9978     9.2905  H       1  <O>11       0.0265
  37 H13      -0.7824    14.3278     8.4934  H       1  <O>11       0.0265
  38 H14      -3.2703    12.9639     7.6543  H       1  <O>11       0.0265
  39 H15      -2.5936    14.5125     7.0951  H       1  <O>11       0.0265
  40 H16      -2.6315    12.3507     5.4606  H       1  <O>11       0.0272
  41 H17      -1.2493    13.4713     5.4445  H       1  <O>11       0.0272
  42 H18       1.0977     9.6164     3.7178  H       1  <O>11       0.0471
  43 H19       2.4319     9.9513     4.8471  H       1  <O>11       0.0471
  44 H20       1.5999     5.4547     6.4321  H       1  <O>11       0.0658
  45 H21      -0.4079     4.4871     2.9393  H       1  <O>11       0.0830
  46 H22       2.4268     4.7886     2.3590  H       1  <O>11       0.0639
  47 H23       4.4041     3.5620     3.0065  H       1  <O>11       0.0830
@<TRIPOS>BOND
     1     1     2    1
     2     2     3   ar
     3     3     4   ar
     4     4     5    1
     5     5     6   ar
     6     6     7   ar
     7     7     8   ar
     8     8     9   ar
     9     5     9   ar
    10     9    10    1
    11    10    11    1
    12    11    12    1
    13    12    13    1
    14    13    14   am
    15    14    15    2
    16    14    16    1
    17    16    17    1
    18    17    18    1
    19    18    19    1
    20    19    20    1
    21    16    20    1
    22    13    21    1
    23    10    21    1
    24     4    22   ar
    25    22    23   ar
    26    23    24   ar
    27     2    24   ar
    28     1    25    1
    29     1    26    1
    30     7    27    1
    31    10    28    1
    32    11    29    1
    33    11    30    1
    34    12    31    1
    35    12    32    1
    36    16    33    1
    37    17    34    1
    38    17    35    1
    39    18    36    1
    40    18    37    1
    41    19    38    1
    42    19    39    1
    43    20    40    1
    44    20    41    1
    45    21    42    1
    46    21    43    1
    47     3    44    1
    48     6    45    1
    49    22    46    1
    50    23    47    1
@<TRIPOS>MOLECULE
mol6_2_9
 47 50 0 0 0
SMALL
USER_CHARGES
****
VDW energy = -58.60
@<TRIPOS>ATOM
   1 N1        3.7120     4.1520     7.3415  N.pl3   1  <O>11      -0.3431
   2 C1        3.3329     4.3488     5.9653  C.ar    1  <O>11       0.1167
   3 C2        2.1864     5.0670     5.6766  C.ar    1  <O>11      -0.0143
   4 C3        1.8446     5.2530     4.3395  C.ar    1  <O>11      -0.0100
   5 C4        0.7410     5.9700     3.9760  C.ar    1  <O>11       0.0230
   6 C5       -0.2647     5.4544     3.2693  C.ar    1  <O>11       0.0303
   7 N2       -1.0679     6.5760     3.0983  N.ar    1  <O>11      -0.2839
   8 N3       -0.6144     7.6576     3.8048  N.ar    1  <O>11      -0.1779
   9 C6        0.5638     7.2635     4.2978  C.ar    1  <O>11       0.0751
  10 C7        1.5542     8.0123     5.0573  C.3     1  <O>11       0.0208
  11 C8        1.2815     7.8965     6.5192  C.3     1  <O>11      -0.0274
  12 C9        0.2069     8.9561     6.7115  C.3     1  <O>11       0.0153
  13 N4        0.5097     9.9661     5.7135  N.am    1  <O>11      -0.3006
  14 C10       0.0169    11.2302     5.6282  C.2     1  <O>11       0.2187
  15 O1       -0.7832    11.6314     6.4599  O.2     1  <O>11      -0.2753
  16 C11       0.4528    12.1265     4.5195  C.3     1  <O>11       0.0358
  17 C12      -0.4525    11.9734     3.3412  C.3     1  <O>11      -0.0419
  18 C13      -0.3551    13.3216     2.6283  C.3     1  <O>11      -0.0523
  19 C14       0.3447    14.2750     3.5968  C.3     1  <O>11      -0.0523
  20 C15       0.3509    13.5536     4.9368  C.3     1  <O>11      -0.0419
  21 C16       1.4641     9.4648     4.7329  C.3     1  <O>11       0.0230
  22 C17       2.6639     4.6834     3.3579  C.ar    1  <O>11      -0.0356
  23 C18       3.8024     3.9729     3.7374  C.ar    1  <O>11       0.0302
  24 N5        4.1374     3.8086     5.0266  N.ar    1  <O>11      -0.2407
  25 H1        4.5551     3.6243     7.5678  H       1  <O>11       0.1437
  26 H2        3.1373     4.5403     8.0894  H       1  <O>11       0.1437
  27 H3       -1.8908     6.5737     2.5133  H       1  <O>11       0.1882
  28 H4        2.5489     7.6332     4.8271  H       1  <O>11       0.0380
  29 H5        0.9126     6.9030     6.7779  H       1  <O>11       0.0287
  30 H6        2.1703     8.1180     7.1083  H       1  <O>11       0.0287
  31 H7       -0.7840     8.5351     6.5457  H       1  <O>11       0.0465
  32 H8        0.2597     9.3787     7.7154  H       1  <O>11       0.0465
  33 H9        1.4806    11.8862     4.2407  H       1  <O>11       0.0394
  34 H10      -0.1135    11.1663     2.6936  H       1  <O>11       0.0272
  35 H11      -1.4755    11.7767     3.6615  H       1  <O>11       0.0272
  36 H12       0.2267    13.2214     1.7125  H       1  <O>11       0.0265
  37 H13      -1.3517    13.6942     2.3881  H       1  <O>11       0.0265
  38 H14       1.3639    14.4744     3.2665  H       1  <O>11       0.0265
  39 H15      -0.2044    15.2130     3.6715  H       1  <O>11       0.0265
  40 H16       1.2065    13.8524     5.5435  H       1  <O>11       0.0272
  41 H17      -0.5686    13.7398     5.4917  H       1  <O>11       0.0272
  42 H18       1.0977     9.6164     3.7178  H       1  <O>11       0.0471
  43 H19       2.4319     9.9513     4.8471  H       1  <O>11       0.0471
  44 H20       1.5999     5.4547     6.4321  H       1  <O>11       0.0658
  45 H21      -0.4079     4.4871     2.9393  H       1  <O>11       0.0830
  46 H22       2.4268     4.7886     2.3590  H       1  <O>11       0.0639
  47 H23       4.4041     3.5620     3.0065  H       1  <O>11       0.0830
@<TRIPOS>BOND
     1     1     2    1
     2     2     3   ar
     3     3     4   ar
     4     4     5    1
     5     5     6   ar
     6     6     7   ar
     7     7     8   ar
     8     8     9   ar
     9     5     9   ar
    10     9    10    1
    11    10    11    1
    12    11    12    1
    13    12    13    1
    14    13    14   am
    15    14    15    2
    16    14    16    1
    17    16    17    1
    18    17    18    1
    19    18    19    1
    20    19    20    1
    21    16    20    1
    22    13    21    1
    23    10    21    1
    24     4    22   ar
    25    22    23   ar
    26    23    24   ar
    27     2    24   ar
    28     1    25    1
    29     1    26    1
    30     7    27    1
    31    10    28    1
    32    11    29    1
    33    11    30    1
    34    12    31    1
    35    12    32    1
    36    16    33    1
    37    17    34    1
    38    17    35    1
    39    18    36    1
    40    18    37    1
    41    19    38    1
    42    19    39    1
    43    20    40    1
    44    20    41    1
    45    21    42    1
    46    21    43    1
    47     3    44    1
    48     6    45    1
    49    22    46    1
    50    23    47    1
@<TRIPOS>MOLECULE
mol6_2_10
 47 50 0 0 0
SMALL
USER_CHARGES
****
VDW energy = -58.32
@<TRIPOS>ATOM
   1 N1        3.7120     4.1520     7.3415  N.pl3   1  <O>11      -0.3431
   2 C1        3.3329     4.3488     5.9653  C.ar    1  <O>11       0.1167
   3 C2        2.1864     5.0670     5.6766  C.ar    1  <O>11      -0.0143
   4 C3        1.8446     5.2530     4.3395  C.ar    1  <O>11      -0.0100
   5 C4        0.7410     5.9700     3.9760  C.ar    1  <O>11       0.0230
   6 C5        0.7647     7.2839     3.7528  C.ar    1  <O>11       0.0303
   7 N2       -0.5804     7.5327     3.5055  N.ar    1  <O>11      -0.2839
   8 N3       -1.3228     6.3839     3.4432  N.ar    1  <O>11      -0.1779
   9 C6       -0.4735     5.4182     3.8075  C.ar    1  <O>11       0.0751
  10 C7       -0.7111     3.9973     4.0153  C.3     1  <O>11       0.0208
  11 C8       -2.1432     3.6689     3.7582  C.3     1  <O>11      -0.0274
  12 C9       -2.7852     4.0576     5.0816  C.3     1  <O>11       0.0153
  13 N4       -1.7501     3.8193     6.0714  N.am    1  <O>11      -0.3006
  14 C10      -1.8843     3.7622     7.4229  C.2     1  <O>11       0.2187
  15 O1       -0.9072     3.5507     8.1255  O.2     1  <O>11      -0.2753
  16 C11      -3.2239     3.9572     8.0476  C.3     1  <O>11       0.0358
  17 C12      -3.9295     2.6476     8.1833  C.3     1  <O>11      -0.0419
  18 C13      -4.8692     2.8604     9.3695  C.3     1  <O>11      -0.0523
  19 C14      -4.4297     4.1601    10.0435  C.3     1  <O>11      -0.0523
  20 C15      -3.0773     4.4935     9.4303  C.3     1  <O>11      -0.0419
  21 C16      -0.4513     3.6325     5.4373  C.3     1  <O>11       0.0230
  22 C17       2.6639     4.6834     3.3579  C.ar    1  <O>11      -0.0356
  23 C18       3.8024     3.9729     3.7374  C.ar    1  <O>11       0.0302
  24 N5        4.1374     3.8086     5.0266  N.ar    1  <O>11      -0.2407
  25 H1        4.5551     3.6243     7.5678  H       1  <O>11       0.1437
  26 H2        3.1373     4.5403     8.0894  H       1  <O>11       0.1437
  27 H3       -0.9502     8.4649     3.3879  H       1  <O>11       0.1882
  28 H4       -0.0664     3.4221     3.3523  H       1  <O>11       0.0380
  29 H5       -2.5446     4.2577     2.9322  H       1  <O>11       0.0287
  30 H6       -2.2762     2.6090     3.5461  H       1  <O>11       0.0287
  31 H7       -3.0781     5.1067     5.0748  H       1  <O>11       0.0465
  32 H8       -3.6592     3.4368     5.2812  H       1  <O>11       0.0465
  33 H9       -3.8135     4.6430     7.4362  H       1  <O>11       0.0394
  34 H10      -4.4909     2.4138     7.2801  H       1  <O>11       0.0272
  35 H11      -3.2211     1.8452     8.3885  H       1  <O>11       0.0272
  36 H12      -5.8987     2.9457     9.0229  H       1  <O>11       0.0265
  37 H13      -4.7880     2.0277    10.0693  H       1  <O>11       0.0265
  38 H14      -5.1463     4.9559     9.8418  H       1  <O>11       0.0265
  39 H15      -4.3357     4.0183    11.1196  H       1  <O>11       0.0265
  40 H16      -2.9004     5.5696     9.4227  H       1  <O>11       0.0272
  41 H17      -2.2667     3.9974     9.9642  H       1  <O>11       0.0272
  42 H18       0.2973     4.2900     5.8789  H       1  <O>11       0.0471
  43 H19      -0.1220     2.5976     5.5213  H       1  <O>11       0.0471
  44 H20       1.5999     5.4547     6.4321  H       1  <O>11       0.0658
  45 H21       1.5632     7.9376     3.7613  H       1  <O>11       0.0830
  46 H22       2.4268     4.7886     2.3590  H       1  <O>11       0.0639
  47 H23       4.4041     3.5620     3.0065  H       1  <O>11       0.0830
@<TRIPOS>BOND
     1     1     2    1
     2     2     3   ar
     3     3     4   ar
     4     4     5    1
     5     5     6   ar
     6     6     7   ar
     7     7     8   ar
     8     8     9   ar
     9     5     9   ar
    10     9    10    1
    11    10    11    1
    12    11    12    1
    13    12    13    1
    14    13    14   am
    15    14    15    2
    16    14    16    1
    17    16    17    1
    18    17    18    1
    19    18    19    1
    20    19    20    1
    21    16    20    1
    22    13    21    1
    23    10    21    1
    24     4    22   ar
    25    22    23   ar
    26    23    24   ar
    27     2    24   ar
    28     1    25    1
    29     1    26    1
    30     7    27    1
    31    10    28    1
    32    11    29    1
    33    11    30    1
    34    12    31    1
    35    12    32    1
    36    16    33    1
    37    17    34    1
    38    17    35    1
    39    18    36    1
    40    18    37    1
    41    19    38    1
    42    19    39    1
    43    20    40    1
    44    20    41    1
    45    21    42    1
    46    21    43    1
    47     3    44    1
    48     6    45    1
    49    22    46    1
    50    23    47    1
@<TRIPOS>MOLECULE
mol6_2_11
 47 50 0 0 0
SMALL
USER_CHARGES
****
VDW energy = -57.46
@<TRIPOS>ATOM
   1 N1        3.7120     4.1520     7.3415  N.pl3   1  <O>11      -0.3431
   2 C1        3.3329     4.3488     5.9653  C.ar    1  <O>11       0.1167
   3 C2        2.1864     5.0670     5.6766  C.ar    1  <O>11      -0.0143
   4 C3        1.8446     5.2530     4.3395  C.ar    1  <O>11      -0.0100
   5 C4        0.7410     5.9700     3.9760  C.ar    1  <O>11       0.0230
   6 C5       -0.4632     5.4231     3.8104  C.ar    1  <O>11       0.0303
   7 N2       -1.1934     6.5226     3.3741  N.ar    1  <O>11      -0.2839
   8 N3       -0.4726     7.6854     3.4293  N.ar    1  <O>11      -0.1779
   9 C6        0.7644     7.2957     3.7522  C.ar    1  <O>11       0.0751
  10 C7        1.9873     8.0764     3.8689  C.3     1  <O>11       0.0208
  11 C8        1.7162     9.5113     3.5651  C.3     1  <O>11      -0.0274
  12 C9        1.7590     9.5120     2.0443  C.3     1  <O>11       0.0153
  13 N4        2.7046     8.4634     1.7069  N.am    1  <O>11      -0.3006
  14 C10       3.2937     8.2250     0.5052  C.2     1  <O>11       0.2187
  15 O1        4.0753     7.2939     0.3819  O.2     1  <O>11      -0.2753
  16 C11       2.9862     9.1001    -0.6620  C.3     1  <O>11       0.0358
  17 C12       3.9400    10.2485    -0.7160  C.3     1  <O>11      -0.0419
  18 C13       3.9816    10.6192    -2.1980  C.3     1  <O>11      -0.0523
  19 C14       3.3031     9.4746    -2.9507  C.3     1  <O>11      -0.0523
  20 C15       3.1709     8.3485    -1.9356  C.3     1  <O>11      -0.0419
  21 C16       2.9887     7.6218     2.8623  C.3     1  <O>11       0.0230
  22 C17       2.6639     4.6834     3.3579  C.ar    1  <O>11      -0.0356
  23 C18       3.8024     3.9729     3.7374  C.ar    1  <O>11       0.0302
  24 N5        4.1374     3.8086     5.0266  N.ar    1  <O>11      -0.2407
  25 H1        4.5551     3.6243     7.5678  H       1  <O>11       0.1437
  26 H2        3.1373     4.5403     8.0894  H       1  <O>11       0.1437
  27 H3       -2.1488     6.4514     3.0553  H       1  <O>11       0.1882
  28 H4        2.3880     7.9724     4.8763  H       1  <O>11       0.0380
  29 H5        0.7378     9.8191     3.9366  H       1  <O>11       0.0287
  30 H6        2.4840    10.1589     3.9862  H       1  <O>11       0.0287
  31 H7        0.7755     9.2921     1.6307  H       1  <O>11       0.0465
  32 H8        2.1039    10.4766     1.6703  H       1  <O>11       0.0465
  33 H9        1.9600     9.4640    -0.5828  H       1  <O>11       0.0394
  34 H10       3.5775    11.0825    -0.1171  H       1  <O>11       0.0272
  35 H11       4.9268     9.9495    -0.3628  H       1  <O>11       0.0272
  36 H12       3.4443    11.5517    -2.3674  H       1  <O>11       0.0265
  37 H13       5.0146    10.7279    -2.5308  H       1  <O>11       0.0265
  38 H14       2.3209     9.7825    -3.3085  H       1  <O>11       0.0265
  39 H15       3.9155     9.1576    -3.7941  H       1  <O>11       0.0265
  40 H16       2.3084     7.7179    -2.1538  H       1  <O>11       0.0272
  41 H17       4.0705     7.7336    -1.9063  H       1  <O>11       0.0272
  42 H18       2.8501     6.5679     2.6216  H       1  <O>11       0.0471
  43 H19       4.0044     7.7828     3.2213  H       1  <O>11       0.0471
  44 H20       1.5999     5.4547     6.4321  H       1  <O>11       0.0658
  45 H21      -0.7697     4.4497     3.9640  H       1  <O>11       0.0830
  46 H22       2.4268     4.7886     2.3590  H       1  <O>11       0.0639
  47 H23       4.4041     3.5620     3.0065  H       1  <O>11       0.0830
@<TRIPOS>BOND
     1     1     2    1
     2     2     3   ar
     3     3     4   ar
     4     4     5    1
     5     5     6   ar
     6     6     7   ar
     7     7     8   ar
     8     8     9   ar
     9     5     9   ar
    10     9    10    1
    11    10    11    1
    12    11    12    1
    13    12    13    1
    14    13    14   am
    15    14    15    2
    16    14    16    1
    17    16    17    1
    18    17    18    1
    19    18    19    1
    20    19    20    1
    21    16    20    1
    22    13    21    1
    23    10    21    1
    24     4    22   ar
    25    22    23   ar
    26    23    24   ar
    27     2    24   ar
    28     1    25    1
    29     1    26    1
    30     7    27    1
    31    10    28    1
    32    11    29    1
    33    11    30    1
    34    12    31    1
    35    12    32    1
    36    16    33    1
    37    17    34    1
    38    17    35    1
    39    18    36    1
    40    18    37    1
    41    19    38    1
    42    19    39    1
    43    20    40    1
    44    20    41    1
    45    21    42    1
    46    21    43    1
    47     3    44    1
    48     6    45    1
    49    22    46    1
    50    23    47    1
@<TRIPOS>MOLECULE
mol6_2_12
 47 50 0 0 0
SMALL
USER_CHARGES
****
VDW energy = -56.64
@<TRIPOS>ATOM
   1 N1        3.7120     4.1520     7.3415  N.pl3   1  <O>11      -0.3431
   2 C1        3.3329     4.3488     5.9653  C.ar    1  <O>11       0.1167
   3 C2        2.1864     5.0670     5.6766  C.ar    1  <O>11      -0.0143
   4 C3        1.8446     5.2530     4.3395  C.ar    1  <O>11      -0.0100
   5 C4        0.7410     5.9700     3.9760  C.ar    1  <O>11       0.0230
   6 C5       -0.4632     5.4231     3.8104  C.ar    1  <O>11       0.0303
   7 N2       -1.1934     6.5226     3.3741  N.ar    1  <O>11      -0.2839
   8 N3       -0.4726     7.6854     3.4293  N.ar    1  <O>11      -0.1779
   9 C6        0.7644     7.2957     3.7522  C.ar    1  <O>11       0.0751
  10 C7        1.9873     8.0764     3.8689  C.3     1  <O>11       0.0208
  11 C8        2.1444     8.5871     5.2616  C.3     1  <O>11      -0.0274
  12 C9        1.2565     9.8222     5.2330  C.3     1  <O>11       0.0153
  13 N4        1.3314    10.2920     3.8614  N.am    1  <O>11      -0.3006
  14 C10       0.9331    11.4942     3.3674  C.2     1  <O>11       0.2187
  15 O1        1.0651    11.7400     2.1778  O.2     1  <O>11      -0.2753
  16 C11       0.3357    12.5127     4.2776  C.3     1  <O>11       0.0358
  17 C12       1.1401    12.6248     5.5312  C.3     1  <O>11      -0.0419
  18 C13       0.8818    14.0548     6.0042  C.3     1  <O>11      -0.0523
  19 C14       0.2047    14.7806     4.8417  C.3     1  <O>11      -0.0523
  20 C15       0.3711    13.8599     3.6414  C.3     1  <O>11      -0.0419
  21 C16       1.9176     9.2800     2.9918  C.3     1  <O>11       0.0230
  22 C17       2.6639     4.6834     3.3579  C.ar    1  <O>11      -0.0356
  23 C18       3.8024     3.9729     3.7374  C.ar    1  <O>11       0.0302
  24 N5        4.1374     3.8086     5.0266  N.ar    1  <O>11      -0.2407
  25 H1        4.5551     3.6243     7.5678  H       1  <O>11       0.1437
  26 H2        3.1373     4.5403     8.0894  H       1  <O>11       0.1437
  27 H3       -2.1488     6.4514     3.0553  H       1  <O>11       0.1882
  28 H4        2.8398     7.4564     3.5952  H       1  <O>11       0.0380
  29 H5        1.7923     7.8598     5.9944  H       1  <O>11       0.0287
  30 H6        3.1805     8.8453     5.4759  H       1  <O>11       0.0287
  31 H7        0.2312     9.5663     5.4975  H       1  <O>11       0.0465
  32 H8        1.6316    10.5806     5.9210  H       1  <O>11       0.0465
  33 H9       -0.6929    12.2318     4.5119  H       1  <O>11       0.0394
  34 H10       0.8036    11.9033     6.2741  H       1  <O>11       0.0272
  35 H11       2.1993    12.4689     5.3272  H       1  <O>11       0.0272
  36 H12       0.2288    14.0500     6.8764  H       1  <O>11       0.0265
  37 H13       1.8231    14.5447     6.2562  H       1  <O>11       0.0265
  38 H14      -0.8518    14.9411     5.0554  H       1  <O>11       0.0265
  39 H15       0.6889    15.7389     4.6570  H       1  <O>11       0.0265
  40 H16      -0.4459    13.9852     2.9299  H       1  <O>11       0.0272
  41 H17       1.3209    14.0350     3.1360  H       1  <O>11       0.0272
  42 H18       1.2839     9.0953     2.1246  H       1  <O>11       0.0471
  43 H19       2.9108     9.5795     2.6598  H       1  <O>11       0.0471
  44 H20       1.5999     5.4547     6.4321  H       1  <O>11       0.0658
  45 H21      -0.7697     4.4497     3.9640  H       1  <O>11       0.0830
  46 H22       2.4268     4.7886     2.3590  H       1  <O>11       0.0639
  47 H23       4.4041     3.5620     3.0065  H       1  <O>11       0.0830
@<TRIPOS>BOND
     1     1     2    1
     2     2     3   ar
     3     3     4   ar
     4     4     5    1
     5     5     6   ar
     6     6     7   ar
     7     7     8   ar
     8     8     9   ar
     9     5     9   ar
    10     9    10    1
    11    10    11    1
    12    11    12    1
    13    12    13    1
    14    13    14   am
    15    14    15    2
    16    14    16    1
    17    16    17    1
    18    17    18    1
    19    18    19    1
    20    19    20    1
    21    16    20    1
    22    13    21    1
    23    10    21    1
    24     4    22   ar
    25    22    23   ar
    26    23    24   ar
    27     2    24   ar
    28     1    25    1
    29     1    26    1
    30     7    27    1
    31    10    28    1
    32    11    29    1
    33    11    30    1
    34    12    31    1
    35    12    32    1
    36    16    33    1
    37    17    34    1
    38    17    35    1
    39    18    36    1
    40    18    37    1
    41    19    38    1
    42    19    39    1
    43    20    40    1
    44    20    41    1
    45    21    42    1
    46    21    43    1
    47     3    44    1
    48     6    45    1
    49    22    46    1
    50    23    47    1
@<TRIPOS>MOLECULE
mol6_2_13
 47 50 0 0 0
SMALL
USER_CHARGES
****
VDW energy = -56.54
@<TRIPOS>ATOM
   1 N1        3.7120     4.1520     7.3415  N.pl3   1  <O>11      -0.3431
   2 C1        3.3329     4.3488     5.9653  C.ar    1  <O>11       0.1167
   3 C2        2.1864     5.0670     5.6766  C.ar    1  <O>11      -0.0143
   4 C3        1.8446     5.2530     4.3395  C.ar    1  <O>11      -0.0100
   5 C4        0.7410     5.9700     3.9760  C.ar    1  <O>11       0.0230
   6 C5        0.7647     7.2839     3.7528  C.ar    1  <O>11       0.0303
   7 N2       -0.5804     7.5327     3.5055  N.ar    1  <O>11      -0.2839
   8 N3       -1.3228     6.3839     3.4432  N.ar    1  <O>11      -0.1779
   9 C6       -0.4735     5.4182     3.8075  C.ar    1  <O>11       0.0751
  10 C7       -0.7111     3.9973     4.0153  C.3     1  <O>11       0.0208
  11 C8       -0.4971     3.2455     2.7449  C.3     1  <O>11      -0.0274
  12 C9       -1.8302     3.4534     2.0419  C.3     1  <O>11       0.0153
  13 N4       -2.7963     3.5626     3.1199  N.am    1  <O>11      -0.3006
  14 C10      -4.1517     3.4998     3.0363  C.2     1  <O>11       0.2187
  15 O1       -4.8319     3.6101     4.0454  O.2     1  <O>11      -0.2753
  16 C11      -4.8079     3.2957     1.7133  C.3     1  <O>11       0.0358
  17 C12      -4.1168     2.2120     0.9522  C.3     1  <O>11      -0.0419
  18 C13      -5.2064     1.6577     0.0352  C.3     1  <O>11      -0.0523
  19 C14      -6.5306     2.2322     0.5386  C.3     1  <O>11      -0.0523
  20 C15      -6.2146     2.8394     1.8978  C.3     1  <O>11      -0.0419
  21 C16      -2.1318     3.7620     4.4015  C.3     1  <O>11       0.0230
  22 C17       2.6639     4.6834     3.3579  C.ar    1  <O>11      -0.0356
  23 C18       3.8024     3.9729     3.7374  C.ar    1  <O>11       0.0302
  24 N5        4.1374     3.8086     5.0266  N.ar    1  <O>11      -0.2407
  25 H1        4.5551     3.6243     7.5678  H       1  <O>11       0.1437
  26 H2        3.1373     4.5403     8.0894  H       1  <O>11       0.1437
  27 H3       -0.9502     8.4649     3.3879  H       1  <O>11       0.1882
  28 H4       -0.0411     3.6282     4.7905  H       1  <O>11       0.0380
  29 H5        0.3278     3.6657     2.1677  H       1  <O>11       0.0287
  30 H6       -0.3062     2.1902     2.9346  H       1  <O>11       0.0287
  31 H7       -1.8136     4.3646     1.4451  H       1  <O>11       0.0465
  32 H8       -2.0629     2.6025     1.4008  H       1  <O>11       0.0465
  33 H9       -4.7840     4.2294     1.1480  H       1  <O>11       0.0394
  34 H10      -3.2877     2.6135     0.3715  H       1  <O>11       0.0272
  35 H11      -3.7474     1.4397     1.6268  H       1  <O>11       0.0272
  36 H12      -5.0273     1.9703    -0.9930  H       1  <O>11       0.0265
  37 H13      -5.2251     0.5684     0.0871  H       1  <O>11       0.0265
  38 H14      -6.8989     2.9973    -0.1444  H       1  <O>11       0.0265
  39 H15      -7.2751     1.4430     0.6375  H       1  <O>11       0.0265
  40 H16      -6.8777     3.6757     2.1218  H       1  <O>11       0.0272
  41 H17      -6.2894     2.0958     2.6913  H       1  <O>11       0.0272
  42 H18      -2.5426     4.6253     4.9247  H       1  <O>11       0.0471
  43 H19      -2.2243     2.8773     5.0302  H       1  <O>11       0.0471
  44 H20       1.5999     5.4547     6.4321  H       1  <O>11       0.0658
  45 H21       1.5632     7.9376     3.7613  H       1  <O>11       0.0830
  46 H22       2.4268     4.7886     2.3590  H       1  <O>11       0.0639
  47 H23       4.4041     3.5620     3.0065  H       1  <O>11       0.0830
@<TRIPOS>BOND
     1     1     2    1
     2     2     3   ar
     3     3     4   ar
     4     4     5    1
     5     5     6   ar
     6     6     7   ar
     7     7     8   ar
     8     8     9   ar
     9     5     9   ar
    10     9    10    1
    11    10    11    1
    12    11    12    1
    13    12    13    1
    14    13    14   am
    15    14    15    2
    16    14    16    1
    17    16    17    1
    18    17    18    1
    19    18    19    1
    20    19    20    1
    21    16    20    1
    22    13    21    1
    23    10    21    1
    24     4    22   ar
    25    22    23   ar
    26    23    24   ar
    27     2    24   ar
    28     1    25    1
    29     1    26    1
    30     7    27    1
    31    10    28    1
    32    11    29    1
    33    11    30    1
    34    12    31    1
    35    12    32    1
    36    16    33    1
    37    17    34    1
    38    17    35    1
    39    18    36    1
    40    18    37    1
    41    19    38    1
    42    19    39    1
    43    20    40    1
    44    20    41    1
    45    21    42    1
    46    21    43    1
    47     3    44    1
    48     6    45    1
    49    22    46    1
    50    23    47    1
@<TRIPOS>MOLECULE
mol6_2_14
 47 50 0 0 0
SMALL
USER_CHARGES
****
VDW energy = -55.50
@<TRIPOS>ATOM
   1 N1        3.7120     4.1520     7.3415  N.pl3   1  <O>11      -0.3431
   2 C1        3.3329     4.3488     5.9653  C.ar    1  <O>11       0.1167
   3 C2        2.1864     5.0670     5.6766  C.ar    1  <O>11      -0.0143
   4 C3        1.8446     5.2530     4.3395  C.ar    1  <O>11      -0.0100
   5 C4        0.7410     5.9700     3.9760  C.ar    1  <O>11       0.0230
   6 C5        0.7647     7.2839     3.7528  C.ar    1  <O>11       0.0303
   7 N2       -0.5804     7.5327     3.5055  N.ar    1  <O>11      -0.2839
   8 N3       -1.3228     6.3839     3.4432  N.ar    1  <O>11      -0.1779
   9 C6       -0.4735     5.4182     3.8075  C.ar    1  <O>11       0.0751
  10 C7       -0.7111     3.9973     4.0153  C.3     1  <O>11       0.0208
  11 C8       -2.1432     3.6689     3.7582  C.3     1  <O>11      -0.0274
  12 C9       -2.7852     4.0576     5.0816  C.3     1  <O>11       0.0153
  13 N4       -1.7501     3.8193     6.0714  N.am    1  <O>11      -0.3006
  14 C10      -1.8843     3.7622     7.4229  C.2     1  <O>11       0.2187
  15 O1       -0.9072     3.5507     8.1255  O.2     1  <O>11      -0.2753
  16 C11      -3.2239     3.9572     8.0476  C.3     1  <O>11       0.0358
  17 C12      -3.1246     3.8499     9.5342  C.3     1  <O>11      -0.0419
  18 C13      -4.2885     4.7011    10.0403  C.3     1  <O>11      -0.0523
  19 C14      -4.7959     5.4999     8.8397  C.3     1  <O>11      -0.0523
  20 C15      -3.7322     5.3293     7.7647  C.3     1  <O>11      -0.0419
  21 C16      -0.4513     3.6325     5.4373  C.3     1  <O>11       0.0230
  22 C17       2.6639     4.6834     3.3579  C.ar    1  <O>11      -0.0356
  23 C18       3.8024     3.9729     3.7374  C.ar    1  <O>11       0.0302
  24 N5        4.1374     3.8086     5.0266  N.ar    1  <O>11      -0.2407
  25 H1        4.5551     3.6243     7.5678  H       1  <O>11       0.1437
  26 H2        3.1373     4.5403     8.0894  H       1  <O>11       0.1437
  27 H3       -0.9502     8.4649     3.3879  H       1  <O>11       0.1882
  28 H4       -0.0664     3.4221     3.3523  H       1  <O>11       0.0380
  29 H5       -2.5446     4.2577     2.9322  H       1  <O>11       0.0287
  30 H6       -2.2762     2.6090     3.5461  H       1  <O>11       0.0287
  31 H7       -3.0781     5.1067     5.0748  H       1  <O>11       0.0465
  32 H8       -3.6592     3.4368     5.2812  H       1  <O>11       0.0465
  33 H9       -3.9180     3.2091     7.6598  H       1  <O>11       0.0394
  34 H10      -3.2311     2.8154     9.8566  H       1  <O>11       0.0272
  35 H11      -2.1724     4.2446     9.8884  H       1  <O>11       0.0272
  36 H12      -5.0806     4.0619    10.4288  H       1  <O>11       0.0265
  37 H13      -3.9479     5.3776    10.8251  H       1  <O>11       0.0265
  38 H14      -5.7520     5.1061     8.4958  H       1  <O>11       0.0265
  39 H15      -4.9078     6.5515     9.1016  H       1  <O>11       0.0265
  40 H16      -4.1646     5.3950     6.7657  H       1  <O>11       0.0272
  41 H17      -2.9425     6.0737     7.8667  H       1  <O>11       0.0272
  42 H18       0.2973     4.2900     5.8789  H       1  <O>11       0.0471
  43 H19      -0.1220     2.5976     5.5213  H       1  <O>11       0.0471
  44 H20       1.5999     5.4547     6.4321  H       1  <O>11       0.0658
  45 H21       1.5632     7.9376     3.7613  H       1  <O>11       0.0830
  46 H22       2.4268     4.7886     2.3590  H       1  <O>11       0.0639
  47 H23       4.4041     3.5620     3.0065  H       1  <O>11       0.0830
@<TRIPOS>BOND
     1     1     2    1
     2     2     3   ar
     3     3     4   ar
     4     4     5    1
     5     5     6   ar
     6     6     7   ar
     7     7     8   ar
     8     8     9   ar
     9     5     9   ar
    10     9    10    1
    11    10    11    1
    12    11    12    1
    13    12    13    1
    14    13    14   am
    15    14    15    2
    16    14    16    1
    17    16    17    1
    18    17    18    1
    19    18    19    1
    20    19    20    1
    21    16    20    1
    22    13    21    1
    23    10    21    1
    24     4    22   ar
    25    22    23   ar
    26    23    24   ar
    27     2    24   ar
    28     1    25    1
    29     1    26    1
    30     7    27    1
    31    10    28    1
    32    11    29    1
    33    11    30    1
    34    12    31    1
    35    12    32    1
    36    16    33    1
    37    17    34    1
    38    17    35    1
    39    18    36    1
    40    18    37    1
    41    19    38    1
    42    19    39    1
    43    20    40    1
    44    20    41    1
    45    21    42    1
    46    21    43    1
    47     3    44    1
    48     6    45    1
    49    22    46    1
    50    23    47    1
@<TRIPOS>MOLECULE
mol6_2_15
 47 50 0 0 0
SMALL
USER_CHARGES
****
VDW energy = -55.45
@<TRIPOS>ATOM
   1 N1        3.7120     4.1520     7.3415  N.pl3   1  <O>11      -0.3431
   2 C1        3.3329     4.3488     5.9653  C.ar    1  <O>11       0.1167
   3 C2        2.1864     5.0670     5.6766  C.ar    1  <O>11      -0.0143
   4 C3        1.8446     5.2530     4.3395  C.ar    1  <O>11      -0.0100
   5 C4        0.7410     5.9700     3.9760  C.ar    1  <O>11       0.0230
   6 C5       -0.2647     5.4544     3.2693  C.ar    1  <O>11       0.0303
   7 N2       -1.0679     6.5760     3.0983  N.ar    1  <O>11      -0.2839
   8 N3       -0.6144     7.6576     3.8048  N.ar    1  <O>11      -0.1779
   9 C6        0.5638     7.2635     4.2978  C.ar    1  <O>11       0.0751
  10 C7        1.5542     8.0123     5.0573  C.3     1  <O>11       0.0208
  11 C8        1.0942     9.4159     5.2653  C.3     1  <O>11      -0.0274
  12 C9        1.4903    10.0628     3.9465  C.3     1  <O>11       0.0153
  13 N4        2.6701     9.3308     3.5226  N.am    1  <O>11      -0.3006
  14 C10       3.5580     9.6686     2.5502  C.2     1  <O>11       0.2187
  15 O1        3.4056    10.7016     1.9157  O.2     1  <O>11      -0.2753
  16 C11       4.7175     8.7780     2.2580  C.3     1  <O>11       0.0358
  17 C12       5.5484     9.3512     1.1569  C.3     1  <O>11      -0.0419
  18 C13       6.9445     8.7896     1.4227  C.3     1  <O>11      -0.0523
  19 C14       6.9096     8.1872     2.8273  C.3     1  <O>11      -0.0523
  20 C15       5.6120     8.6859     3.4465  C.3     1  <O>11      -0.0419
  21 C16       2.8308     8.1039     4.2925  C.3     1  <O>11       0.0230
  22 C17       2.6639     4.6834     3.3579  C.ar    1  <O>11      -0.0356
  23 C18       3.8024     3.9729     3.7374  C.ar    1  <O>11       0.0302
  24 N5        4.1374     3.8086     5.0266  N.ar    1  <O>11      -0.2407
  25 H1        4.5551     3.6243     7.5678  H       1  <O>11       0.1437
  26 H2        3.1373     4.5403     8.0894  H       1  <O>11       0.1437
  27 H3       -1.8908     6.5737     2.5133  H       1  <O>11       0.1882
  28 H4        1.7206     7.5230     6.0159  H       1  <O>11       0.0380
  29 H5        0.0159     9.4620     5.4240  H       1  <O>11       0.0287
  30 H6        1.6048     9.8811     6.1073  H       1  <O>11       0.0287
  31 H7        0.6910     9.9641     3.2131  H       1  <O>11       0.0465
  32 H8        1.7233    11.1183     4.0914  H       1  <O>11       0.0465
  33 H9        4.3535     7.7869     1.9806  H       1  <O>11       0.0394
  34 H10       5.1791     9.0297     0.1844  H       1  <O>11       0.0272
  35 H11       5.5532    10.4402     1.2018  H       1  <O>11       0.0272
  36 H12       7.1863     8.0208     0.6895  H       1  <O>11       0.0265
  37 H13       7.6875     9.5866     1.3738  H       1  <O>11       0.0265
  38 H14       6.9138     7.0986     2.7759  H       1  <O>11       0.0265
  39 H15       7.7653     8.5279     3.4092  H       1  <O>11       0.0265
  40 H16       5.2259     7.9781     4.1808  H       1  <O>11       0.0272
  41 H17       5.7463     9.6594     3.9182  H       1  <O>11       0.0272
  42 H18       2.9552     7.2435     3.6353  H       1  <O>11       0.0471
  43 H19       3.6848     8.1749     4.9649  H       1  <O>11       0.0471
  44 H20       1.5999     5.4547     6.4321  H       1  <O>11       0.0658
  45 H21      -0.4079     4.4871     2.9393  H       1  <O>11       0.0830
  46 H22       2.4268     4.7886     2.3590  H       1  <O>11       0.0639
  47 H23       4.4041     3.5620     3.0065  H       1  <O>11       0.0830
@<TRIPOS>BOND
     1     1     2    1
     2     2     3   ar
     3     3     4   ar
     4     4     5    1
     5     5     6   ar
     6     6     7   ar
     7     7     8   ar
     8     8     9   ar
     9     5     9   ar
    10     9    10    1
    11    10    11    1
    12    11    12    1
    13    12    13    1
    14    13    14   am
    15    14    15    2
    16    14    16    1
    17    16    17    1
    18    17    18    1
    19    18    19    1
    20    19    20    1
    21    16    20    1
    22    13    21    1
    23    10    21    1
    24     4    22   ar
    25    22    23   ar
    26    23    24   ar
    27     2    24   ar
    28     1    25    1
    29     1    26    1
    30     7    27    1
    31    10    28    1
    32    11    29    1
    33    11    30    1
    34    12    31    1
    35    12    32    1
    36    16    33    1
    37    17    34    1
    38    17    35    1
    39    18    36    1
    40    18    37    1
    41    19    38    1
    42    19    39    1
    43    20    40    1
    44    20    41    1
    45    21    42    1
    46    21    43    1
    47     3    44    1
    48     6    45    1
    49    22    46    1
    50    23    47    1
@<TRIPOS>MOLECULE
mol6_2_16
 47 50 0 0 0
SMALL
USER_CHARGES
****
VDW energy = -54.63
@<TRIPOS>ATOM
   1 N1        3.7120     4.1520     7.3415  N.pl3   1  <O>11      -0.3431
   2 C1        3.3329     4.3488     5.9653  C.ar    1  <O>11       0.1167
   3 C2        2.1864     5.0670     5.6766  C.ar    1  <O>11      -0.0143
   4 C3        1.8446     5.2530     4.3395  C.ar    1  <O>11      -0.0100
   5 C4        0.7410     5.9700     3.9760  C.ar    1  <O>11       0.0230
   6 C5       -0.4632     5.4231     3.8104  C.ar    1  <O>11       0.0303
   7 N2       -1.1934     6.5226     3.3741  N.ar    1  <O>11      -0.2839
   8 N3       -0.4726     7.6854     3.4293  N.ar    1  <O>11      -0.1779
   9 C6        0.7644     7.2957     3.7522  C.ar    1  <O>11       0.0751
  10 C7        1.9873     8.0764     3.8689  C.3     1  <O>11       0.0208
  11 C8        1.7162     9.5113     3.5651  C.3     1  <O>11      -0.0274
  12 C9        1.7590     9.5120     2.0443  C.3     1  <O>11       0.0153
  13 N4        2.7046     8.4634     1.7069  N.am    1  <O>11      -0.3006
  14 C10       3.2937     8.2250     0.5052  C.2     1  <O>11       0.2187
  15 O1        4.0753     7.2939     0.3819  O.2     1  <O>11      -0.2753
  16 C11       2.9862     9.1001    -0.6620  C.3     1  <O>11       0.0358
  17 C12       3.7475     8.6482    -1.8651  C.3     1  <O>11      -0.0419
  18 C13       2.8857     9.1131    -3.0384  C.3     1  <O>11      -0.0523
  19 C14       1.5353     9.5213    -2.4498  C.3     1  <O>11      -0.0523
  20 C15       1.5437     8.9954    -1.0217  C.3     1  <O>11      -0.0419
  21 C16       2.9887     7.6218     2.8623  C.3     1  <O>11       0.0230
  22 C17       2.6639     4.6834     3.3579  C.ar    1  <O>11      -0.0356
  23 C18       3.8024     3.9729     3.7374  C.ar    1  <O>11       0.0302
  24 N5        4.1374     3.8086     5.0266  N.ar    1  <O>11      -0.2407
  25 H1        4.5551     3.6243     7.5678  H       1  <O>11       0.1437
  26 H2        3.1373     4.5403     8.0894  H       1  <O>11       0.1437
  27 H3       -2.1488     6.4514     3.0553  H       1  <O>11       0.1882
  28 H4        2.3880     7.9724     4.8763  H       1  <O>11       0.0380
  29 H5        0.7378     9.8191     3.9366  H       1  <O>11       0.0287
  30 H6        2.4840    10.1589     3.9862  H       1  <O>11       0.0287
  31 H7        0.7755     9.2921     1.6307  H       1  <O>11       0.0465
  32 H8        2.1039    10.4766     1.6703  H       1  <O>11       0.0465
  33 H9        3.2415    10.1333    -0.4188  H       1  <O>11       0.0394
  34 H10       4.7319     9.1124    -1.8984  H       1  <O>11       0.0272
  35 H11       3.8569     7.5638    -1.8697  H       1  <O>11       0.0272
  36 H12       3.3528     9.9635    -3.5341  H       1  <O>11       0.0265
  37 H13       2.7537     8.3011    -3.7546  H       1  <O>11       0.0265
  38 H14       1.4284    10.6058    -2.4561  H       1  <O>11       0.0265
  39 H15       0.7210     9.0715    -3.0168  H       1  <O>11       0.0265
  40 H16       0.9254     9.6124    -0.3688  H       1  <O>11       0.0272
  41 H17       1.1979     7.9627    -0.9775  H       1  <O>11       0.0272
  42 H18       2.8501     6.5679     2.6216  H       1  <O>11       0.0471
  43 H19       4.0044     7.7828     3.2213  H       1  <O>11       0.0471
  44 H20       1.5999     5.4547     6.4321  H       1  <O>11       0.0658
  45 H21      -0.7697     4.4497     3.9640  H       1  <O>11       0.0830
  46 H22       2.4268     4.7886     2.3590  H       1  <O>11       0.0639
  47 H23       4.4041     3.5620     3.0065  H       1  <O>11       0.0830
@<TRIPOS>BOND
     1     1     2    1
     2     2     3   ar
     3     3     4   ar
     4     4     5    1
     5     5     6   ar
     6     6     7   ar
     7     7     8   ar
     8     8     9   ar
     9     5     9   ar
    10     9    10    1
    11    10    11    1
    12    11    12    1
    13    12    13    1
    14    13    14   am
    15    14    15    2
    16    14    16    1
    17    16    17    1
    18    17    18    1
    19    18    19    1
    20    19    20    1
    21    16    20    1
    22    13    21    1
    23    10    21    1
    24     4    22   ar
    25    22    23   ar
    26    23    24   ar
    27     2    24   ar
    28     1    25    1
    29     1    26    1
    30     7    27    1
    31    10    28    1
    32    11    29    1
    33    11    30    1
    34    12    31    1
    35    12    32    1
    36    16    33    1
    37    17    34    1
    38    17    35    1
    39    18    36    1
    40    18    37    1
    41    19    38    1
    42    19    39    1
    43    20    40    1
    44    20    41    1
    45    21    42    1
    46    21    43    1
    47     3    44    1
    48     6    45    1
    49    22    46    1
    50    23    47    1
@<TRIPOS>MOLECULE
mol6_2_17
 47 50 0 0 0
SMALL
USER_CHARGES
****
VDW energy = -52.28
@<TRIPOS>ATOM
   1 N1        3.7120     4.1520     7.3415  N.pl3   1  <O>11      -0.3431
   2 C1        3.3329     4.3488     5.9653  C.ar    1  <O>11       0.1167
   3 C2        2.1864     5.0670     5.6766  C.ar    1  <O>11      -0.0143
   4 C3        1.8446     5.2530     4.3395  C.ar    1  <O>11      -0.0100
   5 C4        0.7410     5.9700     3.9760  C.ar    1  <O>11       0.0230
   6 C5        0.7647     7.2839     3.7528  C.ar    1  <O>11       0.0303
   7 N2       -0.5804     7.5327     3.5055  N.ar    1  <O>11      -0.2839
   8 N3       -1.3228     6.3839     3.4432  N.ar    1  <O>11      -0.1779
   9 C6       -0.4735     5.4182     3.8075  C.ar    1  <O>11       0.0751
  10 C7       -0.7111     3.9973     4.0153  C.3     1  <O>11       0.0208
  11 C8       -2.1432     3.6689     3.7582  C.3     1  <O>11      -0.0274
  12 C9       -2.7852     4.0576     5.0816  C.3     1  <O>11       0.0153
  13 N4       -1.7501     3.8193     6.0714  N.am    1  <O>11      -0.3006
  14 C10      -1.8843     3.7622     7.4229  C.2     1  <O>11       0.2187
  15 O1       -2.9820     3.9216     7.9353  O.2     1  <O>11      -0.2753
  16 C11      -0.6916     3.5054     8.2798  C.3     1  <O>11       0.0358
  17 C12      -0.0381     4.7937     8.6602  C.3     1  <O>11      -0.0419
  18 C13       0.6526     4.4753     9.9857  C.3     1  <O>11      -0.0523
  19 C14       0.1011     3.1271    10.4494  C.3     1  <O>11      -0.0523
  20 C15      -1.1017     2.8564     9.5572  C.3     1  <O>11      -0.0419
  21 C16      -0.4513     3.6325     5.4373  C.3     1  <O>11       0.0230
  22 C17       2.6639     4.6834     3.3579  C.ar    1  <O>11      -0.0356
  23 C18       3.8024     3.9729     3.7374  C.ar    1  <O>11       0.0302
  24 N5        4.1374     3.8086     5.0266  N.ar    1  <O>11      -0.2407
  25 H1        4.5551     3.6243     7.5678  H       1  <O>11       0.1437
  26 H2        3.1373     4.5403     8.0894  H       1  <O>11       0.1437
  27 H3       -0.9502     8.4649     3.3879  H       1  <O>11       0.1882
  28 H4       -0.0664     3.4221     3.3523  H       1  <O>11       0.0380
  29 H5       -2.5446     4.2577     2.9322  H       1  <O>11       0.0287
  30 H6       -2.2762     2.6090     3.5461  H       1  <O>11       0.0287
  31 H7       -3.0781     5.1067     5.0748  H       1  <O>11       0.0465
  32 H8       -3.6592     3.4368     5.2812  H       1  <O>11       0.0465
  33 H9        0.0127     2.8686     7.7409  H       1  <O>11       0.0394
  34 H10       0.6875     5.0979     7.9075  H       1  <O>11       0.0272
  35 H11      -0.7802     5.5815     8.7887  H       1  <O>11       0.0272
  36 H12       1.7308     4.4114     9.8420  H       1  <O>11       0.0265
  37 H13       0.4282     5.2470    10.7230  H       1  <O>11       0.0265
  38 H14       0.8505     2.3455    10.3266  H       1  <O>11       0.0265
  39 H15      -0.2034     3.1791    11.4942  H       1  <O>11       0.0265
  40 H16      -1.2640     1.7861     9.4251  H       1  <O>11       0.0272
  41 H17      -2.0057     3.3122     9.9612  H       1  <O>11       0.0272
  42 H18       0.2973     4.2900     5.8789  H       1  <O>11       0.0471
  43 H19      -0.1220     2.5976     5.5213  H       1  <O>11       0.0471
  44 H20       1.5999     5.4547     6.4321  H       1  <O>11       0.0658
  45 H21       1.5632     7.9376     3.7613  H       1  <O>11       0.0830
  46 H22       2.4268     4.7886     2.3590  H       1  <O>11       0.0639
  47 H23       4.4041     3.5620     3.0065  H       1  <O>11       0.0830
@<TRIPOS>BOND
     1     1     2    1
     2     2     3   ar
     3     3     4   ar
     4     4     5    1
     5     5     6   ar
     6     6     7   ar
     7     7     8   ar
     8     8     9   ar
     9     5     9   ar
    10     9    10    1
    11    10    11    1
    12    11    12    1
    13    12    13    1
    14    13    14   am
    15    14    15    2
    16    14    16    1
    17    16    17    1
    18    17    18    1
    19    18    19    1
    20    19    20    1
    21    16    20    1
    22    13    21    1
    23    10    21    1
    24     4    22   ar
    25    22    23   ar
    26    23    24   ar
    27     2    24   ar
    28     1    25    1
    29     1    26    1
    30     7    27    1
    31    10    28    1
    32    11    29    1
    33    11    30    1
    34    12    31    1
    35    12    32    1
    36    16    33    1
    37    17    34    1
    38    17    35    1
    39    18    36    1
    40    18    37    1
    41    19    38    1
    42    19    39    1
    43    20    40    1
    44    20    41    1
    45    21    42    1
    46    21    43    1
    47     3    44    1
    48     6    45    1
    49    22    46    1
    50    23    47    1
@<TRIPOS>MOLECULE
mol6_2_18
 47 50 0 0 0
SMALL
USER_CHARGES
****
VDW energy = -51.47
@<TRIPOS>ATOM
   1 N1        3.7120     4.1520     7.3415  N.pl3   1  <O>11      -0.3431
   2 C1        3.3329     4.3488     5.9653  C.ar    1  <O>11       0.1167
   3 C2        2.1864     5.0670     5.6766  C.ar    1  <O>11      -0.0143
   4 C3        1.8446     5.2530     4.3395  C.ar    1  <O>11      -0.0100
   5 C4        0.7410     5.9700     3.9760  C.ar    1  <O>11       0.0230
   6 C5       -0.4632     5.4231     3.8104  C.ar    1  <O>11       0.0303
   7 N2       -1.1934     6.5226     3.3741  N.ar    1  <O>11      -0.2839
   8 N3       -0.4726     7.6854     3.4293  N.ar    1  <O>11      -0.1779
   9 C6        0.7644     7.2957     3.7522  C.ar    1  <O>11       0.0751
  10 C7        1.9873     8.0764     3.8689  C.3     1  <O>11       0.0208
  11 C8        1.7162     9.5113     3.5651  C.3     1  <O>11      -0.0274
  12 C9        1.7590     9.5120     2.0443  C.3     1  <O>11       0.0153
  13 N4        2.7046     8.4634     1.7069  N.am    1  <O>11      -0.3006
  14 C10       3.2937     8.2250     0.5052  C.2     1  <O>11       0.2187
  15 O1        3.0422     8.9422    -0.4516  O.2     1  <O>11      -0.2753
  16 C11       4.2463     7.0880     0.3549  C.3     1  <O>11       0.0358
  17 C12       3.5168     5.8491    -0.0506  C.3     1  <O>11      -0.0419
  18 C13       4.5694     5.0349    -0.8019  C.3     1  <O>11      -0.0523
  19 C14       5.7443     5.9780    -1.0602  C.3     1  <O>11      -0.0523
  20 C15       5.2212     7.3700    -0.7364  C.3     1  <O>11      -0.0419
  21 C16       2.9887     7.6218     2.8623  C.3     1  <O>11       0.0230
  22 C17       2.6639     4.6834     3.3579  C.ar    1  <O>11      -0.0356
  23 C18       3.8024     3.9729     3.7374  C.ar    1  <O>11       0.0302
  24 N5        4.1374     3.8086     5.0266  N.ar    1  <O>11      -0.2407
  25 H1        4.5551     3.6243     7.5678  H       1  <O>11       0.1437
  26 H2        3.1373     4.5403     8.0894  H       1  <O>11       0.1437
  27 H3       -2.1488     6.4514     3.0553  H       1  <O>11       0.1882
  28 H4        2.3880     7.9724     4.8763  H       1  <O>11       0.0380
  29 H5        0.7378     9.8191     3.9366  H       1  <O>11       0.0287
  30 H6        2.4840    10.1589     3.9862  H       1  <O>11       0.0287
  31 H7        0.7755     9.2921     1.6307  H       1  <O>11       0.0465
  32 H8        2.1039    10.4766     1.6703  H       1  <O>11       0.0465
  33 H9        4.7709     6.9263     1.2986  H       1  <O>11       0.0394
  34 H10       3.1570     5.3072     0.8227  H       1  <O>11       0.0272
  35 H11       2.6757     6.0899    -0.7005  H       1  <O>11       0.0272
  36 H12       4.8923     4.1884    -0.1966  H       1  <O>11       0.0265
  37 H13       4.1627     4.6731    -1.7470  H       1  <O>11       0.0265
  38 H14       6.5848     5.7267    -0.4137  H       1  <O>11       0.0265
  39 H15       6.0564     5.9211    -2.1025  H       1  <O>11       0.0265
  40 H16       6.0232     8.0247    -0.3937  H       1  <O>11       0.0272
  41 H17       4.7309     7.8200    -1.5997  H       1  <O>11       0.0272
  42 H18       2.8501     6.5679     2.6216  H       1  <O>11       0.0471
  43 H19       4.0044     7.7828     3.2213  H       1  <O>11       0.0471
  44 H20       1.5999     5.4547     6.4321  H       1  <O>11       0.0658
  45 H21      -0.7697     4.4497     3.9640  H       1  <O>11       0.0830
  46 H22       2.4268     4.7886     2.3590  H       1  <O>11       0.0639
  47 H23       4.4041     3.5620     3.0065  H       1  <O>11       0.0830
@<TRIPOS>BOND
     1     1     2    1
     2     2     3   ar
     3     3     4   ar
     4     4     5    1
     5     5     6   ar
     6     6     7   ar
     7     7     8   ar
     8     8     9   ar
     9     5     9   ar
    10     9    10    1
    11    10    11    1
    12    11    12    1
    13    12    13    1
    14    13    14   am
    15    14    15    2
    16    14    16    1
    17    16    17    1
    18    17    18    1
    19    18    19    1
    20    19    20    1
    21    16    20    1
    22    13    21    1
    23    10    21    1
    24     4    22   ar
    25    22    23   ar
    26    23    24   ar
    27     2    24   ar
    28     1    25    1
    29     1    26    1
    30     7    27    1
    31    10    28    1
    32    11    29    1
    33    11    30    1
    34    12    31    1
    35    12    32    1
    36    16    33    1
    37    17    34    1
    38    17    35    1
    39    18    36    1
    40    18    37    1
    41    19    38    1
    42    19    39    1
    43    20    40    1
    44    20    41    1
    45    21    42    1
    46    21    43    1
    47     3    44    1
    48     6    45    1
    49    22    46    1
    50    23    47    1
@<TRIPOS>MOLECULE
mol6_2_19
 47 50 0 0 0
SMALL
USER_CHARGES
****
VDW energy = -49.77
@<TRIPOS>ATOM
   1 N1        3.7120     4.1520     7.3415  N.pl3   1  <O>11      -0.3431
   2 C1        3.3329     4.3488     5.9653  C.ar    1  <O>11       0.1167
   3 C2        2.1864     5.0670     5.6766  C.ar    1  <O>11      -0.0143
   4 C3        1.8446     5.2530     4.3395  C.ar    1  <O>11      -0.0100
   5 C4        0.7410     5.9700     3.9760  C.ar    1  <O>11       0.0230
   6 C5        0.7647     7.2839     3.7528  C.ar    1  <O>11       0.0303
   7 N2       -0.5804     7.5327     3.5055  N.ar    1  <O>11      -0.2839
   8 N3       -1.3228     6.3839     3.4432  N.ar    1  <O>11      -0.1779
   9 C6       -0.4735     5.4182     3.8075  C.ar    1  <O>11       0.0751
  10 C7       -0.7111     3.9973     4.0153  C.3     1  <O>11       0.0208
  11 C8       -2.1432     3.6689     3.7582  C.3     1  <O>11      -0.0274
  12 C9       -2.7852     4.0576     5.0816  C.3     1  <O>11       0.0153
  13 N4       -1.7501     3.8193     6.0714  N.am    1  <O>11      -0.3006
  14 C10      -1.8843     3.7622     7.4229  C.2     1  <O>11       0.2187
  15 O1       -2.9820     3.9216     7.9353  O.2     1  <O>11      -0.2753
  16 C11      -0.6916     3.5054     8.2798  C.3     1  <O>11       0.0358
  17 C12      -1.0815     3.4887     9.7217  C.3     1  <O>11      -0.0419
  18 C13      -0.0319     2.5893    10.3734  C.3     1  <O>11      -0.0523
  19 C14       0.7084     1.8899     9.2333  C.3     1  <O>11      -0.0523
  20 C15      -0.1252     2.1579     7.9886  C.3     1  <O>11      -0.0419
  21 C16      -0.4513     3.6325     5.4373  C.3     1  <O>11       0.0230
  22 C17       2.6639     4.6834     3.3579  C.ar    1  <O>11      -0.0356
  23 C18       3.8024     3.9729     3.7374  C.ar    1  <O>11       0.0302
  24 N5        4.1374     3.8086     5.0266  N.ar    1  <O>11      -0.2407
  25 H1        4.5551     3.6243     7.5678  H       1  <O>11       0.1437
  26 H2        3.1373     4.5403     8.0894  H       1  <O>11       0.1437
  27 H3       -0.9502     8.4649     3.3879  H       1  <O>11       0.1882
  28 H4       -0.0664     3.4221     3.3523  H       1  <O>11       0.0380
  29 H5       -2.5446     4.2577     2.9322  H       1  <O>11       0.0287
  30 H6       -2.2762     2.6090     3.5461  H       1  <O>11       0.0287
  31 H7       -3.0781     5.1067     5.0748  H       1  <O>11       0.0465
  32 H8       -3.6592     3.4368     5.2812  H       1  <O>11       0.0465
  33 H9        0.0584     4.2780     8.0996  H       1  <O>11       0.0394
  34 H10      -1.0496     4.4918    10.1440  H       1  <O>11       0.0272
  35 H11      -2.0811     3.0730     9.8479  H       1  <O>11       0.0272
  36 H12       0.6628     3.1878    10.9619  H       1  <O>11       0.0265
  37 H13      -0.5137     1.8522    11.0169  H       1  <O>11       0.0265
  38 H14       1.7098     2.3039     9.1179  H       1  <O>11       0.0265
  39 H15       0.7762     0.8193     9.4234  H       1  <O>11       0.0265
  40 H16       0.4953     2.1728     7.0920  H       1  <O>11       0.0272
  41 H17      -0.9129     1.4137     7.8711  H       1  <O>11       0.0272
  42 H18       0.2973     4.2900     5.8789  H       1  <O>11       0.0471
  43 H19      -0.1220     2.5976     5.5213  H       1  <O>11       0.0471
  44 H20       1.5999     5.4547     6.4321  H       1  <O>11       0.0658
  45 H21       1.5632     7.9376     3.7613  H       1  <O>11       0.0830
  46 H22       2.4268     4.7886     2.3590  H       1  <O>11       0.0639
  47 H23       4.4041     3.5620     3.0065  H       1  <O>11       0.0830
@<TRIPOS>BOND
     1     1     2    1
     2     2     3   ar
     3     3     4   ar
     4     4     5    1
     5     5     6   ar
     6     6     7   ar
     7     7     8   ar
     8     8     9   ar
     9     5     9   ar
    10     9    10    1
    11    10    11    1
    12    11    12    1
    13    12    13    1
    14    13    14   am
    15    14    15    2
    16    14    16    1
    17    16    17    1
    18    17    18    1
    19    18    19    1
    20    19    20    1
    21    16    20    1
    22    13    21    1
    23    10    21    1
    24     4    22   ar
    25    22    23   ar
    26    23    24   ar
    27     2    24   ar
    28     1    25    1
    29     1    26    1
    30     7    27    1
    31    10    28    1
    32    11    29    1
    33    11    30    1
    34    12    31    1
    35    12    32    1
    36    16    33    1
    37    17    34    1
    38    17    35    1
    39    18    36    1
    40    18    37    1
    41    19    38    1
    42    19    39    1
    43    20    40    1
    44    20    41    1
    45    21    42    1
    46    21    43    1
    47     3    44    1
    48     6    45    1
    49    22    46    1
    50    23    47    1
@<TRIPOS>MOLECULE
mol6_2_20
 47 50 0 0 0
SMALL
USER_CHARGES
****
VDW energy = -48.77
@<TRIPOS>ATOM
   1 N1        3.7120     4.1520     7.3415  N.pl3   1  <O>11      -0.3431
   2 C1        3.3329     4.3488     5.9653  C.ar    1  <O>11       0.1167
   3 C2        2.1864     5.0670     5.6766  C.ar    1  <O>11      -0.0143
   4 C3        1.8446     5.2530     4.3395  C.ar    1  <O>11      -0.0100
   5 C4        0.7410     5.9700     3.9760  C.ar    1  <O>11       0.0230
   6 C5       -0.4632     5.4231     3.8104  C.ar    1  <O>11       0.0303
   7 N2       -1.1934     6.5226     3.3741  N.ar    1  <O>11      -0.2839
   8 N3       -0.4726     7.6854     3.4293  N.ar    1  <O>11      -0.1779
   9 C6        0.7644     7.2957     3.7522  C.ar    1  <O>11       0.0751
  10 C7        1.9873     8.0764     3.8689  C.3     1  <O>11       0.0208
  11 C8        1.7162     9.5113     3.5651  C.3     1  <O>11      -0.0274
  12 C9        1.7590     9.5120     2.0443  C.3     1  <O>11       0.0153
  13 N4        2.7046     8.4634     1.7069  N.am    1  <O>11      -0.3006
  14 C10       3.2937     8.2250     0.5052  C.2     1  <O>11       0.2187
  15 O1        3.0422     8.9422    -0.4516  O.2     1  <O>11      -0.2753
  16 C11       4.2463     7.0880     0.3549  C.3     1  <O>11       0.0358
  17 C12       4.7615     7.0233    -1.0457  C.3     1  <O>11      -0.0419
  18 C13       6.1274     6.3533    -0.9018  C.3     1  <O>11      -0.0523
  19 C14       6.4575     6.3573     0.5908  C.3     1  <O>11      -0.0523
  20 C15       5.4386     7.2929     1.2253  C.3     1  <O>11      -0.0419
  21 C16       2.9887     7.6218     2.8623  C.3     1  <O>11       0.0230
  22 C17       2.6639     4.6834     3.3579  C.ar    1  <O>11      -0.0356
  23 C18       3.8024     3.9729     3.7374  C.ar    1  <O>11       0.0302
  24 N5        4.1374     3.8086     5.0266  N.ar    1  <O>11      -0.2407
  25 H1        4.5551     3.6243     7.5678  H       1  <O>11       0.1437
  26 H2        3.1373     4.5403     8.0894  H       1  <O>11       0.1437
  27 H3       -2.1488     6.4514     3.0553  H       1  <O>11       0.1882
  28 H4        2.3880     7.9724     4.8763  H       1  <O>11       0.0380
  29 H5        0.7378     9.8191     3.9366  H       1  <O>11       0.0287
  30 H6        2.4840    10.1589     3.9862  H       1  <O>11       0.0287
  31 H7        0.7755     9.2921     1.6307  H       1  <O>11       0.0465
  32 H8        2.1039    10.4766     1.6703  H       1  <O>11       0.0465
  33 H9        3.7428     6.1552     0.6163  H       1  <O>11       0.0394
  34 H10       4.1014     6.4283    -1.6749  H       1  <O>11       0.0272
  35 H11       4.8621     8.0230    -1.4681  H       1  <O>11       0.0272
  36 H12       6.0856     5.3306    -1.2752  H       1  <O>11       0.0265
  37 H13       6.8823     6.9130    -1.4554  H       1  <O>11       0.0265
  38 H14       6.3635     5.3538     1.0051  H       1  <O>11       0.0265
  39 H15       7.4689     6.7267     0.7563  H       1  <O>11       0.0265
  40 H16       5.2304     7.0102     2.2578  H       1  <O>11       0.0272
  41 H17       5.7783     8.3282     1.1953  H       1  <O>11       0.0272
  42 H18       2.8501     6.5679     2.6216  H       1  <O>11       0.0471
  43 H19       4.0044     7.7828     3.2213  H       1  <O>11       0.0471
  44 H20       1.5999     5.4547     6.4321  H       1  <O>11       0.0658
  45 H21      -0.7697     4.4497     3.9640  H       1  <O>11       0.0830
  46 H22       2.4268     4.7886     2.3590  H       1  <O>11       0.0639
  47 H23       4.4041     3.5620     3.0065  H       1  <O>11       0.0830
@<TRIPOS>BOND
     1     1     2    1
     2     2     3   ar
     3     3     4   ar
     4     4     5    1
     5     5     6   ar
     6     6     7   ar
     7     7     8   ar
     8     8     9   ar
     9     5     9   ar
    10     9    10    1
    11    10    11    1
    12    11    12    1
    13    12    13    1
    14    13    14   am
    15    14    15    2
    16    14    16    1
    17    16    17    1
    18    17    18    1
    19    18    19    1
    20    19    20    1
    21    16    20    1
    22    13    21    1
    23    10    21    1
    24     4    22   ar
    25    22    23   ar
    26    23    24   ar
    27     2    24   ar
    28     1    25    1
    29     1    26    1
    30     7    27    1
    31    10    28    1
    32    11    29    1
    33    11    30    1
    34    12    31    1
    35    12    32    1
    36    16    33    1
    37    17    34    1
    38    17    35    1
    39    18    36    1
    40    18    37    1
    41    19    38    1
    42    19    39    1
    43    20    40    1
    44    20    41    1
    45    21    42    1
    46    21    43    1
    47     3    44    1
    48     6    45    1
    49    22    46    1
    50    23    47    1
@<TRIPOS>MOLECULE
mol6_2_21
 47 50 0 0 0
SMALL
USER_CHARGES
****
VDW energy = -47.95
@<TRIPOS>ATOM
   1 N1        3.7120     4.1520     7.3415  N.pl3   1  <O>11      -0.3431
   2 C1        3.3329     4.3488     5.9653  C.ar    1  <O>11       0.1167
   3 C2        2.1864     5.0670     5.6766  C.ar    1  <O>11      -0.0143
   4 C3        1.8446     5.2530     4.3395  C.ar    1  <O>11      -0.0100
   5 C4        0.7410     5.9700     3.9760  C.ar    1  <O>11       0.0230
   6 C5       -0.2647     5.4544     3.2693  C.ar    1  <O>11       0.0303
   7 N2       -1.0679     6.5760     3.0983  N.ar    1  <O>11      -0.2839
   8 N3       -0.6144     7.6576     3.8048  N.ar    1  <O>11      -0.1779
   9 C6        0.5638     7.2635     4.2978  C.ar    1  <O>11       0.0751
  10 C7        1.5542     8.0123     5.0573  C.3     1  <O>11       0.0208
  11 C8        1.0942     9.4159     5.2653  C.3     1  <O>11      -0.0274
  12 C9        1.4903    10.0628     3.9465  C.3     1  <O>11       0.0153
  13 N4        2.6701     9.3308     3.5226  N.am    1  <O>11      -0.3006
  14 C10       3.5580     9.6686     2.5502  C.2     1  <O>11       0.2187
  15 O1        4.5090     8.9396     2.3112  O.2     1  <O>11      -0.2753
  16 C11       3.3713    10.9289     1.7760  C.3     1  <O>11       0.0358
  17 C12       3.0412    12.0592     2.6951  C.3     1  <O>11      -0.0419
  18 C13       3.5431    13.2950     1.9491  C.3     1  <O>11      -0.0523
  19 C14       4.4104    12.7845     0.7984  C.3     1  <O>11      -0.0523
  20 C15       4.6395    11.3089     1.0916  C.3     1  <O>11      -0.0419
  21 C16       2.8308     8.1039     4.2925  C.3     1  <O>11       0.0230
  22 C17       2.6639     4.6834     3.3579  C.ar    1  <O>11      -0.0356
  23 C18       3.8024     3.9729     3.7374  C.ar    1  <O>11       0.0302
  24 N5        4.1374     3.8086     5.0266  N.ar    1  <O>11      -0.2407
  25 H1        4.5551     3.6243     7.5678  H       1  <O>11       0.1437
  26 H2        3.1373     4.5403     8.0894  H       1  <O>11       0.1437
  27 H3       -1.8908     6.5737     2.5133  H       1  <O>11       0.1882
  28 H4        1.7206     7.5230     6.0159  H       1  <O>11       0.0380
  29 H5        0.0159     9.4620     5.4240  H       1  <O>11       0.0287
  30 H6        1.6048     9.8811     6.1073  H       1  <O>11       0.0287
  31 H7        0.6910     9.9641     3.2131  H       1  <O>11       0.0465
  32 H8        1.7233    11.1183     4.0914  H       1  <O>11       0.0465
  33 H9        2.5731    10.7909     1.0441  H       1  <O>11       0.0394
  34 H10       1.9677    12.1188     2.8671  H       1  <O>11       0.0272
  35 H11       3.5562    11.9460     3.6490  H       1  <O>11       0.0272
  36 H12       2.7012    13.8672     1.5606  H       1  <O>11       0.0265
  37 H13       4.1346    13.9237     2.6157  H       1  <O>11       0.0265
  38 H14       3.8937    12.9084    -0.1530  H       1  <O>11       0.0265
  39 H15       5.3592    13.3193     0.7703  H       1  <O>11       0.0265
  40 H16       4.7811    10.7397     0.1722  H       1  <O>11       0.0272
  41 H17       5.5009    11.1633     1.7435  H       1  <O>11       0.0272
  42 H18       2.9552     7.2435     3.6353  H       1  <O>11       0.0471
  43 H19       3.6848     8.1749     4.9649  H       1  <O>11       0.0471
  44 H20       1.5999     5.4547     6.4321  H       1  <O>11       0.0658
  45 H21      -0.4079     4.4871     2.9393  H       1  <O>11       0.0830
  46 H22       2.4268     4.7886     2.3590  H       1  <O>11       0.0639
  47 H23       4.4041     3.5620     3.0065  H       1  <O>11       0.0830
@<TRIPOS>BOND
     1     1     2    1
     2     2     3   ar
     3     3     4   ar
     4     4     5    1
     5     5     6   ar
     6     6     7   ar
     7     7     8   ar
     8     8     9   ar
     9     5     9   ar
    10     9    10    1
    11    10    11    1
    12    11    12    1
    13    12    13    1
    14    13    14   am
    15    14    15    2
    16    14    16    1
    17    16    17    1
    18    17    18    1
    19    18    19    1
    20    19    20    1
    21    16    20    1
    22    13    21    1
    23    10    21    1
    24     4    22   ar
    25    22    23   ar
    26    23    24   ar
    27     2    24   ar
    28     1    25    1
    29     1    26    1
    30     7    27    1
    31    10    28    1
    32    11    29    1
    33    11    30    1
    34    12    31    1
    35    12    32    1
    36    16    33    1
    37    17    34    1
    38    17    35    1
    39    18    36    1
    40    18    37    1
    41    19    38    1
    42    19    39    1
    43    20    40    1
    44    20    41    1
    45    21    42    1
    46    21    43    1
    47     3    44    1
    48     6    45    1
    49    22    46    1
    50    23    47    1
@<TRIPOS>MOLECULE
mol6_2_22
 47 50 0 0 0
SMALL
USER_CHARGES
****
VDW energy = -42.21
@<TRIPOS>ATOM
   1 N1        3.7120     4.1520     7.3415  N.pl3   1  <O>11      -0.3431
   2 C1        3.3329     4.3488     5.9653  C.ar    1  <O>11       0.1167
   3 C2        2.1864     5.0670     5.6766  C.ar    1  <O>11      -0.0143
   4 C3        1.8446     5.2530     4.3395  C.ar    1  <O>11      -0.0100
   5 C4        0.7410     5.9700     3.9760  C.ar    1  <O>11       0.0230
   6 C5        0.7647     7.2839     3.7528  C.ar    1  <O>11       0.0303
   7 N2       -0.5804     7.5327     3.5055  N.ar    1  <O>11      -0.2839
   8 N3       -1.3228     6.3839     3.4432  N.ar    1  <O>11      -0.1779
   9 C6       -0.4735     5.4182     3.8075  C.ar    1  <O>11       0.0751
  10 C7       -0.7111     3.9973     4.0153  C.3     1  <O>11       0.0208
  11 C8       -2.1432     3.6689     3.7582  C.3     1  <O>11      -0.0274
  12 C9       -2.7852     4.0576     5.0816  C.3     1  <O>11       0.0153
  13 N4       -1.7501     3.8193     6.0714  N.am    1  <O>11      -0.3006
  14 C10      -1.8843     3.7622     7.4229  C.2     1  <O>11       0.2187
  15 O1       -0.9072     3.5507     8.1255  O.2     1  <O>11      -0.2753
  16 C11      -3.2239     3.9572     8.0476  C.3     1  <O>11       0.0358
  17 C12      -4.2585     3.1662     7.3159  C.3     1  <O>11      -0.0419
  18 C13      -5.3282     2.8974     8.3736  C.3     1  <O>11      -0.0523
  19 C14      -4.7096     3.2705     9.7208  C.3     1  <O>11      -0.0523
  20 C15      -3.2227     3.4431     9.4464  C.3     1  <O>11      -0.0419
  21 C16      -0.4513     3.6325     5.4373  C.3     1  <O>11       0.0230
  22 C17       2.6639     4.6834     3.3579  C.ar    1  <O>11      -0.0356
  23 C18       3.8024     3.9729     3.7374  C.ar    1  <O>11       0.0302
  24 N5        4.1374     3.8086     5.0266  N.ar    1  <O>11      -0.2407
  25 H1        4.5551     3.6243     7.5678  H       1  <O>11       0.1437
  26 H2        3.1373     4.5403     8.0894  H       1  <O>11       0.1437
  27 H3       -0.9502     8.4649     3.3879  H       1  <O>11       0.1882
  28 H4       -0.0664     3.4221     3.3523  H       1  <O>11       0.0380
  29 H5       -2.5446     4.2577     2.9322  H       1  <O>11       0.0287
  30 H6       -2.2762     2.6090     3.5461  H       1  <O>11       0.0287
  31 H7       -3.0781     5.1067     5.0748  H       1  <O>11       0.0465
  32 H8       -3.6592     3.4368     5.2812  H       1  <O>11       0.0465
  33 H9       -3.4798     5.0184     8.0346  H       1  <O>11       0.0394
  34 H10      -4.6687     3.7383     6.4852  H       1  <O>11       0.0272
  35 H11      -3.8393     2.2323     6.9417  H       1  <O>11       0.0272
  36 H12      -6.2089     3.5094     8.1815  H       1  <O>11       0.0265
  37 H13      -5.6084     1.8433     8.3674  H       1  <O>11       0.0265
  38 H14      -5.1389     4.2001    10.0935  H       1  <O>11       0.0265
  39 H15      -4.8733     2.4760    10.4481  H       1  <O>11       0.0265
  40 H16      -2.7739     4.1612    10.1335  H       1  <O>11       0.0272
  41 H17      -2.6932     2.4931     9.5193  H       1  <O>11       0.0272
  42 H18       0.2973     4.2900     5.8789  H       1  <O>11       0.0471
  43 H19      -0.1220     2.5976     5.5213  H       1  <O>11       0.0471
  44 H20       1.5999     5.4547     6.4321  H       1  <O>11       0.0658
  45 H21       1.5632     7.9376     3.7613  H       1  <O>11       0.0830
  46 H22       2.4268     4.7886     2.3590  H       1  <O>11       0.0639
  47 H23       4.4041     3.5620     3.0065  H       1  <O>11       0.0830
@<TRIPOS>BOND
     1     1     2    1
     2     2     3   ar
     3     3     4   ar
     4     4     5    1
     5     5     6   ar
     6     6     7   ar
     7     7     8   ar
     8     8     9   ar
     9     5     9   ar
    10     9    10    1
    11    10    11    1
    12    11    12    1
    13    12    13    1
    14    13    14   am
    15    14    15    2
    16    14    16    1
    17    16    17    1
    18    17    18    1
    19    18    19    1
    20    19    20    1
    21    16    20    1
    22    13    21    1
    23    10    21    1
    24     4    22   ar
    25    22    23   ar
    26    23    24   ar
    27     2    24   ar
    28     1    25    1
    29     1    26    1
    30     7    27    1
    31    10    28    1
    32    11    29    1
    33    11    30    1
    34    12    31    1
    35    12    32    1
    36    16    33    1
    37    17    34    1
    38    17    35    1
    39    18    36    1
    40    18    37    1
    41    19    38    1
    42    19    39    1
    43    20    40    1
    44    20    41    1
    45    21    42    1
    46    21    43    1
    47     3    44    1
    48     6    45    1
    49    22    46    1
    50    23    47    1
@<TRIPOS>MOLECULE
mol6_2_23
 47 50 0 0 0
SMALL
USER_CHARGES
****
VDW energy = -41.34
@<TRIPOS>ATOM
   1 N1        3.7120     4.1520     7.3415  N.pl3   1  <O>11      -0.3431
   2 C1        3.3329     4.3488     5.9653  C.ar    1  <O>11       0.1167
   3 C2        2.1864     5.0670     5.6766  C.ar    1  <O>11      -0.0143
   4 C3        1.8446     5.2530     4.3395  C.ar    1  <O>11      -0.0100
   5 C4        0.7410     5.9700     3.9760  C.ar    1  <O>11       0.0230
   6 C5       -0.4632     5.4231     3.8104  C.ar    1  <O>11       0.0303
   7 N2       -1.1934     6.5226     3.3741  N.ar    1  <O>11      -0.2839
   8 N3       -0.4726     7.6854     3.4293  N.ar    1  <O>11      -0.1779
   9 C6        0.7644     7.2957     3.7522  C.ar    1  <O>11       0.0751
  10 C7        1.9873     8.0764     3.8689  C.3     1  <O>11       0.0208
  11 C8        1.7162     9.5113     3.5651  C.3     1  <O>11      -0.0274
  12 C9        1.7590     9.5120     2.0443  C.3     1  <O>11       0.0153
  13 N4        2.7046     8.4634     1.7069  N.am    1  <O>11      -0.3006
  14 C10       3.2937     8.2250     0.5052  C.2     1  <O>11       0.2187
  15 O1        4.0753     7.2939     0.3819  O.2     1  <O>11      -0.2753
  16 C11       2.9862     9.1001    -0.6620  C.3     1  <O>11       0.0358
  17 C12       3.0254    10.5377    -0.2581  C.3     1  <O>11      -0.0419
  18 C13       3.3808    11.2707    -1.5511  C.3     1  <O>11      -0.0523
  19 C14       3.8336    10.2015    -2.5455  C.3     1  <O>11      -0.0523
  20 C15       4.0250     8.9385    -1.7183  C.3     1  <O>11      -0.0419
  21 C16       2.9887     7.6218     2.8623  C.3     1  <O>11       0.0230
  22 C17       2.6639     4.6834     3.3579  C.ar    1  <O>11      -0.0356
  23 C18       3.8024     3.9729     3.7374  C.ar    1  <O>11       0.0302
  24 N5        4.1374     3.8086     5.0266  N.ar    1  <O>11      -0.2407
  25 H1        4.5551     3.6243     7.5678  H       1  <O>11       0.1437
  26 H2        3.1373     4.5403     8.0894  H       1  <O>11       0.1437
  27 H3       -2.1488     6.4514     3.0553  H       1  <O>11       0.1882
  28 H4        2.3880     7.9724     4.8763  H       1  <O>11       0.0380
  29 H5        0.7378     9.8191     3.9366  H       1  <O>11       0.0287
  30 H6        2.4840    10.1589     3.9862  H       1  <O>11       0.0287
  31 H7        0.7755     9.2921     1.6307  H       1  <O>11       0.0465
  32 H8        2.1039    10.4766     1.6703  H       1  <O>11       0.0465
  33 H9        2.0012     8.8451    -1.0578  H       1  <O>11       0.0394
  34 H10       2.0564    10.8617     0.1182  H       1  <O>11       0.0272
  35 H11       3.7858    10.7053     0.5045  H       1  <O>11       0.0272
  36 H12       2.5084    11.7976    -1.9365  H       1  <O>11       0.0265
  37 H13       4.1871    11.9830    -1.3717  H       1  <O>11       0.0265
  38 H14       3.0731    10.0448    -3.3101  H       1  <O>11       0.0265
  39 H15       4.7709    10.4933    -3.0180  H       1  <O>11       0.0265
  40 H16       3.8487     8.0433    -2.3157  H       1  <O>11       0.0272
  41 H17       5.0253     8.8946    -1.2873  H       1  <O>11       0.0272
  42 H18       2.8501     6.5679     2.6216  H       1  <O>11       0.0471
  43 H19       4.0044     7.7828     3.2213  H       1  <O>11       0.0471
  44 H20       1.5999     5.4547     6.4321  H       1  <O>11       0.0658
  45 H21      -0.7697     4.4497     3.9640  H       1  <O>11       0.0830
  46 H22       2.4268     4.7886     2.3590  H       1  <O>11       0.0639
  47 H23       4.4041     3.5620     3.0065  H       1  <O>11       0.0830
@<TRIPOS>BOND
     1     1     2    1
     2     2     3   ar
     3     3     4   ar
     4     4     5    1
     5     5     6   ar
     6     6     7   ar
     7     7     8   ar
     8     8     9   ar
     9     5     9   ar
    10     9    10    1
    11    10    11    1
    12    11    12    1
    13    12    13    1
    14    13    14   am
    15    14    15    2
    16    14    16    1
    17    16    17    1
    18    17    18    1
    19    18    19    1
    20    19    20    1
    21    16    20    1
    22    13    21    1
    23    10    21    1
    24     4    22   ar
    25    22    23   ar
    26    23    24   ar
    27     2    24   ar
    28     1    25    1
    29     1    26    1
    30     7    27    1
    31    10    28    1
    32    11    29    1
    33    11    30    1
    34    12    31    1
    35    12    32    1
    36    16    33    1
    37    17    34    1
    38    17    35    1
    39    18    36    1
    40    18    37    1
    41    19    38    1
    42    19    39    1
    43    20    40    1
    44    20    41    1
    45    21    42    1
    46    21    43    1
    47     3    44    1
    48     6    45    1
    49    22    46    1
    50    23    47    1
@<TRIPOS>MOLECULE
mol6_2_24
 47 50 0 0 0
SMALL
USER_CHARGES
****
VDW energy = -41.26
@<TRIPOS>ATOM
   1 N1        3.7120     4.1520     7.3415  N.pl3   1  <O>11      -0.3431
   2 C1        3.3329     4.3488     5.9653  C.ar    1  <O>11       0.1167
   3 C2        2.1864     5.0670     5.6766  C.ar    1  <O>11      -0.0143
   4 C3        1.8446     5.2530     4.3395  C.ar    1  <O>11      -0.0100
   5 C4        0.7410     5.9700     3.9760  C.ar    1  <O>11       0.0230
   6 C5       -0.4632     5.4231     3.8104  C.ar    1  <O>11       0.0303
   7 N2       -1.1934     6.5226     3.3741  N.ar    1  <O>11      -0.2839
   8 N3       -0.4726     7.6854     3.4293  N.ar    1  <O>11      -0.1779
   9 C6        0.7644     7.2957     3.7522  C.ar    1  <O>11       0.0751
  10 C7        1.9873     8.0764     3.8689  C.3     1  <O>11       0.0208
  11 C8        2.1444     8.5871     5.2616  C.3     1  <O>11      -0.0274
  12 C9        1.2565     9.8222     5.2330  C.3     1  <O>11       0.0153
  13 N4        1.3314    10.2920     3.8614  N.am    1  <O>11      -0.3006
  14 C10       0.9331    11.4942     3.3674  C.2     1  <O>11       0.2187
  15 O1        1.0651    11.7400     2.1778  O.2     1  <O>11      -0.2753
  16 C11       0.3357    12.5127     4.2776  C.3     1  <O>11       0.0358
  17 C12      -0.6746    11.8776     5.1761  C.3     1  <O>11      -0.0419
  18 C13      -0.6775    12.7742     6.4136  C.3     1  <O>11      -0.0523
  19 C14       0.5458    13.6831     6.2937  C.3     1  <O>11      -0.0523
  20 C15       1.3818    13.0858     5.1710  C.3     1  <O>11      -0.0419
  21 C16       1.9176     9.2800     2.9918  C.3     1  <O>11       0.0230
  22 C17       2.6639     4.6834     3.3579  C.ar    1  <O>11      -0.0356
  23 C18       3.8024     3.9729     3.7374  C.ar    1  <O>11       0.0302
  24 N5        4.1374     3.8086     5.0266  N.ar    1  <O>11      -0.2407
  25 H1        4.5551     3.6243     7.5678  H       1  <O>11       0.1437
  26 H2        3.1373     4.5403     8.0894  H       1  <O>11       0.1437
  27 H3       -2.1488     6.4514     3.0553  H       1  <O>11       0.1882
  28 H4        2.8398     7.4564     3.5952  H       1  <O>11       0.0380
  29 H5        1.7923     7.8598     5.9944  H       1  <O>11       0.0287
  30 H6        3.1805     8.8453     5.4759  H       1  <O>11       0.0287
  31 H7        0.2312     9.5663     5.4975  H       1  <O>11       0.0465
  32 H8        1.6316    10.5806     5.9210  H       1  <O>11       0.0465
  33 H9       -0.1292    13.3023     3.6841  H       1  <O>11       0.0394
  34 H10      -1.6566    11.8616     4.7059  H       1  <O>11       0.0272
  35 H11      -0.3788    10.8609     5.4342  H       1  <O>11       0.0272
  36 H12      -1.5884    13.3713     6.4431  H       1  <O>11       0.0265
  37 H13      -0.6089    12.1689     7.3183  H       1  <O>11       0.0265
  38 H14       0.2430    14.6997     6.0441  H       1  <O>11       0.0265
  39 H15       1.1088    13.6890     7.2264  H       1  <O>11       0.0265
  40 H16       1.9644    13.8530     4.6598  H       1  <O>11       0.0272
  41 H17       2.0520    12.3116     5.5445  H       1  <O>11       0.0272
  42 H18       1.2839     9.0953     2.1246  H       1  <O>11       0.0471
  43 H19       2.9108     9.5795     2.6598  H       1  <O>11       0.0471
  44 H20       1.5999     5.4547     6.4321  H       1  <O>11       0.0658
  45 H21      -0.7697     4.4497     3.9640  H       1  <O>11       0.0830
  46 H22       2.4268     4.7886     2.3590  H       1  <O>11       0.0639
  47 H23       4.4041     3.5620     3.0065  H       1  <O>11       0.0830
@<TRIPOS>BOND
     1     1     2    1
     2     2     3   ar
     3     3     4   ar
     4     4     5    1
     5     5     6   ar
     6     6     7   ar
     7     7     8   ar
     8     8     9   ar
     9     5     9   ar
    10     9    10    1
    11    10    11    1
    12    11    12    1
    13    12    13    1
    14    13    14   am
    15    14    15    2
    16    14    16    1
    17    16    17    1
    18    17    18    1
    19    18    19    1
    20    19    20    1
    21    16    20    1
    22    13    21    1
    23    10    21    1
    24     4    22   ar
    25    22    23   ar
    26    23    24   ar
    27     2    24   ar
    28     1    25    1
    29     1    26    1
    30     7    27    1
    31    10    28    1
    32    11    29    1
    33    11    30    1
    34    12    31    1
    35    12    32    1
    36    16    33    1
    37    17    34    1
    38    17    35    1
    39    18    36    1
    40    18    37    1
    41    19    38    1
    42    19    39    1
    43    20    40    1
    44    20    41    1
    45    21    42    1
    46    21    43    1
    47     3    44    1
    48     6    45    1
    49    22    46    1
    50    23    47    1
@<TRIPOS>MOLECULE
mol6_2_25
 47 50 0 0 0
SMALL
USER_CHARGES
****
VDW energy = -40.25
@<TRIPOS>ATOM
   1 N1        3.7120     4.1520     7.3415  N.pl3   1  <O>11      -0.3431
   2 C1        3.3329     4.3488     5.9653  C.ar    1  <O>11       0.1167
   3 C2        2.1864     5.0670     5.6766  C.ar    1  <O>11      -0.0143
   4 C3        1.8446     5.2530     4.3395  C.ar    1  <O>11      -0.0100
   5 C4        0.7410     5.9700     3.9760  C.ar    1  <O>11       0.0230
   6 C5       -0.4632     5.4231     3.8104  C.ar    1  <O>11       0.0303
   7 N2       -1.1934     6.5226     3.3741  N.ar    1  <O>11      -0.2839
   8 N3       -0.4726     7.6854     3.4293  N.ar    1  <O>11      -0.1779
   9 C6        0.7644     7.2957     3.7522  C.ar    1  <O>11       0.0751
  10 C7        1.9873     8.0764     3.8689  C.3     1  <O>11       0.0208
  11 C8        2.1444     8.5871     5.2616  C.3     1  <O>11      -0.0274
  12 C9        1.2565     9.8222     5.2330  C.3     1  <O>11       0.0153
  13 N4        1.3314    10.2920     3.8614  N.am    1  <O>11      -0.3006
  14 C10       0.9331    11.4942     3.3674  C.2     1  <O>11       0.2187
  15 O1        0.4438    12.3293     4.1130  O.2     1  <O>11      -0.2753
  16 C11       1.0932    11.7930     1.9156  C.3     1  <O>11       0.0358
  17 C12       0.6349    10.6335     1.0928  C.3     1  <O>11      -0.0419
  18 C13       0.2078    11.2700    -0.2293  C.3     1  <O>11      -0.0523
  19 C14       0.1455    12.7777     0.0152  C.3     1  <O>11      -0.0523
  20 C15       0.2302    12.9438     1.5256  C.3     1  <O>11      -0.0419
  21 C16       1.9176     9.2800     2.9918  C.3     1  <O>11       0.0230
  22 C17       2.6639     4.6834     3.3579  C.ar    1  <O>11      -0.0356
  23 C18       3.8024     3.9729     3.7374  C.ar    1  <O>11       0.0302
  24 N5        4.1374     3.8086     5.0266  N.ar    1  <O>11      -0.2407
  25 H1        4.5551     3.6243     7.5678  H       1  <O>11       0.1437
  26 H2        3.1373     4.5403     8.0894  H       1  <O>11       0.1437
  27 H3       -2.1488     6.4514     3.0553  H       1  <O>11       0.1882
  28 H4        2.8398     7.4564     3.5952  H       1  <O>11       0.0380
  29 H5        1.7923     7.8598     5.9944  H       1  <O>11       0.0287
  30 H6        3.1805     8.8453     5.4759  H       1  <O>11       0.0287
  31 H7        0.2312     9.5663     5.4975  H       1  <O>11       0.0465
  32 H8        1.6316    10.5806     5.9210  H       1  <O>11       0.0465
  33 H9        2.1405    12.0167     1.7039  H       1  <O>11       0.0394
  34 H10       1.4455     9.9232     0.9379  H       1  <O>11       0.0272
  35 H11      -0.2049    10.1281     1.5694  H       1  <O>11       0.0272
  36 H12       0.9364    11.0448    -1.0075  H       1  <O>11       0.0265
  37 H13      -0.7724    10.8967    -0.5284  H       1  <O>11       0.0265
  38 H14       0.9827    13.2781    -0.4708  H       1  <O>11       0.0265
  39 H15      -0.7917    13.1862    -0.3612  H       1  <O>11       0.0265
  40 H16       0.6909    13.8951     1.7942  H       1  <O>11       0.0272
  41 H17      -0.7546    12.8755     1.9878  H       1  <O>11       0.0272
  42 H18       1.2839     9.0953     2.1246  H       1  <O>11       0.0471
  43 H19       2.9108     9.5795     2.6598  H       1  <O>11       0.0471
  44 H20       1.5999     5.4547     6.4321  H       1  <O>11       0.0658
  45 H21      -0.7697     4.4497     3.9640  H       1  <O>11       0.0830
  46 H22       2.4268     4.7886     2.3590  H       1  <O>11       0.0639
  47 H23       4.4041     3.5620     3.0065  H       1  <O>11       0.0830
@<TRIPOS>BOND
     1     1     2    1
     2     2     3   ar
     3     3     4   ar
     4     4     5    1
     5     5     6   ar
     6     6     7   ar
     7     7     8   ar
     8     8     9   ar
     9     5     9   ar
    10     9    10    1
    11    10    11    1
    12    11    12    1
    13    12    13    1
    14    13    14   am
    15    14    15    2
    16    14    16    1
    17    16    17    1
    18    17    18    1
    19    18    19    1
    20    19    20    1
    21    16    20    1
    22    13    21    1
    23    10    21    1
    24     4    22   ar
    25    22    23   ar
    26    23    24   ar
    27     2    24   ar
    28     1    25    1
    29     1    26    1
    30     7    27    1
    31    10    28    1
    32    11    29    1
    33    11    30    1
    34    12    31    1
    35    12    32    1
    36    16    33    1
    37    17    34    1
    38    17    35    1
    39    18    36    1
    40    18    37    1
    41    19    38    1
    42    19    39    1
    43    20    40    1
    44    20    41    1
    45    21    42    1
    46    21    43    1
    47     3    44    1
    48     6    45    1
    49    22    46    1
    50    23    47    1
@<TRIPOS>MOLECULE
mol6_2_26
 47 50 0 0 0
SMALL
USER_CHARGES
****
VDW energy = -40.10
@<TRIPOS>ATOM
   1 N1        3.7120     4.1520     7.3415  N.pl3   1  <O>11      -0.3431
   2 C1        3.3329     4.3488     5.9653  C.ar    1  <O>11       0.1167
   3 C2        2.1864     5.0670     5.6766  C.ar    1  <O>11      -0.0143
   4 C3        1.8446     5.2530     4.3395  C.ar    1  <O>11      -0.0100
   5 C4        0.7410     5.9700     3.9760  C.ar    1  <O>11       0.0230
   6 C5        0.7647     7.2839     3.7528  C.ar    1  <O>11       0.0303
   7 N2       -0.5804     7.5327     3.5055  N.ar    1  <O>11      -0.2839
   8 N3       -1.3228     6.3839     3.4432  N.ar    1  <O>11      -0.1779
   9 C6       -0.4735     5.4182     3.8075  C.ar    1  <O>11       0.0751
  10 C7       -0.7111     3.9973     4.0153  C.3     1  <O>11       0.0208
  11 C8       -0.4971     3.2455     2.7449  C.3     1  <O>11      -0.0274
  12 C9       -1.8302     3.4534     2.0419  C.3     1  <O>11       0.0153
  13 N4       -2.7963     3.5626     3.1199  N.am    1  <O>11      -0.3006
  14 C10      -4.1517     3.4998     3.0363  C.2     1  <O>11       0.2187
  15 O1       -4.6899     3.3329     1.9522  O.2     1  <O>11      -0.2753
  16 C11      -4.9812     3.6349     4.2678  C.3     1  <O>11       0.0358
  17 C12      -4.4915     4.7735     5.1017  C.3     1  <O>11      -0.0419
  18 C13      -5.7318     5.2197     5.8749  C.3     1  <O>11      -0.0523
  19 C14      -6.9256     4.5285     5.2162  C.3     1  <O>11      -0.0523
  20 C15      -6.3907     3.9607     3.9095  C.3     1  <O>11      -0.0419
  21 C16      -2.1318     3.7620     4.4015  C.3     1  <O>11       0.0230
  22 C17       2.6639     4.6834     3.3579  C.ar    1  <O>11      -0.0356
  23 C18       3.8024     3.9729     3.7374  C.ar    1  <O>11       0.0302
  24 N5        4.1374     3.8086     5.0266  N.ar    1  <O>11      -0.2407
  25 H1        4.5551     3.6243     7.5678  H       1  <O>11       0.1437
  26 H2        3.1373     4.5403     8.0894  H       1  <O>11       0.1437
  27 H3       -0.9502     8.4649     3.3879  H       1  <O>11       0.1882
  28 H4       -0.0411     3.6282     4.7905  H       1  <O>11       0.0380
  29 H5        0.3278     3.6657     2.1677  H       1  <O>11       0.0287
  30 H6       -0.3062     2.1902     2.9346  H       1  <O>11       0.0287
  31 H7       -1.8136     4.3646     1.4451  H       1  <O>11       0.0465
  32 H8       -2.0629     2.6025     1.4008  H       1  <O>11       0.0465
  33 H9       -4.9408     2.7043     4.8370  H       1  <O>11       0.0394
  34 H10      -3.7065     4.4468     5.7819  H       1  <O>11       0.0272
  35 H11      -4.1149     5.5803     4.4731  H       1  <O>11       0.0272
  36 H12      -5.6521     4.9191     6.9192  H       1  <O>11       0.0265
  37 H13      -5.8444     6.3029     5.8150  H       1  <O>11       0.0265
  38 H14      -7.3028     3.7288     5.8532  H       1  <O>11       0.0265
  39 H15      -7.7219     5.2463     5.0222  H       1  <O>11       0.0265
  40 H16      -6.9413     3.0681     3.6106  H       1  <O>11       0.0272
  41 H17      -6.4358     4.6987     3.1086  H       1  <O>11       0.0272
  42 H18      -2.5426     4.6253     4.9247  H       1  <O>11       0.0471
  43 H19      -2.2243     2.8773     5.0302  H       1  <O>11       0.0471
  44 H20       1.5999     5.4547     6.4321  H       1  <O>11       0.0658
  45 H21       1.5632     7.9376     3.7613  H       1  <O>11       0.0830
  46 H22       2.4268     4.7886     2.3590  H       1  <O>11       0.0639
  47 H23       4.4041     3.5620     3.0065  H       1  <O>11       0.0830
@<TRIPOS>BOND
     1     1     2    1
     2     2     3   ar
     3     3     4   ar
     4     4     5    1
     5     5     6   ar
     6     6     7   ar
     7     7     8   ar
     8     8     9   ar
     9     5     9   ar
    10     9    10    1
    11    10    11    1
    12    11    12    1
    13    12    13    1
    14    13    14   am
    15    14    15    2
    16    14    16    1
    17    16    17    1
    18    17    18    1
    19    18    19    1
    20    19    20    1
    21    16    20    1
    22    13    21    1
    23    10    21    1
    24     4    22   ar
    25    22    23   ar
    26    23    24   ar
    27     2    24   ar
    28     1    25    1
    29     1    26    1
    30     7    27    1
    31    10    28    1
    32    11    29    1
    33    11    30    1
    34    12    31    1
    35    12    32    1
    36    16    33    1
    37    17    34    1
    38    17    35    1
    39    18    36    1
    40    18    37    1
    41    19    38    1
    42    19    39    1
    43    20    40    1
    44    20    41    1
    45    21    42    1
    46    21    43    1
    47     3    44    1
    48     6    45    1
    49    22    46    1
    50    23    47    1
@<TRIPOS>MOLECULE
mol6_2_27
 47 50 0 0 0
SMALL
USER_CHARGES
****
VDW energy = -32.56
@<TRIPOS>ATOM
   1 N1        3.7120     4.1520     7.3415  N.pl3   1  <O>11      -0.3431
   2 C1        3.3329     4.3488     5.9653  C.ar    1  <O>11       0.1167
   3 C2        2.1864     5.0670     5.6766  C.ar    1  <O>11      -0.0143
   4 C3        1.8446     5.2530     4.3395  C.ar    1  <O>11      -0.0100
   5 C4        0.7410     5.9700     3.9760  C.ar    1  <O>11       0.0230
   6 C5       -0.2647     5.4544     3.2693  C.ar    1  <O>11       0.0303
   7 N2       -1.0679     6.5760     3.0983  N.ar    1  <O>11      -0.2839
   8 N3       -0.6144     7.6576     3.8048  N.ar    1  <O>11      -0.1779
   9 C6        0.5638     7.2635     4.2978  C.ar    1  <O>11       0.0751
  10 C7        1.5542     8.0123     5.0573  C.3     1  <O>11       0.0208
  11 C8        1.0942     9.4159     5.2653  C.3     1  <O>11      -0.0274
  12 C9        1.4903    10.0628     3.9465  C.3     1  <O>11       0.0153
  13 N4        2.6701     9.3308     3.5226  N.am    1  <O>11      -0.3006
  14 C10       3.5580     9.6686     2.5502  C.2     1  <O>11       0.2187
  15 O1        4.5090     8.9396     2.3112  O.2     1  <O>11      -0.2753
  16 C11       3.3713    10.9289     1.7760  C.3     1  <O>11       0.0358
  17 C12       1.9461    11.0720     1.3521  C.3     1  <O>11      -0.0419
  18 C13       1.7541    12.5824     1.2205  C.3     1  <O>11      -0.0523
  19 C14       2.9724    13.2332     1.8756  C.3     1  <O>11      -0.0523
  20 C15       3.6690    12.1116     2.6325  C.3     1  <O>11      -0.0419
  21 C16       2.8308     8.1039     4.2925  C.3     1  <O>11       0.0230
  22 C17       2.6639     4.6834     3.3579  C.ar    1  <O>11      -0.0356
  23 C18       3.8024     3.9729     3.7374  C.ar    1  <O>11       0.0302
  24 N5        4.1374     3.8086     5.0266  N.ar    1  <O>11      -0.2407
  25 H1        4.5551     3.6243     7.5678  H       1  <O>11       0.1437
  26 H2        3.1373     4.5403     8.0894  H       1  <O>11       0.1437
  27 H3       -1.8908     6.5737     2.5133  H       1  <O>11       0.1882
  28 H4        1.7206     7.5230     6.0159  H       1  <O>11       0.0380
  29 H5        0.0159     9.4620     5.4240  H       1  <O>11       0.0287
  30 H6        1.6048     9.8811     6.1073  H       1  <O>11       0.0287
  31 H7        0.6910     9.9641     3.2131  H       1  <O>11       0.0465
  32 H8        1.7233    11.1183     4.0914  H       1  <O>11       0.0465
  33 H9        4.0266    10.9195     0.9028  H       1  <O>11       0.0394
  34 H10       1.7727    10.5740     0.3994  H       1  <O>11       0.0272
  35 H11       1.2746    10.6596     2.1051  H       1  <O>11       0.0272
  36 H12       1.6967    12.8638     0.1695  H       1  <O>11       0.0265
  37 H13       0.8418    12.8927     1.7314  H       1  <O>11       0.0265
  38 H14       3.6353    13.6511     1.1183  H       1  <O>11       0.0265
  39 H15       2.6611    14.0201     2.5617  H       1  <O>11       0.0265
  40 H16       4.7424    12.2899     2.7050  H       1  <O>11       0.0272
  41 H17       3.2539    11.9912     3.6332  H       1  <O>11       0.0272
  42 H18       2.9552     7.2435     3.6353  H       1  <O>11       0.0471
  43 H19       3.6848     8.1749     4.9649  H       1  <O>11       0.0471
  44 H20       1.5999     5.4547     6.4321  H       1  <O>11       0.0658
  45 H21      -0.4079     4.4871     2.9393  H       1  <O>11       0.0830
  46 H22       2.4268     4.7886     2.3590  H       1  <O>11       0.0639
  47 H23       4.4041     3.5620     3.0065  H       1  <O>11       0.0830
@<TRIPOS>BOND
     1     1     2    1
     2     2     3   ar
     3     3     4   ar
     4     4     5    1
     5     5     6   ar
     6     6     7   ar
     7     7     8   ar
     8     8     9   ar
     9     5     9   ar
    10     9    10    1
    11    10    11    1
    12    11    12    1
    13    12    13    1
    14    13    14   am
    15    14    15    2
    16    14    16    1
    17    16    17    1
    18    17    18    1
    19    18    19    1
    20    19    20    1
    21    16    20    1
    22    13    21    1
    23    10    21    1
    24     4    22   ar
    25    22    23   ar
    26    23    24   ar
    27     2    24   ar
    28     1    25    1
    29     1    26    1
    30     7    27    1
    31    10    28    1
    32    11    29    1
    33    11    30    1
    34    12    31    1
    35    12    32    1
    36    16    33    1
    37    17    34    1
    38    17    35    1
    39    18    36    1
    40    18    37    1
    41    19    38    1
    42    19    39    1
    43    20    40    1
    44    20    41    1
    45    21    42    1
    46    21    43    1
    47     3    44    1
    48     6    45    1
    49    22    46    1
    50    23    47    1
@<TRIPOS>MOLECULE
mol6_2_28
 47 50 0 0 0
SMALL
USER_CHARGES
****
VDW energy = -31.92
@<TRIPOS>ATOM
   1 N1        3.7120     4.1520     7.3415  N.pl3   1  <O>11      -0.3431
   2 C1        3.3329     4.3488     5.9653  C.ar    1  <O>11       0.1167
   3 C2        2.1864     5.0670     5.6766  C.ar    1  <O>11      -0.0143
   4 C3        1.8446     5.2530     4.3395  C.ar    1  <O>11      -0.0100
   5 C4        0.7410     5.9700     3.9760  C.ar    1  <O>11       0.0230
   6 C5       -0.2647     5.4544     3.2693  C.ar    1  <O>11       0.0303
   7 N2       -1.0679     6.5760     3.0983  N.ar    1  <O>11      -0.2839
   8 N3       -0.6144     7.6576     3.8048  N.ar    1  <O>11      -0.1779
   9 C6        0.5638     7.2635     4.2978  C.ar    1  <O>11       0.0751
  10 C7        1.5542     8.0123     5.0573  C.3     1  <O>11       0.0208
  11 C8        1.0942     9.4159     5.2653  C.3     1  <O>11      -0.0274
  12 C9        1.4903    10.0628     3.9465  C.3     1  <O>11       0.0153
  13 N4        2.6701     9.3308     3.5226  N.am    1  <O>11      -0.3006
  14 C10       3.5580     9.6686     2.5502  C.2     1  <O>11       0.2187
  15 O1        3.4052    10.7012     1.9152  O.2     1  <O>11      -0.2753
  16 C11       4.7180     8.7785     2.2586  C.3     1  <O>11       0.0358
  17 C12       4.2745     7.3539     2.1866  C.3     1  <O>11      -0.0419
  18 C13       5.2990     6.6988     1.2611  C.3     1  <O>11      -0.0523
  19 C14       6.0812     7.8368     0.6053  C.3     1  <O>11      -0.0523
  20 C15       5.2946     9.1003     0.9226  C.3     1  <O>11      -0.0419
  21 C16       2.8308     8.1039     4.2925  C.3     1  <O>11       0.0230
  22 C17       2.6639     4.6834     3.3579  C.ar    1  <O>11      -0.0356
  23 C18       3.8024     3.9729     3.7374  C.ar    1  <O>11       0.0302
  24 N5        4.1374     3.8086     5.0266  N.ar    1  <O>11      -0.2407
  25 H1        4.5551     3.6243     7.5678  H       1  <O>11       0.1437
  26 H2        3.1373     4.5403     8.0894  H       1  <O>11       0.1437
  27 H3       -1.8908     6.5737     2.5133  H       1  <O>11       0.1882
  28 H4        1.7206     7.5230     6.0159  H       1  <O>11       0.0380
  29 H5        0.0159     9.4620     5.4240  H       1  <O>11       0.0287
  30 H6        1.6048     9.8811     6.1073  H       1  <O>11       0.0287
  31 H7        0.6910     9.9641     3.2131  H       1  <O>11       0.0465
  32 H8        1.7233    11.1183     4.0914  H       1  <O>11       0.0465
  33 H9        5.4742     8.9005     3.0365  H       1  <O>11       0.0394
  34 H10       4.2907     6.8921     3.1726  H       1  <O>11       0.0272
  35 H11       3.2709     7.2811     1.7679  H       1  <O>11       0.0272
  36 H12       5.9713     6.0621     1.8353  H       1  <O>11       0.0265
  37 H13       4.7935     6.1028     0.5003  H       1  <O>11       0.0265
  38 H14       7.0863     7.8987     1.0219  H       1  <O>11       0.0265
  39 H15       6.1419     7.6860    -0.4720  H       1  <O>11       0.0265
  40 H16       5.9482     9.9720     0.9712  H       1  <O>11       0.0272
  41 H17       4.5118     9.2759     0.1846  H       1  <O>11       0.0272
  42 H18       2.9552     7.2435     3.6353  H       1  <O>11       0.0471
  43 H19       3.6848     8.1749     4.9649  H       1  <O>11       0.0471
  44 H20       1.5999     5.4547     6.4321  H       1  <O>11       0.0658
  45 H21      -0.4079     4.4871     2.9393  H       1  <O>11       0.0830
  46 H22       2.4268     4.7886     2.3590  H       1  <O>11       0.0639
  47 H23       4.4041     3.5620     3.0065  H       1  <O>11       0.0830
@<TRIPOS>BOND
     1     1     2    1
     2     2     3   ar
     3     3     4   ar
     4     4     5    1
     5     5     6   ar
     6     6     7   ar
     7     7     8   ar
     8     8     9   ar
     9     5     9   ar
    10     9    10    1
    11    10    11    1
    12    11    12    1
    13    12    13    1
    14    13    14   am
    15    14    15    2
    16    14    16    1
    17    16    17    1
    18    17    18    1
    19    18    19    1
    20    19    20    1
    21    16    20    1
    22    13    21    1
    23    10    21    1
    24     4    22   ar
    25    22    23   ar
    26    23    24   ar
    27     2    24   ar
    28     1    25    1
    29     1    26    1
    30     7    27    1
    31    10    28    1
    32    11    29    1
    33    11    30    1
    34    12    31    1
    35    12    32    1
    36    16    33    1
    37    17    34    1
    38    17    35    1
    39    18    36    1
    40    18    37    1
    41    19    38    1
    42    19    39    1
    43    20    40    1
    44    20    41    1
    45    21    42    1
    46    21    43    1
    47     3    44    1
    48     6    45    1
    49    22    46    1
    50    23    47    1
@<TRIPOS>MOLECULE
mol6_2_29
 47 50 0 0 0
SMALL
USER_CHARGES
****
VDW energy = -29.59
@<TRIPOS>ATOM
   1 N1        3.7120     4.1520     7.3415  N.pl3   1  <O>11      -0.3431
   2 C1        3.3329     4.3488     5.9653  C.ar    1  <O>11       0.1167
   3 C2        2.1864     5.0670     5.6766  C.ar    1  <O>11      -0.0143
   4 C3        1.8446     5.2530     4.3395  C.ar    1  <O>11      -0.0100
   5 C4        0.7410     5.9700     3.9760  C.ar    1  <O>11       0.0230
   6 C5       -0.2647     5.4544     3.2693  C.ar    1  <O>11       0.0303
   7 N2       -1.0679     6.5760     3.0983  N.ar    1  <O>11      -0.2839
   8 N3       -0.6144     7.6576     3.8048  N.ar    1  <O>11      -0.1779
   9 C6        0.5638     7.2635     4.2978  C.ar    1  <O>11       0.0751
  10 C7        1.5542     8.0123     5.0573  C.3     1  <O>11       0.0208
  11 C8        1.2815     7.8965     6.5192  C.3     1  <O>11      -0.0274
  12 C9        0.2069     8.9561     6.7115  C.3     1  <O>11       0.0153
  13 N4        0.5097     9.9661     5.7135  N.am    1  <O>11      -0.3006
  14 C10       0.0169    11.2302     5.6282  C.2     1  <O>11       0.2187
  15 O1        0.3742    11.9652     4.7199  O.2     1  <O>11      -0.2753
  16 C11      -0.9590    11.7194     6.6436  C.3     1  <O>11       0.0358
  17 C12      -2.0117    10.6890     6.8911  C.3     1  <O>11      -0.0419
  18 C13      -2.4741    10.9750     8.3193  C.3     1  <O>11      -0.0523
  19 C14      -1.4522    11.9397     8.9211  C.3     1  <O>11      -0.0523
  20 C15      -0.2792    11.9389     7.9515  C.3     1  <O>11      -0.0419
  21 C16       1.4641     9.4648     4.7329  C.3     1  <O>11       0.0230
  22 C17       2.6639     4.6834     3.3579  C.ar    1  <O>11      -0.0356
  23 C18       3.8024     3.9729     3.7374  C.ar    1  <O>11       0.0302
  24 N5        4.1374     3.8086     5.0266  N.ar    1  <O>11      -0.2407
  25 H1        4.5551     3.6243     7.5678  H       1  <O>11       0.1437
  26 H2        3.1373     4.5403     8.0894  H       1  <O>11       0.1437
  27 H3       -1.8908     6.5737     2.5133  H       1  <O>11       0.1882
  28 H4        2.5489     7.6332     4.8271  H       1  <O>11       0.0380
  29 H5        0.9126     6.9030     6.7779  H       1  <O>11       0.0287
  30 H6        2.1703     8.1180     7.1083  H       1  <O>11       0.0287
  31 H7       -0.7840     8.5351     6.5457  H       1  <O>11       0.0465
  32 H8        0.2597     9.3787     7.7154  H       1  <O>11       0.0465
  33 H9       -1.4136    12.6480     6.2928  H       1  <O>11       0.0394
  34 H10      -2.8351    10.7985     6.1871  H       1  <O>11       0.0272
  35 H11      -1.5969     9.6843     6.8114  H       1  <O>11       0.0272
  36 H12      -3.4630    11.4322     8.3098  H       1  <O>11       0.0265
  37 H13      -2.5052    10.0511     8.8981  H       1  <O>11       0.0265
  38 H14      -1.8758    12.9401     9.0062  H       1  <O>11       0.0265
  39 H15      -1.1345    11.5936     9.9040  H       1  <O>11       0.0265
  40 H16       0.2501    12.8923     7.9694  H       1  <O>11       0.0272
  41 H17       0.4197    11.1329     8.1754  H       1  <O>11       0.0272
  42 H18       1.0977     9.6164     3.7178  H       1  <O>11       0.0471
  43 H19       2.4319     9.9513     4.8471  H       1  <O>11       0.0471
  44 H20       1.5999     5.4547     6.4321  H       1  <O>11       0.0658
  45 H21      -0.4079     4.4871     2.9393  H       1  <O>11       0.0830
  46 H22       2.4268     4.7886     2.3590  H       1  <O>11       0.0639
  47 H23       4.4041     3.5620     3.0065  H       1  <O>11       0.0830
@<TRIPOS>BOND
     1     1     2    1
     2     2     3   ar
     3     3     4   ar
     4     4     5    1
     5     5     6   ar
     6     6     7   ar
     7     7     8   ar
     8     8     9   ar
     9     5     9   ar
    10     9    10    1
    11    10    11    1
    12    11    12    1
    13    12    13    1
    14    13    14   am
    15    14    15    2
    16    14    16    1
    17    16    17    1
    18    17    18    1
    19    18    19    1
    20    19    20    1
    21    16    20    1
    22    13    21    1
    23    10    21    1
    24     4    22   ar
    25    22    23   ar
    26    23    24   ar
    27     2    24   ar
    28     1    25    1
    29     1    26    1
    30     7    27    1
    31    10    28    1
    32    11    29    1
    33    11    30    1
    34    12    31    1
    35    12    32    1
    36    16    33    1
    37    17    34    1
    38    17    35    1
    39    18    36    1
    40    18    37    1
    41    19    38    1
    42    19    39    1
    43    20    40    1
    44    20    41    1
    45    21    42    1
    46    21    43    1
    47     3    44    1
    48     6    45    1
    49    22    46    1
    50    23    47    1
@<TRIPOS>MOLECULE
mol6_2_30
 47 50 0 0 0
SMALL
USER_CHARGES
****
VDW energy = -26.82
@<TRIPOS>ATOM
   1 N1        3.7120     4.1520     7.3415  N.pl3   1  <O>11      -0.3431
   2 C1        3.3329     4.3488     5.9653  C.ar    1  <O>11       0.1167
   3 C2        2.1864     5.0670     5.6766  C.ar    1  <O>11      -0.0143
   4 C3        1.8446     5.2530     4.3395  C.ar    1  <O>11      -0.0100
   5 C4        0.7410     5.9700     3.9760  C.ar    1  <O>11       0.0230
   6 C5        0.7647     7.2839     3.7528  C.ar    1  <O>11       0.0303
   7 N2       -0.5804     7.5327     3.5055  N.ar    1  <O>11      -0.2839
   8 N3       -1.3228     6.3839     3.4432  N.ar    1  <O>11      -0.1779
   9 C6       -0.4735     5.4182     3.8075  C.ar    1  <O>11       0.0751
  10 C7       -0.7111     3.9973     4.0153  C.3     1  <O>11       0.0208
  11 C8       -2.1432     3.6689     3.7582  C.3     1  <O>11      -0.0274
  12 C9       -2.7852     4.0576     5.0816  C.3     1  <O>11       0.0153
  13 N4       -1.7501     3.8193     6.0714  N.am    1  <O>11      -0.3006
  14 C10      -1.8843     3.7622     7.4229  C.2     1  <O>11       0.2187
  15 O1       -0.9072     3.5507     8.1255  O.2     1  <O>11      -0.2753
  16 C11      -3.2239     3.9572     8.0476  C.3     1  <O>11       0.0358
  17 C12      -3.9185     5.1279     7.4326  C.3     1  <O>11      -0.0419
  18 C13      -5.4019     4.8112     7.6180  C.3     1  <O>11      -0.0523
  19 C14      -5.4828     3.3440     8.0397  C.3     1  <O>11      -0.0523
  20 C15      -4.0940     2.7758     7.7862  C.3     1  <O>11      -0.0419
  21 C16      -0.4513     3.6325     5.4373  C.3     1  <O>11       0.0230
  22 C17       2.6639     4.6834     3.3579  C.ar    1  <O>11      -0.0356
  23 C18       3.8024     3.9729     3.7374  C.ar    1  <O>11       0.0302
  24 N5        4.1374     3.8086     5.0266  N.ar    1  <O>11      -0.2407
  25 H1        4.5551     3.6243     7.5678  H       1  <O>11       0.1437
  26 H2        3.1373     4.5403     8.0894  H       1  <O>11       0.1437
  27 H3       -0.9502     8.4649     3.3879  H       1  <O>11       0.1882
  28 H4       -0.0664     3.4221     3.3523  H       1  <O>11       0.0380
  29 H5       -2.5446     4.2577     2.9322  H       1  <O>11       0.0287
  30 H6       -2.2762     2.6090     3.5461  H       1  <O>11       0.0287
  31 H7       -3.0781     5.1067     5.0748  H       1  <O>11       0.0465
  32 H8       -3.6592     3.4368     5.2812  H       1  <O>11       0.0465
  33 H9       -3.1051     4.1094     9.1221  H       1  <O>11       0.0394
  34 H10      -3.6514     6.0508     7.9451  H       1  <O>11       0.0272
  35 H11      -3.6694     5.2146     6.3750  H       1  <O>11       0.0272
  36 H12      -5.8287     5.4491     8.3914  H       1  <O>11       0.0265
  37 H13      -5.9402     4.9635     6.6817  H       1  <O>11       0.0265
  38 H14      -5.7406     3.2640     9.0954  H       1  <O>11       0.0265
  39 H15      -6.2254     2.8163     7.4421  H       1  <O>11       0.0265
  40 H16      -3.8697     1.9575     8.4715  H       1  <O>11       0.0272
  41 H17      -3.9900     2.4261     6.7590  H       1  <O>11       0.0272
  42 H18       0.2973     4.2900     5.8789  H       1  <O>11       0.0471
  43 H19      -0.1220     2.5976     5.5213  H       1  <O>11       0.0471
  44 H20       1.5999     5.4547     6.4321  H       1  <O>11       0.0658
  45 H21       1.5632     7.9376     3.7613  H       1  <O>11       0.0830
  46 H22       2.4268     4.7886     2.3590  H       1  <O>11       0.0639
  47 H23       4.4041     3.5620     3.0065  H       1  <O>11       0.0830
@<TRIPOS>BOND
     1     1     2    1
     2     2     3   ar
     3     3     4   ar
     4     4     5    1
     5     5     6   ar
     6     6     7   ar
     7     7     8   ar
     8     8     9   ar
     9     5     9   ar
    10     9    10    1
    11    10    11    1
    12    11    12    1
    13    12    13    1
    14    13    14   am
    15    14    15    2
    16    14    16    1
    17    16    17    1
    18    17    18    1
    19    18    19    1
    20    19    20    1
    21    16    20    1
    22    13    21    1
    23    10    21    1
    24     4    22   ar
    25    22    23   ar
    26    23    24   ar
    27     2    24   ar
    28     1    25    1
    29     1    26    1
    30     7    27    1
    31    10    28    1
    32    11    29    1
    33    11    30    1
    34    12    31    1
    35    12    32    1
    36    16    33    1
    37    17    34    1
    38    17    35    1
    39    18    36    1
    40    18    37    1
    41    19    38    1
    42    19    39    1
    43    20    40    1
    44    20    41    1
    45    21    42    1
    46    21    43    1
    47     3    44    1
    48     6    45    1
    49    22    46    1
    50    23    47    1
@<TRIPOS>MOLECULE
mol6_3_1
 47 50 0 0 0
SMALL
USER_CHARGES
****
VDW energy = -69.52
@<TRIPOS>ATOM
   1 N1        3.7120     4.1520     7.3415  N.pl3   1  <O>11      -0.3431
   2 C1        3.3329     4.3488     5.9653  C.ar    1  <O>11       0.1167
   3 C2        2.1864     5.0670     5.6766  C.ar    1  <O>11      -0.0143
   4 C3        1.8446     5.2530     4.3395  C.ar    1  <O>11      -0.0100
   5 C4        0.7410     5.9700     3.9760  C.ar    1  <O>11       0.0230
   6 C5        0.7647     7.2839     3.7528  C.ar    1  <O>11       0.0303
   7 N2       -0.5804     7.5327     3.5055  N.ar    1  <O>11      -0.2839
   8 N3       -1.3228     6.3839     3.4432  N.ar    1  <O>11      -0.1779
   9 C6       -0.4735     5.4182     3.8075  C.ar    1  <O>11       0.0751
  10 C7       -0.7111     3.9973     4.0153  C.3     1  <O>11       0.0208
  11 C8       -1.0938     3.7391     5.4327  C.3     1  <O>11      -0.0274
  12 C9       -1.8465     2.4232     5.3081  C.3     1  <O>11       0.0153
  13 N4       -2.4437     2.4700     3.9846  N.am    1  <O>11      -0.3006
  14 C10      -3.4164     1.6659     3.4791  C.2     1  <O>11       0.2187
  15 O1       -3.8164     1.8353     2.3371  O.2     1  <O>11      -0.2753
  16 C11      -3.9963     0.5770     4.3201  C.3     1  <O>11       0.0358
  17 C12      -3.2185    -0.6854     4.1379  C.3     1  <O>11      -0.0419
  18 C13      -3.8513    -1.3317     2.9083  C.3     1  <O>11      -0.0523
  19 C14      -5.1509    -0.5722     2.6416  C.3     1  <O>11      -0.0523
  20 C15      -5.3889     0.2720     3.8823  C.3     1  <O>11      -0.0419
  21 C16      -1.8623     3.5387     3.1849  C.3     1  <O>11       0.0230
  22 C17       2.6639     4.6834     3.3579  C.ar    1  <O>11      -0.0356
  23 C18       3.8024     3.9729     3.7374  C.ar    1  <O>11       0.0302
  24 N5        4.1374     3.8086     5.0266  N.ar    1  <O>11      -0.2407
  25 H1        4.5551     3.6243     7.5678  H       1  <O>11       0.1437
  26 H2        3.1373     4.5403     8.0894  H       1  <O>11       0.1437
  27 H3       -0.9502     8.4649     3.3879  H       1  <O>11       0.1882
  28 H4        0.1882     3.4393     3.7576  H       1  <O>11       0.0380
  29 H5       -0.2167     3.6363     6.0696  H       1  <O>11       0.0287
  30 H6       -1.7357     4.5294     5.8224  H       1  <O>11       0.0287
  31 H7       -1.1620     1.5787     5.3923  H       1  <O>11       0.0465
  32 H8       -2.6160     2.3449     6.0752  H       1  <O>11       0.0465
  33 H9       -3.9844     0.8811     5.3666  H       1  <O>11       0.0394
  34 H10      -2.1623    -0.4711     3.9657  H       1  <O>11       0.0272
  35 H11      -3.3191    -1.3316     5.0109  H       1  <O>11       0.0272
  36 H12      -3.1815    -1.2452     2.0509  H       1  <O>11       0.0265
  37 H13      -4.0627    -2.3833     3.1011  H       1  <O>11       0.0265
  38 H14      -5.0460     0.0641     1.7620  H       1  <O>11       0.0265
  39 H15      -5.9744    -1.2684     2.4906  H       1  <O>11       0.0265
  40 H16      -5.9371     1.1824     3.6454  H       1  <O>11       0.0272
  41 H17      -5.9286    -0.2871     4.6461  H       1  <O>11       0.0272
  42 H18      -1.5218     3.1637     2.2190  H       1  <O>11       0.0471
  43 H19      -2.5780     4.3441     3.0294  H       1  <O>11       0.0471
  44 H20       1.5999     5.4547     6.4321  H       1  <O>11       0.0658
  45 H21       1.5632     7.9376     3.7613  H       1  <O>11       0.0830
  46 H22       2.4268     4.7886     2.3590  H       1  <O>11       0.0639
  47 H23       4.4041     3.5620     3.0065  H       1  <O>11       0.0830
@<TRIPOS>BOND
     1     1     2    1
     2     2     3   ar
     3     3     4   ar
     4     4     5    1
     5     5     6   ar
     6     6     7   ar
     7     7     8   ar
     8     8     9   ar
     9     5     9   ar
    10     9    10    1
    11    10    11    1
    12    11    12    1
    13    12    13    1
    14    13    14   am
    15    14    15    2
    16    14    16    1
    17    16    17    1
    18    17    18    1
    19    18    19    1
    20    19    20    1
    21    16    20    1
    22    13    21    1
    23    10    21    1
    24     4    22   ar
    25    22    23   ar
    26    23    24   ar
    27     2    24   ar
    28     1    25    1
    29     1    26    1
    30     7    27    1
    31    10    28    1
    32    11    29    1
    33    11    30    1
    34    12    31    1
    35    12    32    1
    36    16    33    1
    37    17    34    1
    38    17    35    1
    39    18    36    1
    40    18    37    1
    41    19    38    1
    42    19    39    1
    43    20    40    1
    44    20    41    1
    45    21    42    1
    46    21    43    1
    47     3    44    1
    48     6    45    1
    49    22    46    1
    50    23    47    1
@<TRIPOS>MOLECULE
mol6_3_2
 47 50 0 0 0
SMALL
USER_CHARGES
****
VDW energy = -69.51
@<TRIPOS>ATOM
   1 N1        3.7120     4.1520     7.3415  N.pl3   1  <O>11      -0.3431
   2 C1        3.3329     4.3488     5.9653  C.ar    1  <O>11       0.1167
   3 C2        2.1864     5.0670     5.6766  C.ar    1  <O>11      -0.0143
   4 C3        1.8446     5.2530     4.3395  C.ar    1  <O>11      -0.0100
   5 C4        0.7410     5.9700     3.9760  C.ar    1  <O>11       0.0230
   6 C5       -0.4632     5.4231     3.8104  C.ar    1  <O>11       0.0303
   7 N2       -1.1934     6.5226     3.3741  N.ar    1  <O>11      -0.2839
   8 N3       -0.4726     7.6854     3.4293  N.ar    1  <O>11      -0.1779
   9 C6        0.7644     7.2957     3.7522  C.ar    1  <O>11       0.0751
  10 C7        1.9873     8.0764     3.8689  C.3     1  <O>11       0.0208
  11 C8        2.6992     8.1208     2.5599  C.3     1  <O>11      -0.0274
  12 C9        3.5319     9.3848     2.7108  C.3     1  <O>11       0.0153
  13 N4        2.7393    10.2408     3.5766  N.am    1  <O>11      -0.3006
  14 C10       2.9061    11.5685     3.8167  C.2     1  <O>11       0.2187
  15 O1        2.1481    12.1515     4.5772  O.2     1  <O>11      -0.2753
  16 C11       4.0145    12.3140     3.1498  C.3     1  <O>11       0.0358
  17 C12       5.2465    12.2707     3.9939  C.3     1  <O>11      -0.0419
  18 C13       5.0718    13.4415     4.9576  C.3     1  <O>11      -0.0523
  19 C14       3.9136    14.2789     4.4148  C.3     1  <O>11      -0.0523
  20 C15       3.6580    13.7554     3.0115  C.3     1  <O>11      -0.0419
  21 C16       1.6662     9.4916     4.2144  C.3     1  <O>11       0.0230
  22 C17       2.6639     4.6834     3.3579  C.ar    1  <O>11      -0.0356
  23 C18       3.8024     3.9729     3.7374  C.ar    1  <O>11       0.0302
  24 N5        4.1374     3.8086     5.0266  N.ar    1  <O>11      -0.2407
  25 H1        4.5551     3.6243     7.5678  H       1  <O>11       0.1437
  26 H2        3.1373     4.5403     8.0894  H       1  <O>11       0.1437
  27 H3       -2.1488     6.4514     3.0553  H       1  <O>11       0.1882
  28 H4        2.6258     7.6353     4.6332  H       1  <O>11       0.0380
  29 H5        3.3295     7.2442     2.4195  H       1  <O>11       0.0287
  30 H6        1.9991     8.2023     1.7283  H       1  <O>11       0.0287
  31 H7        4.4949     9.1588     3.1693  H       1  <O>11       0.0465
  32 H8        3.6924     9.8586     1.7432  H       1  <O>11       0.0465
  33 H9        4.2105    11.8748     2.1717  H       1  <O>11       0.0394
  34 H10       5.3143    11.3262     4.5364  H       1  <O>11       0.0272
  35 H11       6.1399    12.4018     3.3820  H       1  <O>11       0.0272
  36 H12       4.8347    13.0739     5.9575  H       1  <O>11       0.0265
  37 H13       5.9827    14.0388     4.9952  H       1  <O>11       0.0265
  38 H14       3.0271    14.1504     5.0369  H       1  <O>11       0.0265
  39 H15       4.1871    15.3323     4.3846  H       1  <O>11       0.0265
  40 H16       2.6151    13.8788     2.7242  H       1  <O>11       0.0272
  41 H17       4.2958    14.2507     2.2800  H       1  <O>11       0.0272
  42 H18       1.6733     9.6408     5.2948  H       1  <O>11       0.0471
  43 H19       0.6960     9.7815     3.8146  H       1  <O>11       0.0471
  44 H20       1.5999     5.4547     6.4321  H       1  <O>11       0.0658
  45 H21      -0.7697     4.4497     3.9640  H       1  <O>11       0.0830
  46 H22       2.4268     4.7886     2.3590  H       1  <O>11       0.0639
  47 H23       4.4041     3.5620     3.0065  H       1  <O>11       0.0830
@<TRIPOS>BOND
     1     1     2    1
     2     2     3   ar
     3     3     4   ar
     4     4     5    1
     5     5     6   ar
     6     6     7   ar
     7     7     8   ar
     8     8     9   ar
     9     5     9   ar
    10     9    10    1
    11    10    11    1
    12    11    12    1
    13    12    13    1
    14    13    14   am
    15    14    15    2
    16    14    16    1
    17    16    17    1
    18    17    18    1
    19    18    19    1
    20    19    20    1
    21    16    20    1
    22    13    21    1
    23    10    21    1
    24     4    22   ar
    25    22    23   ar
    26    23    24   ar
    27     2    24   ar
    28     1    25    1
    29     1    26    1
    30     7    27    1
    31    10    28    1
    32    11    29    1
    33    11    30    1
    34    12    31    1
    35    12    32    1
    36    16    33    1
    37    17    34    1
    38    17    35    1
    39    18    36    1
    40    18    37    1
    41    19    38    1
    42    19    39    1
    43    20    40    1
    44    20    41    1
    45    21    42    1
    46    21    43    1
    47     3    44    1
    48     6    45    1
    49    22    46    1
    50    23    47    1
@<TRIPOS>MOLECULE
mol6_3_3
 47 50 0 0 0
SMALL
USER_CHARGES
****
VDW energy = -67.22
@<TRIPOS>ATOM
   1 N1        3.7120     4.1520     7.3415  N.pl3   1  <O>11      -0.3431
   2 C1        3.3329     4.3488     5.9653  C.ar    1  <O>11       0.1167
   3 C2        2.1864     5.0670     5.6766  C.ar    1  <O>11      -0.0143
   4 C3        1.8446     5.2530     4.3395  C.ar    1  <O>11      -0.0100
   5 C4        0.7410     5.9700     3.9760  C.ar    1  <O>11       0.0230
   6 C5       -0.4632     5.4231     3.8104  C.ar    1  <O>11       0.0303
   7 N2       -1.1934     6.5226     3.3741  N.ar    1  <O>11      -0.2839
   8 N3       -0.4726     7.6854     3.4293  N.ar    1  <O>11      -0.1779
   9 C6        0.7644     7.2957     3.7522  C.ar    1  <O>11       0.0751
  10 C7        1.9873     8.0764     3.8689  C.3     1  <O>11       0.0208
  11 C8        1.7615     9.4666     3.3806  C.3     1  <O>11      -0.0274
  12 C9        2.8620    10.2251     4.1068  C.3     1  <O>11       0.0153
  13 N4        3.0440     9.4982     5.3513  N.am    1  <O>11      -0.3006
  14 C10       3.7193     9.8993     6.4610  C.2     1  <O>11       0.2187
  15 O1        3.7810     9.1665     7.4366  O.2     1  <O>11      -0.2753
  16 C11       4.3842    11.2359     6.4874  C.3     1  <O>11       0.0358
  17 C12       5.7883    11.1237     5.9894  C.3     1  <O>11      -0.0419
  18 C13       6.5865    10.7295     7.2294  C.3     1  <O>11      -0.0523
  19 C14       5.6598    10.9441     8.4261  C.3     1  <O>11      -0.0523
  20 C15       4.4808    11.7375     7.8885  C.3     1  <O>11      -0.0419
  21 C16       2.3872     8.1998     5.3007  C.3     1  <O>11       0.0230
  22 C17       2.6639     4.6834     3.3579  C.ar    1  <O>11      -0.0356
  23 C18       3.8024     3.9729     3.7374  C.ar    1  <O>11       0.0302
  24 N5        4.1374     3.8086     5.0266  N.ar    1  <O>11      -0.2407
  25 H1        4.5551     3.6243     7.5678  H       1  <O>11       0.1437
  26 H2        3.1373     4.5403     8.0894  H       1  <O>11       0.1437
  27 H3       -2.1488     6.4514     3.0553  H       1  <O>11       0.1882
  28 H4        2.7785     7.5964     3.2945  H       1  <O>11       0.0380
  29 H5        1.8793     9.5333     2.3002  H       1  <O>11       0.0287
  30 H6        0.7737     9.8323     3.6619  H       1  <O>11       0.0287
  31 H7        3.7818    10.2231     3.5213  H       1  <O>11       0.0465
  32 H8        2.5580    11.2528     4.3020  H       1  <O>11       0.0465
  33 H9        3.8190    11.9349     5.8711  H       1  <O>11       0.0394
  34 H10       5.8673    10.3584     5.2154  H       1  <O>11       0.0272
  35 H11       6.1355    12.0782     5.5918  H       1  <O>11       0.0272
  36 H12       6.8852     9.6815     7.1673  H       1  <O>11       0.0265
  37 H13       7.4731    11.3564     7.3228  H       1  <O>11       0.0265
  38 H14       5.3245     9.9857     8.8243  H       1  <O>11       0.0265
  39 H15       6.1711    11.5038     9.2077  H       1  <O>11       0.0265
  40 H16       3.5706    11.5264     8.4475  H       1  <O>11       0.0272
  41 H17       4.6789    12.8087     7.9108  H       1  <O>11       0.0272
  42 H18       3.0750     7.4021     5.5839  H       1  <O>11       0.0471
  43 H19       1.5165     8.1767     5.9536  H       1  <O>11       0.0471
  44 H20       1.5999     5.4547     6.4321  H       1  <O>11       0.0658
  45 H21      -0.7697     4.4497     3.9640  H       1  <O>11       0.0830
  46 H22       2.4268     4.7886     2.3590  H       1  <O>11       0.0639
  47 H23       4.4041     3.5620     3.0065  H       1  <O>11       0.0830
@<TRIPOS>BOND
     1     1     2    1
     2     2     3   ar
     3     3     4   ar
     4     4     5    1
     5     5     6   ar
     6     6     7   ar
     7     7     8   ar
     8     8     9   ar
     9     5     9   ar
    10     9    10    1
    11    10    11    1
    12    11    12    1
    13    12    13    1
    14    13    14   am
    15    14    15    2
    16    14    16    1
    17    16    17    1
    18    17    18    1
    19    18    19    1
    20    19    20    1
    21    16    20    1
    22    13    21    1
    23    10    21    1
    24     4    22   ar
    25    22    23   ar
    26    23    24   ar
    27     2    24   ar
    28     1    25    1
    29     1    26    1
    30     7    27    1
    31    10    28    1
    32    11    29    1
    33    11    30    1
    34    12    31    1
    35    12    32    1
    36    16    33    1
    37    17    34    1
    38    17    35    1
    39    18    36    1
    40    18    37    1
    41    19    38    1
    42    19    39    1
    43    20    40    1
    44    20    41    1
    45    21    42    1
    46    21    43    1
    47     3    44    1
    48     6    45    1
    49    22    46    1
    50    23    47    1
@<TRIPOS>MOLECULE
mol6_3_4
 47 50 0 0 0
SMALL
USER_CHARGES
****
VDW energy = -66.96
@<TRIPOS>ATOM
   1 N1        3.7120     4.1520     7.3415  N.pl3   1  <O>11      -0.3431
   2 C1        3.3329     4.3488     5.9653  C.ar    1  <O>11       0.1167
   3 C2        2.1864     5.0670     5.6766  C.ar    1  <O>11      -0.0143
   4 C3        1.8446     5.2530     4.3395  C.ar    1  <O>11      -0.0100
   5 C4        0.7410     5.9700     3.9760  C.ar    1  <O>11       0.0230
   6 C5        0.7647     7.2839     3.7528  C.ar    1  <O>11       0.0303
   7 N2       -0.5804     7.5327     3.5055  N.ar    1  <O>11      -0.2839
   8 N3       -1.3228     6.3839     3.4432  N.ar    1  <O>11      -0.1779
   9 C6       -0.4735     5.4182     3.8075  C.ar    1  <O>11       0.0751
  10 C7       -0.7111     3.9973     4.0153  C.3     1  <O>11       0.0208
  11 C8       -2.1708     3.7021     3.9485  C.3     1  <O>11      -0.0274
  12 C9       -2.1646     2.2246     3.5868  C.3     1  <O>11       0.0153
  13 N4       -0.9560     2.0481     2.8003  N.am    1  <O>11      -0.3006
  14 C10      -0.6119     0.9846     2.0264  C.2     1  <O>11       0.2187
  15 O1        0.4491     0.9881     1.4206  O.2     1  <O>11      -0.2753
  16 C11      -1.5313    -0.1866     1.9161  C.3     1  <O>11       0.0358
  17 C12      -1.2197    -1.1890     2.9792  C.3     1  <O>11      -0.0419
  18 C13      -0.1066    -2.0366     2.3689  C.3     1  <O>11      -0.0523
  19 C14      -0.0579    -1.6808     0.8828  C.3     1  <O>11      -0.0523
  20 C15      -1.3244    -0.8853     0.6150  C.3     1  <O>11      -0.0419
  21 C16      -0.0770     3.2021     2.9241  C.3     1  <O>11       0.0230
  22 C17       2.6639     4.6834     3.3579  C.ar    1  <O>11      -0.0356
  23 C18       3.8024     3.9729     3.7374  C.ar    1  <O>11       0.0302
  24 N5        4.1374     3.8086     5.0266  N.ar    1  <O>11      -0.2407
  25 H1        4.5551     3.6243     7.5678  H       1  <O>11       0.1437
  26 H2        3.1373     4.5403     8.0894  H       1  <O>11       0.1437
  27 H3       -0.9502     8.4649     3.3879  H       1  <O>11       0.1882
  28 H4       -0.3082     3.7015     4.9830  H       1  <O>11       0.0380
  29 H5       -2.6561     3.8742     4.9078  H       1  <O>11       0.0287
  30 H6       -2.6630     4.2980     3.1797  H       1  <O>11       0.0287
  31 H7       -2.1327     1.6084     4.4857  H       1  <O>11       0.0465
  32 H8       -3.0462     1.9673     3.0010  H       1  <O>11       0.0465
  33 H9       -2.5633     0.1521     2.0064  H       1  <O>11       0.0394
  34 H10      -0.8789    -0.6965     3.8916  H       1  <O>11       0.0272
  35 H11      -2.0947    -1.8007     3.2030  H       1  <O>11       0.0272
  36 H12       0.8480    -1.8029     2.8437  H       1  <O>11       0.0265
  37 H13      -0.3266    -3.0965     2.4950  H       1  <O>11       0.0265
  38 H14       0.8242    -1.0777     0.6648  H       1  <O>11       0.0265
  39 H15      -0.0399    -2.5844     0.2756  H       1  <O>11       0.0265
  40 H16      -1.1838    -0.1742    -0.1975  H       1  <O>11       0.0272
  41 H17      -2.1634    -1.5401     0.3816  H       1  <O>11       0.0272
  42 H18       0.9331     2.8967     3.2002  H       1  <O>11       0.0471
  43 H19      -0.0434     3.7691     1.9955  H       1  <O>11       0.0471
  44 H20       1.5999     5.4547     6.4321  H       1  <O>11       0.0658
  45 H21       1.5632     7.9376     3.7613  H       1  <O>11       0.0830
  46 H22       2.4268     4.7886     2.3590  H       1  <O>11       0.0639
  47 H23       4.4041     3.5620     3.0065  H       1  <O>11       0.0830
@<TRIPOS>BOND
     1     1     2    1
     2     2     3   ar
     3     3     4   ar
     4     4     5    1
     5     5     6   ar
     6     6     7   ar
     7     7     8   ar
     8     8     9   ar
     9     5     9   ar
    10     9    10    1
    11    10    11    1
    12    11    12    1
    13    12    13    1
    14    13    14   am
    15    14    15    2
    16    14    16    1
    17    16    17    1
    18    17    18    1
    19    18    19    1
    20    19    20    1
    21    16    20    1
    22    13    21    1
    23    10    21    1
    24     4    22   ar
    25    22    23   ar
    26    23    24   ar
    27     2    24   ar
    28     1    25    1
    29     1    26    1
    30     7    27    1
    31    10    28    1
    32    11    29    1
    33    11    30    1
    34    12    31    1
    35    12    32    1
    36    16    33    1
    37    17    34    1
    38    17    35    1
    39    18    36    1
    40    18    37    1
    41    19    38    1
    42    19    39    1
    43    20    40    1
    44    20    41    1
    45    21    42    1
    46    21    43    1
    47     3    44    1
    48     6    45    1
    49    22    46    1
    50    23    47    1
@<TRIPOS>MOLECULE
mol6_3_5
 47 50 0 0 0
SMALL
USER_CHARGES
****
VDW energy = -66.52
@<TRIPOS>ATOM
   1 N1        3.7120     4.1520     7.3415  N.pl3   1  <O>11      -0.3431
   2 C1        3.3329     4.3488     5.9653  C.ar    1  <O>11       0.1167
   3 C2        2.1864     5.0670     5.6766  C.ar    1  <O>11      -0.0143
   4 C3        1.8446     5.2530     4.3395  C.ar    1  <O>11      -0.0100
   5 C4        0.7410     5.9700     3.9760  C.ar    1  <O>11       0.0230
   6 C5        0.7647     7.2839     3.7528  C.ar    1  <O>11       0.0303
   7 N2       -0.5804     7.5327     3.5055  N.ar    1  <O>11      -0.2839
   8 N3       -1.3228     6.3839     3.4432  N.ar    1  <O>11      -0.1779
   9 C6       -0.4735     5.4182     3.8075  C.ar    1  <O>11       0.0751
  10 C7       -0.7111     3.9973     4.0153  C.3     1  <O>11       0.0208
  11 C8       -1.0938     3.7391     5.4327  C.3     1  <O>11      -0.0274
  12 C9       -1.8465     2.4232     5.3081  C.3     1  <O>11       0.0153
  13 N4       -2.4437     2.4700     3.9846  N.am    1  <O>11      -0.3006
  14 C10      -3.4164     1.6659     3.4791  C.2     1  <O>11       0.2187
  15 O1       -3.8901     0.7741     4.1669  O.2     1  <O>11      -0.2753
  16 C11      -3.9043     1.8720     2.0831  C.3     1  <O>11       0.0358
  17 C12      -5.0511     2.8293     2.0735  C.3     1  <O>11      -0.0419
  18 C13      -6.2674     1.9470     2.3421  C.3     1  <O>11      -0.0523
  19 C14      -5.7975     0.5016     2.1776  C.3     1  <O>11      -0.0523
  20 C15      -4.4285     0.5924     1.5247  C.3     1  <O>11      -0.0419
  21 C16      -1.8623     3.5387     3.1849  C.3     1  <O>11       0.0230
  22 C17       2.6639     4.6834     3.3579  C.ar    1  <O>11      -0.0356
  23 C18       3.8024     3.9729     3.7374  C.ar    1  <O>11       0.0302
  24 N5        4.1374     3.8086     5.0266  N.ar    1  <O>11      -0.2407
  25 H1        4.5551     3.6243     7.5678  H       1  <O>11       0.1437
  26 H2        3.1373     4.5403     8.0894  H       1  <O>11       0.1437
  27 H3       -0.9502     8.4649     3.3879  H       1  <O>11       0.1882
  28 H4        0.1882     3.4393     3.7576  H       1  <O>11       0.0380
  29 H5       -0.2167     3.6363     6.0696  H       1  <O>11       0.0287
  30 H6       -1.7357     4.5294     5.8224  H       1  <O>11       0.0287
  31 H7       -1.1620     1.5787     5.3923  H       1  <O>11       0.0465
  32 H8       -2.6160     2.3449     6.0752  H       1  <O>11       0.0465
  33 H9       -3.0898     2.2511     1.4661  H       1  <O>11       0.0394
  34 H10      -4.9363     3.5831     2.8543  H       1  <O>11       0.0272
  35 H11      -5.1359     3.3222     1.1041  H       1  <O>11       0.0272
  36 H12      -6.6345     2.1107     3.3568  H       1  <O>11       0.0265
  37 H13      -7.0599     2.1686     1.6275  H       1  <O>11       0.0265
  38 H14      -5.7244     0.0124     3.1497  H       1  <O>11       0.0265
  39 H15      -6.4866    -0.0527     1.5425  H       1  <O>11       0.0265
  40 H16      -3.7970    -0.2492     1.8048  H       1  <O>11       0.0272
  41 H17      -4.5081     0.6395     0.4390  H       1  <O>11       0.0272
  42 H18      -1.5218     3.1637     2.2190  H       1  <O>11       0.0471
  43 H19      -2.5780     4.3441     3.0294  H       1  <O>11       0.0471
  44 H20       1.5999     5.4547     6.4321  H       1  <O>11       0.0658
  45 H21       1.5632     7.9376     3.7613  H       1  <O>11       0.0830
  46 H22       2.4268     4.7886     2.3590  H       1  <O>11       0.0639
  47 H23       4.4041     3.5620     3.0065  H       1  <O>11       0.0830
@<TRIPOS>BOND
     1     1     2    1
     2     2     3   ar
     3     3     4   ar
     4     4     5    1
     5     5     6   ar
     6     6     7   ar
     7     7     8   ar
     8     8     9   ar
     9     5     9   ar
    10     9    10    1
    11    10    11    1
    12    11    12    1
    13    12    13    1
    14    13    14   am
    15    14    15    2
    16    14    16    1
    17    16    17    1
    18    17    18    1
    19    18    19    1
    20    19    20    1
    21    16    20    1
    22    13    21    1
    23    10    21    1
    24     4    22   ar
    25    22    23   ar
    26    23    24   ar
    27     2    24   ar
    28     1    25    1
    29     1    26    1
    30     7    27    1
    31    10    28    1
    32    11    29    1
    33    11    30    1
    34    12    31    1
    35    12    32    1
    36    16    33    1
    37    17    34    1
    38    17    35    1
    39    18    36    1
    40    18    37    1
    41    19    38    1
    42    19    39    1
    43    20    40    1
    44    20    41    1
    45    21    42    1
    46    21    43    1
    47     3    44    1
    48     6    45    1
    49    22    46    1
    50    23    47    1
@<TRIPOS>MOLECULE
mol6_3_6
 47 50 0 0 0
SMALL
USER_CHARGES
****
VDW energy = -66.46
@<TRIPOS>ATOM
   1 N1        3.7120     4.1520     7.3415  N.pl3   1  <O>11      -0.3431
   2 C1        3.3329     4.3488     5.9653  C.ar    1  <O>11       0.1167
   3 C2        2.1864     5.0670     5.6766  C.ar    1  <O>11      -0.0143
   4 C3        1.8446     5.2530     4.3395  C.ar    1  <O>11      -0.0100
   5 C4        0.7410     5.9700     3.9760  C.ar    1  <O>11       0.0230
   6 C5       -0.4632     5.4231     3.8104  C.ar    1  <O>11       0.0303
   7 N2       -1.1934     6.5226     3.3741  N.ar    1  <O>11      -0.2839
   8 N3       -0.4726     7.6854     3.4293  N.ar    1  <O>11      -0.1779
   9 C6        0.7644     7.2957     3.7522  C.ar    1  <O>11       0.0751
  10 C7        1.9873     8.0764     3.8689  C.3     1  <O>11       0.0208
  11 C8        2.6992     8.1208     2.5599  C.3     1  <O>11      -0.0274
  12 C9        3.5319     9.3848     2.7108  C.3     1  <O>11       0.0153
  13 N4        2.7393    10.2408     3.5766  N.am    1  <O>11      -0.3006
  14 C10       2.9061    11.5685     3.8167  C.2     1  <O>11       0.2187
  15 O1        3.8131    12.1785     3.2709  O.2     1  <O>11      -0.2753
  16 C11       1.9816    12.2803     4.7484  C.3     1  <O>11       0.0358
  17 C12       0.8120    12.8272     3.9967  C.3     1  <O>11      -0.0419
  18 C13       1.3027    14.1805     3.4891  C.3     1  <O>11      -0.0523
  19 C14       2.6040    14.4758     4.2352  C.3     1  <O>11      -0.0523
  20 C15       2.6673    13.4554     5.3592  C.3     1  <O>11      -0.0419
  21 C16       1.6662     9.4916     4.2144  C.3     1  <O>11       0.0230
  22 C17       2.6639     4.6834     3.3579  C.ar    1  <O>11      -0.0356
  23 C18       3.8024     3.9729     3.7374  C.ar    1  <O>11       0.0302
  24 N5        4.1374     3.8086     5.0266  N.ar    1  <O>11      -0.2407
  25 H1        4.5551     3.6243     7.5678  H       1  <O>11       0.1437
  26 H2        3.1373     4.5403     8.0894  H       1  <O>11       0.1437
  27 H3       -2.1488     6.4514     3.0553  H       1  <O>11       0.1882
  28 H4        2.6258     7.6353     4.6332  H       1  <O>11       0.0380
  29 H5        3.3295     7.2442     2.4195  H       1  <O>11       0.0287
  30 H6        1.9991     8.2023     1.7283  H       1  <O>11       0.0287
  31 H7        4.4949     9.1588     3.1693  H       1  <O>11       0.0465
  32 H8        3.6924     9.8586     1.7432  H       1  <O>11       0.0465
  33 H9        1.6450    11.5912     5.5227  H       1  <O>11       0.0394
  34 H10       0.5426    12.1734     3.1655  H       1  <O>11       0.0272
  35 H11      -0.0489    12.9489     4.6554  H       1  <O>11       0.0272
  36 H12       1.4867    14.1351     2.4142  H       1  <O>11       0.0265
  37 H13       0.5641    14.9535     3.7003  H       1  <O>11       0.0265
  38 H14       3.4593    14.3616     3.5682  H       1  <O>11       0.0265
  39 H15       2.5900    15.4870     4.6389  H       1  <O>11       0.0265
  40 H16       3.6963    13.2186     5.6246  H       1  <O>11       0.0272
  41 H17       2.1365    13.8051     6.2441  H       1  <O>11       0.0272
  42 H18       1.6733     9.6408     5.2948  H       1  <O>11       0.0471
  43 H19       0.6960     9.7815     3.8146  H       1  <O>11       0.0471
  44 H20       1.5999     5.4547     6.4321  H       1  <O>11       0.0658
  45 H21      -0.7697     4.4497     3.9640  H       1  <O>11       0.0830
  46 H22       2.4268     4.7886     2.3590  H       1  <O>11       0.0639
  47 H23       4.4041     3.5620     3.0065  H       1  <O>11       0.0830
@<TRIPOS>BOND
     1     1     2    1
     2     2     3   ar
     3     3     4   ar
     4     4     5    1
     5     5     6   ar
     6     6     7   ar
     7     7     8   ar
     8     8     9   ar
     9     5     9   ar
    10     9    10    1
    11    10    11    1
    12    11    12    1
    13    12    13    1
    14    13    14   am
    15    14    15    2
    16    14    16    1
    17    16    17    1
    18    17    18    1
    19    18    19    1
    20    19    20    1
    21    16    20    1
    22    13    21    1
    23    10    21    1
    24     4    22   ar
    25    22    23   ar
    26    23    24   ar
    27     2    24   ar
    28     1    25    1
    29     1    26    1
    30     7    27    1
    31    10    28    1
    32    11    29    1
    33    11    30    1
    34    12    31    1
    35    12    32    1
    36    16    33    1
    37    17    34    1
    38    17    35    1
    39    18    36    1
    40    18    37    1
    41    19    38    1
    42    19    39    1
    43    20    40    1
    44    20    41    1
    45    21    42    1
    46    21    43    1
    47     3    44    1
    48     6    45    1
    49    22    46    1
    50    23    47    1
@<TRIPOS>MOLECULE
mol6_3_7
 47 50 0 0 0
SMALL
USER_CHARGES
****
VDW energy = -64.98
@<TRIPOS>ATOM
   1 N1        3.7120     4.1520     7.3415  N.pl3   1  <O>11      -0.3431
   2 C1        3.3329     4.3488     5.9653  C.ar    1  <O>11       0.1167
   3 C2        2.1864     5.0670     5.6766  C.ar    1  <O>11      -0.0143
   4 C3        1.8446     5.2530     4.3395  C.ar    1  <O>11      -0.0100
   5 C4        0.7410     5.9700     3.9760  C.ar    1  <O>11       0.0230
   6 C5       -0.4632     5.4231     3.8104  C.ar    1  <O>11       0.0303
   7 N2       -1.1934     6.5226     3.3741  N.ar    1  <O>11      -0.2839
   8 N3       -0.4726     7.6854     3.4293  N.ar    1  <O>11      -0.1779
   9 C6        0.7644     7.2957     3.7522  C.ar    1  <O>11       0.0751
  10 C7        1.9873     8.0764     3.8689  C.3     1  <O>11       0.0208
  11 C8        1.7615     9.4666     3.3806  C.3     1  <O>11      -0.0274
  12 C9        2.8620    10.2251     4.1068  C.3     1  <O>11       0.0153
  13 N4        3.0440     9.4982     5.3513  N.am    1  <O>11      -0.3006
  14 C10       3.7193     9.8993     6.4610  C.2     1  <O>11       0.2187
  15 O1        4.2633    10.9931     6.4826  O.2     1  <O>11      -0.2753
  16 C11       3.7971     9.0026     7.6522  C.3     1  <O>11       0.0358
  17 C12       2.6493     9.2654     8.5716  C.3     1  <O>11      -0.0419
  18 C13       3.1340    10.4221     9.4416  C.3     1  <O>11      -0.0523
  19 C14       4.6366    10.5513     9.1909  C.3     1  <O>11      -0.0523
  20 C15       5.0314     9.2923     8.4375  C.3     1  <O>11      -0.0419
  21 C16       2.3872     8.1998     5.3007  C.3     1  <O>11       0.0230
  22 C17       2.6639     4.6834     3.3579  C.ar    1  <O>11      -0.0356
  23 C18       3.8024     3.9729     3.7374  C.ar    1  <O>11       0.0302
  24 N5        4.1374     3.8086     5.0266  N.ar    1  <O>11      -0.2407
  25 H1        4.5551     3.6243     7.5678  H       1  <O>11       0.1437
  26 H2        3.1373     4.5403     8.0894  H       1  <O>11       0.1437
  27 H3       -2.1488     6.4514     3.0553  H       1  <O>11       0.1882
  28 H4        2.7785     7.5964     3.2945  H       1  <O>11       0.0380
  29 H5        1.8793     9.5333     2.3002  H       1  <O>11       0.0287
  30 H6        0.7737     9.8323     3.6619  H       1  <O>11       0.0287
  31 H7        3.7818    10.2231     3.5213  H       1  <O>11       0.0465
  32 H8        2.5580    11.2528     4.3020  H       1  <O>11       0.0465
  33 H9        3.7895     7.9629     7.3251  H       1  <O>11       0.0394
  34 H10       1.7568     9.5471     8.0103  H       1  <O>11       0.0272
  35 H11       2.4319     8.3868     9.1804  H       1  <O>11       0.0272
  36 H12       2.6242    11.3449     9.1591  H       1  <O>11       0.0265
  37 H13       2.9450    10.2086    10.4935  H       1  <O>11       0.0265
  38 H14       4.8472    11.4369     8.5901  H       1  <O>11       0.0265
  39 H15       5.1757    10.6155    10.1347  H       1  <O>11       0.0265
  40 H16       5.8833     9.4703     7.7833  H       1  <O>11       0.0272
  41 H17       5.2642     8.4764     9.1210  H       1  <O>11       0.0272
  42 H18       3.0750     7.4021     5.5839  H       1  <O>11       0.0471
  43 H19       1.5165     8.1767     5.9536  H       1  <O>11       0.0471
  44 H20       1.5999     5.4547     6.4321  H       1  <O>11       0.0658
  45 H21      -0.7697     4.4497     3.9640  H       1  <O>11       0.0830
  46 H22       2.4268     4.7886     2.3590  H       1  <O>11       0.0639
  47 H23       4.4041     3.5620     3.0065  H       1  <O>11       0.0830
@<TRIPOS>BOND
     1     1     2    1
     2     2     3   ar
     3     3     4   ar
     4     4     5    1
     5     5     6   ar
     6     6     7   ar
     7     7     8   ar
     8     8     9   ar
     9     5     9   ar
    10     9    10    1
    11    10    11    1
    12    11    12    1
    13    12    13    1
    14    13    14   am
    15    14    15    2
    16    14    16    1
    17    16    17    1
    18    17    18    1
    19    18    19    1
    20    19    20    1
    21    16    20    1
    22    13    21    1
    23    10    21    1
    24     4    22   ar
    25    22    23   ar
    26    23    24   ar
    27     2    24   ar
    28     1    25    1
    29     1    26    1
    30     7    27    1
    31    10    28    1
    32    11    29    1
    33    11    30    1
    34    12    31    1
    35    12    32    1
    36    16    33    1
    37    17    34    1
    38    17    35    1
    39    18    36    1
    40    18    37    1
    41    19    38    1
    42    19    39    1
    43    20    40    1
    44    20    41    1
    45    21    42    1
    46    21    43    1
    47     3    44    1
    48     6    45    1
    49    22    46    1
    50    23    47    1
@<TRIPOS>MOLECULE
mol6_3_8
 47 50 0 0 0
SMALL
USER_CHARGES
****
VDW energy = -64.55
@<TRIPOS>ATOM
   1 N1        3.7120     4.1520     7.3415  N.pl3   1  <O>11      -0.3431
   2 C1        3.3329     4.3488     5.9653  C.ar    1  <O>11       0.1167
   3 C2        2.1864     5.0670     5.6766  C.ar    1  <O>11      -0.0143
   4 C3        1.8446     5.2530     4.3395  C.ar    1  <O>11      -0.0100
   5 C4        0.7410     5.9700     3.9760  C.ar    1  <O>11       0.0230
   6 C5        0.7647     7.2839     3.7528  C.ar    1  <O>11       0.0303
   7 N2       -0.5804     7.5327     3.5055  N.ar    1  <O>11      -0.2839
   8 N3       -1.3228     6.3839     3.4432  N.ar    1  <O>11      -0.1779
   9 C6       -0.4735     5.4182     3.8075  C.ar    1  <O>11       0.0751
  10 C7       -0.7111     3.9973     4.0153  C.3     1  <O>11       0.0208
  11 C8       -2.1708     3.7021     3.9485  C.3     1  <O>11      -0.0274
  12 C9       -2.1646     2.2246     3.5868  C.3     1  <O>11       0.0153
  13 N4       -0.9560     2.0481     2.8003  N.am    1  <O>11      -0.3006
  14 C10      -0.6119     0.9846     2.0264  C.2     1  <O>11       0.2187
  15 O1       -1.3637     0.0257     1.9371  O.2     1  <O>11      -0.2753
  16 C11       0.6853     0.9883     1.2871  C.3     1  <O>11       0.0358
  17 C12       0.5043     1.5872    -0.0695  C.3     1  <O>11      -0.0419
  18 C13       0.0453     0.4132    -0.9302  C.3     1  <O>11      -0.0523
  19 C14       0.2901    -0.8498    -0.1043  C.3     1  <O>11      -0.0523
  20 C15       1.1566    -0.4088     1.0633  C.3     1  <O>11      -0.0419
  21 C16      -0.0770     3.2021     2.9241  C.3     1  <O>11       0.0230
  22 C17       2.6639     4.6834     3.3579  C.ar    1  <O>11      -0.0356
  23 C18       3.8024     3.9729     3.7374  C.ar    1  <O>11       0.0302
  24 N5        4.1374     3.8086     5.0266  N.ar    1  <O>11      -0.2407
  25 H1        4.5551     3.6243     7.5678  H       1  <O>11       0.1437
  26 H2        3.1373     4.5403     8.0894  H       1  <O>11       0.1437
  27 H3       -0.9502     8.4649     3.3879  H       1  <O>11       0.1882
  28 H4       -0.3082     3.7015     4.9830  H       1  <O>11       0.0380
  29 H5       -2.6561     3.8742     4.9078  H       1  <O>11       0.0287
  30 H6       -2.6630     4.2980     3.1797  H       1  <O>11       0.0287
  31 H7       -2.1327     1.6084     4.4857  H       1  <O>11       0.0465
  32 H8       -3.0462     1.9673     3.0010  H       1  <O>11       0.0465
  33 H9        1.4249     1.5532     1.8544  H       1  <O>11       0.0394
  34 H10      -0.2507     2.3750    -0.0502  H       1  <O>11       0.0272
  35 H11       1.4448     1.9961    -0.4409  H       1  <O>11       0.0272
  36 H12      -1.0163     0.5104    -1.1643  H       1  <O>11       0.0265
  37 H13       0.6205     0.3754    -1.8551  H       1  <O>11       0.0265
  38 H14      -0.6550    -1.2583     0.2553  H       1  <O>11       0.0265
  39 H15       0.8072    -1.6000    -0.7005  H       1  <O>11       0.0265
  40 H16       0.9865    -1.0288     1.9420  H       1  <O>11       0.0272
  41 H17       2.2146    -0.4310     0.8041  H       1  <O>11       0.0272
  42 H18       0.9331     2.8967     3.2002  H       1  <O>11       0.0471
  43 H19      -0.0434     3.7691     1.9955  H       1  <O>11       0.0471
  44 H20       1.5999     5.4547     6.4321  H       1  <O>11       0.0658
  45 H21       1.5632     7.9376     3.7613  H       1  <O>11       0.0830
  46 H22       2.4268     4.7886     2.3590  H       1  <O>11       0.0639
  47 H23       4.4041     3.5620     3.0065  H       1  <O>11       0.0830
@<TRIPOS>BOND
     1     1     2    1
     2     2     3   ar
     3     3     4   ar
     4     4     5    1
     5     5     6   ar
     6     6     7   ar
     7     7     8   ar
     8     8     9   ar
     9     5     9   ar
    10     9    10    1
    11    10    11    1
    12    11    12    1
    13    12    13    1
    14    13    14   am
    15    14    15    2
    16    14    16    1
    17    16    17    1
    18    17    18    1
    19    18    19    1
    20    19    20    1
    21    16    20    1
    22    13    21    1
    23    10    21    1
    24     4    22   ar
    25    22    23   ar
    26    23    24   ar
    27     2    24   ar
    28     1    25    1
    29     1    26    1
    30     7    27    1
    31    10    28    1
    32    11    29    1
    33    11    30    1
    34    12    31    1
    35    12    32    1
    36    16    33    1
    37    17    34    1
    38    17    35    1
    39    18    36    1
    40    18    37    1
    41    19    38    1
    42    19    39    1
    43    20    40    1
    44    20    41    1
    45    21    42    1
    46    21    43    1
    47     3    44    1
    48     6    45    1
    49    22    46    1
    50    23    47    1
@<TRIPOS>MOLECULE
mol6_3_9
 47 50 0 0 0
SMALL
USER_CHARGES
****
VDW energy = -64.55
@<TRIPOS>ATOM
   1 N1        3.7120     4.1520     7.3415  N.pl3   1  <O>11      -0.3431
   2 C1        3.3329     4.3488     5.9653  C.ar    1  <O>11       0.1167
   3 C2        2.1864     5.0670     5.6766  C.ar    1  <O>11      -0.0143
   4 C3        1.8446     5.2530     4.3395  C.ar    1  <O>11      -0.0100
   5 C4        0.7410     5.9700     3.9760  C.ar    1  <O>11       0.0230
   6 C5       -0.4632     5.4231     3.8104  C.ar    1  <O>11       0.0303
   7 N2       -1.1934     6.5226     3.3741  N.ar    1  <O>11      -0.2839
   8 N3       -0.4726     7.6854     3.4293  N.ar    1  <O>11      -0.1779
   9 C6        0.7644     7.2957     3.7522  C.ar    1  <O>11       0.0751
  10 C7        1.9873     8.0764     3.8689  C.3     1  <O>11       0.0208
  11 C8        1.7615     9.4666     3.3806  C.3     1  <O>11      -0.0274
  12 C9        2.8620    10.2251     4.1068  C.3     1  <O>11       0.0153
  13 N4        3.0440     9.4982     5.3513  N.am    1  <O>11      -0.3006
  14 C10       3.7193     9.8993     6.4610  C.2     1  <O>11       0.2187
  15 O1        3.7810     9.1665     7.4366  O.2     1  <O>11      -0.2753
  16 C11       4.3842    11.2359     6.4874  C.3     1  <O>11       0.0358
  17 C12       5.1967    11.3835     7.7324  C.3     1  <O>11      -0.0419
  18 C13       4.1942    11.8891     8.7666  C.3     1  <O>11      -0.0523
  19 C14       2.9443    12.3035     7.9900  C.3     1  <O>11      -0.0523
  20 C15       3.3619    12.3209     6.5293  C.3     1  <O>11      -0.0419
  21 C16       2.3872     8.1998     5.3007  C.3     1  <O>11       0.0230
  22 C17       2.6639     4.6834     3.3579  C.ar    1  <O>11      -0.0356
  23 C18       3.8024     3.9729     3.7374  C.ar    1  <O>11       0.0302
  24 N5        4.1374     3.8086     5.0266  N.ar    1  <O>11      -0.2407
  25 H1        4.5551     3.6243     7.5678  H       1  <O>11       0.1437
  26 H2        3.1373     4.5403     8.0894  H       1  <O>11       0.1437
  27 H3       -2.1488     6.4514     3.0553  H       1  <O>11       0.1882
  28 H4        2.7785     7.5964     3.2945  H       1  <O>11       0.0380
  29 H5        1.8793     9.5333     2.3002  H       1  <O>11       0.0287
  30 H6        0.7737     9.8323     3.6619  H       1  <O>11       0.0287
  31 H7        3.7818    10.2231     3.5213  H       1  <O>11       0.0465
  32 H8        2.5580    11.2528     4.3020  H       1  <O>11       0.0465
  33 H9        5.0178    11.3438     5.6072  H       1  <O>11       0.0394
  34 H10       5.6210    10.4252     8.0369  H       1  <O>11       0.0272
  35 H11       6.0011    12.1056     7.5865  H       1  <O>11       0.0272
  36 H12       3.9516    11.0951     9.4751  H       1  <O>11       0.0265
  37 H13       4.6044    12.7442     9.3035  H       1  <O>11       0.0265
  38 H14       2.1416    11.5824     8.1484  H       1  <O>11       0.0265
  39 H15       2.6121    13.2920     8.3032  H       1  <O>11       0.0265
  40 H16       2.5226    12.0986     5.8724  H       1  <O>11       0.0272
  41 H17       3.7949    13.2812     6.2508  H       1  <O>11       0.0272
  42 H18       3.0750     7.4021     5.5839  H       1  <O>11       0.0471
  43 H19       1.5165     8.1767     5.9536  H       1  <O>11       0.0471
  44 H20       1.5999     5.4547     6.4321  H       1  <O>11       0.0658
  45 H21      -0.7697     4.4497     3.9640  H       1  <O>11       0.0830
  46 H22       2.4268     4.7886     2.3590  H       1  <O>11       0.0639
  47 H23       4.4041     3.5620     3.0065  H       1  <O>11       0.0830
@<TRIPOS>BOND
     1     1     2    1
     2     2     3   ar
     3     3     4   ar
     4     4     5    1
     5     5     6   ar
     6     6     7   ar
     7     7     8   ar
     8     8     9   ar
     9     5     9   ar
    10     9    10    1
    11    10    11    1
    12    11    12    1
    13    12    13    1
    14    13    14   am
    15    14    15    2
    16    14    16    1
    17    16    17    1
    18    17    18    1
    19    18    19    1
    20    19    20    1
    21    16    20    1
    22    13    21    1
    23    10    21    1
    24     4    22   ar
    25    22    23   ar
    26    23    24   ar
    27     2    24   ar
    28     1    25    1
    29     1    26    1
    30     7    27    1
    31    10    28    1
    32    11    29    1
    33    11    30    1
    34    12    31    1
    35    12    32    1
    36    16    33    1
    37    17    34    1
    38    17    35    1
    39    18    36    1
    40    18    37    1
    41    19    38    1
    42    19    39    1
    43    20    40    1
    44    20    41    1
    45    21    42    1
    46    21    43    1
    47     3    44    1
    48     6    45    1
    49    22    46    1
    50    23    47    1
@<TRIPOS>MOLECULE
mol6_3_10
 47 50 0 0 0
SMALL
USER_CHARGES
****
VDW energy = -64.29
@<TRIPOS>ATOM
   1 N1        3.7120     4.1520     7.3415  N.pl3   1  <O>11      -0.3431
   2 C1        3.3329     4.3488     5.9653  C.ar    1  <O>11       0.1167
   3 C2        2.1864     5.0670     5.6766  C.ar    1  <O>11      -0.0143
   4 C3        1.8446     5.2530     4.3395  C.ar    1  <O>11      -0.0100
   5 C4        0.7410     5.9700     3.9760  C.ar    1  <O>11       0.0230
   6 C5        0.7647     7.2839     3.7528  C.ar    1  <O>11       0.0303
   7 N2       -0.5804     7.5327     3.5055  N.ar    1  <O>11      -0.2839
   8 N3       -1.3228     6.3839     3.4432  N.ar    1  <O>11      -0.1779
   9 C6       -0.4735     5.4182     3.8075  C.ar    1  <O>11       0.0751
  10 C7       -0.7111     3.9973     4.0153  C.3     1  <O>11       0.0208
  11 C8       -2.1708     3.7021     3.9485  C.3     1  <O>11      -0.0274
  12 C9       -2.1646     2.2246     3.5868  C.3     1  <O>11       0.0153
  13 N4       -0.9560     2.0481     2.8003  N.am    1  <O>11      -0.3006
  14 C10      -0.6119     0.9846     2.0264  C.2     1  <O>11       0.2187
  15 O1        0.4491     0.9881     1.4206  O.2     1  <O>11      -0.2753
  16 C11      -1.5313    -0.1866     1.9161  C.3     1  <O>11       0.0358
  17 C12      -0.8715    -1.2907     1.1561  C.3     1  <O>11      -0.0419
  18 C13      -1.1631    -0.9556    -0.3043  C.3     1  <O>11      -0.0523
  19 C14      -2.2325     0.1369    -0.2917  C.3     1  <O>11      -0.0523
  20 C15      -2.7479     0.1830     1.1369  C.3     1  <O>11      -0.0419
  21 C16      -0.0770     3.2021     2.9241  C.3     1  <O>11       0.0230
  22 C17       2.6639     4.6834     3.3579  C.ar    1  <O>11      -0.0356
  23 C18       3.8024     3.9729     3.7374  C.ar    1  <O>11       0.0302
  24 N5        4.1374     3.8086     5.0266  N.ar    1  <O>11      -0.2407
  25 H1        4.5551     3.6243     7.5678  H       1  <O>11       0.1437
  26 H2        3.1373     4.5403     8.0894  H       1  <O>11       0.1437
  27 H3       -0.9502     8.4649     3.3879  H       1  <O>11       0.1882
  28 H4       -0.3082     3.7015     4.9830  H       1  <O>11       0.0380
  29 H5       -2.6561     3.8742     4.9078  H       1  <O>11       0.0287
  30 H6       -2.6630     4.2980     3.1797  H       1  <O>11       0.0287
  31 H7       -2.1327     1.6084     4.4857  H       1  <O>11       0.0465
  32 H8       -3.0462     1.9673     3.0010  H       1  <O>11       0.0465
  33 H9       -1.8073    -0.5268     2.9141  H       1  <O>11       0.0394
  34 H10       0.2032    -1.3063     1.3453  H       1  <O>11       0.0272
  35 H11      -1.3007    -2.2566     1.4255  H       1  <O>11       0.0272
  36 H12      -0.2585    -0.5917    -0.7948  H       1  <O>11       0.0265
  37 H13      -1.5321    -1.8374    -0.8277  H       1  <O>11       0.0265
  38 H14      -1.7983     1.0975    -0.5714  H       1  <O>11       0.0265
  39 H15      -3.0387    -0.1120    -0.9798  H       1  <O>11       0.0265
  40 H16      -3.0993     1.1789     1.4015  H       1  <O>11       0.0272
  41 H17      -3.5502    -0.5374     1.2936  H       1  <O>11       0.0272
  42 H18       0.9331     2.8967     3.2002  H       1  <O>11       0.0471
  43 H19      -0.0434     3.7691     1.9955  H       1  <O>11       0.0471
  44 H20       1.5999     5.4547     6.4321  H       1  <O>11       0.0658
  45 H21       1.5632     7.9376     3.7613  H       1  <O>11       0.0830
  46 H22       2.4268     4.7886     2.3590  H       1  <O>11       0.0639
  47 H23       4.4041     3.5620     3.0065  H       1  <O>11       0.0830
@<TRIPOS>BOND
     1     1     2    1
     2     2     3   ar
     3     3     4   ar
     4     4     5    1
     5     5     6   ar
     6     6     7   ar
     7     7     8   ar
     8     8     9   ar
     9     5     9   ar
    10     9    10    1
    11    10    11    1
    12    11    12    1
    13    12    13    1
    14    13    14   am
    15    14    15    2
    16    14    16    1
    17    16    17    1
    18    17    18    1
    19    18    19    1
    20    19    20    1
    21    16    20    1
    22    13    21    1
    23    10    21    1
    24     4    22   ar
    25    22    23   ar
    26    23    24   ar
    27     2    24   ar
    28     1    25    1
    29     1    26    1
    30     7    27    1
    31    10    28    1
    32    11    29    1
    33    11    30    1
    34    12    31    1
    35    12    32    1
    36    16    33    1
    37    17    34    1
    38    17    35    1
    39    18    36    1
    40    18    37    1
    41    19    38    1
    42    19    39    1
    43    20    40    1
    44    20    41    1
    45    21    42    1
    46    21    43    1
    47     3    44    1
    48     6    45    1
    49    22    46    1
    50    23    47    1
@<TRIPOS>MOLECULE
mol6_3_11
 47 50 0 0 0
SMALL
USER_CHARGES
****
VDW energy = -64.02
@<TRIPOS>ATOM
   1 N1        3.7120     4.1520     7.3415  N.pl3   1  <O>11      -0.3431
   2 C1        3.3329     4.3488     5.9653  C.ar    1  <O>11       0.1167
   3 C2        2.1864     5.0670     5.6766  C.ar    1  <O>11      -0.0143
   4 C3        1.8446     5.2530     4.3395  C.ar    1  <O>11      -0.0100
   5 C4        0.7410     5.9700     3.9760  C.ar    1  <O>11       0.0230
   6 C5       -0.2647     5.4544     3.2693  C.ar    1  <O>11       0.0303
   7 N2       -1.0679     6.5760     3.0983  N.ar    1  <O>11      -0.2839
   8 N3       -0.6144     7.6576     3.8048  N.ar    1  <O>11      -0.1779
   9 C6        0.5638     7.2635     4.2978  C.ar    1  <O>11       0.0751
  10 C7        1.5542     8.0123     5.0573  C.3     1  <O>11       0.0208
  11 C8        2.5306     8.6602     4.1358  C.3     1  <O>11      -0.0274
  12 C9        3.0492     9.8012     4.9977  C.3     1  <O>11       0.0153
  13 N4        1.9285    10.1476     5.8547  N.am    1  <O>11      -0.3006
  14 C10       1.7791    11.2578     6.6252  C.2     1  <O>11       0.2187
  15 O1        0.7678    11.4047     7.2949  O.2     1  <O>11      -0.2753
  16 C11       2.8504    12.2975     6.6517  C.3     1  <O>11       0.0358
  17 C12       3.8360    11.9953     7.7330  C.3     1  <O>11      -0.0419
  18 C13       3.2218    12.6317     8.9771  C.3     1  <O>11      -0.0523
  19 C14       2.0852    13.5291     8.4870  C.3     1  <O>11      -0.0523
  20 C15       2.2688    13.6303     6.9822  C.3     1  <O>11      -0.0419
  21 C16       0.8985     9.1196     5.8116  C.3     1  <O>11       0.0230
  22 C17       2.6639     4.6834     3.3579  C.ar    1  <O>11      -0.0356
  23 C18       3.8024     3.9729     3.7374  C.ar    1  <O>11       0.0302
  24 N5        4.1374     3.8086     5.0266  N.ar    1  <O>11      -0.2407
  25 H1        4.5551     3.6243     7.5678  H       1  <O>11       0.1437
  26 H2        3.1373     4.5403     8.0894  H       1  <O>11       0.1437
  27 H3       -1.8908     6.5737     2.5133  H       1  <O>11       0.1882
  28 H4        2.0683     7.3395     5.7425  H       1  <O>11       0.0380
  29 H5        3.3310     7.9761     3.8587  H       1  <O>11       0.0287
  30 H6        2.0419     9.0322     3.2350  H       1  <O>11       0.0287
  31 H7        3.9033     9.4768     5.5927  H       1  <O>11       0.0465
  32 H8        3.3385    10.6506     4.3799  H       1  <O>11       0.0465
  33 H9        3.3493    12.3294     5.6832  H       1  <O>11       0.0394
  34 H10       3.9533    10.9182     7.8637  H       1  <O>11       0.0272
  35 H11       4.8060    12.4406     7.5082  H       1  <O>11       0.0272
  36 H12       2.8318    11.8588     9.6418  H       1  <O>11       0.0265
  37 H13       3.9681    13.2246     9.5056  H       1  <O>11       0.0265
  38 H14       1.1188    13.0823     8.7238  H       1  <O>11       0.0265
  39 H15       2.1529    14.5139     8.9464  H       1  <O>11       0.0265
  40 H16       1.3181    13.7837     6.4743  H       1  <O>11       0.0272
  41 H17       2.9539    14.4355     6.7185  H       1  <O>11       0.0272
  42 H18       0.6243     8.7980     6.8171  H       1  <O>11       0.0471
  43 H19       0.0117     9.4765     5.2906  H       1  <O>11       0.0471
  44 H20       1.5999     5.4547     6.4321  H       1  <O>11       0.0658
  45 H21      -0.4079     4.4871     2.9393  H       1  <O>11       0.0830
  46 H22       2.4268     4.7886     2.3590  H       1  <O>11       0.0639
  47 H23       4.4041     3.5620     3.0065  H       1  <O>11       0.0830
@<TRIPOS>BOND
     1     1     2    1
     2     2     3   ar
     3     3     4   ar
     4     4     5    1
     5     5     6   ar
     6     6     7   ar
     7     7     8   ar
     8     8     9   ar
     9     5     9   ar
    10     9    10    1
    11    10    11    1
    12    11    12    1
    13    12    13    1
    14    13    14   am
    15    14    15    2
    16    14    16    1
    17    16    17    1
    18    17    18    1
    19    18    19    1
    20    19    20    1
    21    16    20    1
    22    13    21    1
    23    10    21    1
    24     4    22   ar
    25    22    23   ar
    26    23    24   ar
    27     2    24   ar
    28     1    25    1
    29     1    26    1
    30     7    27    1
    31    10    28    1
    32    11    29    1
    33    11    30    1
    34    12    31    1
    35    12    32    1
    36    16    33    1
    37    17    34    1
    38    17    35    1
    39    18    36    1
    40    18    37    1
    41    19    38    1
    42    19    39    1
    43    20    40    1
    44    20    41    1
    45    21    42    1
    46    21    43    1
    47     3    44    1
    48     6    45    1
    49    22    46    1
    50    23    47    1
@<TRIPOS>MOLECULE
mol6_3_12
 47 50 0 0 0
SMALL
USER_CHARGES
****
VDW energy = -63.75
@<TRIPOS>ATOM
   1 N1        3.7120     4.1520     7.3415  N.pl3   1  <O>11      -0.3431
   2 C1        3.3329     4.3488     5.9653  C.ar    1  <O>11       0.1167
   3 C2        2.1864     5.0670     5.6766  C.ar    1  <O>11      -0.0143
   4 C3        1.8446     5.2530     4.3395  C.ar    1  <O>11      -0.0100
   5 C4        0.7410     5.9700     3.9760  C.ar    1  <O>11       0.0230
   6 C5        0.7987     7.0659     3.2194  C.ar    1  <O>11       0.0303
   7 N2       -0.5370     7.4508     3.2121  N.ar    1  <O>11      -0.2839
   8 N3       -1.3506     6.5305     3.8169  N.ar    1  <O>11      -0.1779
   9 C6       -0.5083     5.6375     4.3457  C.ar    1  <O>11       0.0751
  10 C7       -0.7826     4.4797     5.1840  C.3     1  <O>11       0.0208
  11 C8       -2.2165     4.4647     5.5916  C.3     1  <O>11      -0.0274
  12 C9       -2.4287     2.9900     5.8983  C.3     1  <O>11       0.0153
  13 N4       -1.5188     2.2979     5.0018  N.am    1  <O>11      -0.3006
  14 C10      -1.4973     0.9739     4.6935  C.2     1  <O>11       0.2187
  15 O1       -0.6618     0.5421     3.9136  O.2     1  <O>11      -0.2753
  16 C11      -2.4954     0.0485     5.3072  C.3     1  <O>11       0.0358
  17 C12      -1.9649    -0.5061     6.5890  C.3     1  <O>11      -0.0419
  18 C13      -1.1460    -1.7181     6.1529  C.3     1  <O>11      -0.0523
  19 C14      -1.5055    -1.9788     4.6900  C.3     1  <O>11      -0.0523
  20 C15      -2.7306    -1.1231     4.4151  C.3     1  <O>11      -0.0419
  21 C16      -0.5566     3.2206     4.4167  C.3     1  <O>11       0.0230
  22 C17       2.6639     4.6834     3.3579  C.ar    1  <O>11      -0.0356
  23 C18       3.8024     3.9729     3.7374  C.ar    1  <O>11       0.0302
  24 N5        4.1374     3.8086     5.0266  N.ar    1  <O>11      -0.2407
  25 H1        4.5551     3.6243     7.5678  H       1  <O>11       0.1437
  26 H2        3.1373     4.5403     8.0894  H       1  <O>11       0.1437
  27 H3       -0.8528     8.3174     2.8014  H       1  <O>11       0.1882
  28 H4       -0.1390     4.5091     6.0622  H       1  <O>11       0.0380
  29 H5       -2.3866     5.0821     6.4721  H       1  <O>11       0.0287
  30 H6       -2.8644     4.8000     4.7815  H       1  <O>11       0.0287
  31 H7       -2.1833     2.7740     6.9384  H       1  <O>11       0.0465
  32 H8       -3.4597     2.6994     5.7003  H       1  <O>11       0.0465
  33 H9       -3.4273     0.5853     5.4842  H       1  <O>11       0.0394
  34 H10      -1.3366     0.2255     7.0998  H       1  <O>11       0.0272
  35 H11      -2.7807    -0.8059     7.2481  H       1  <O>11       0.0272
  36 H12      -0.0796    -1.5054     6.2466  H       1  <O>11       0.0265
  37 H13      -1.3999    -2.5848     6.7629  H       1  <O>11       0.0265
  38 H14      -0.6819    -1.6859     4.0378  H       1  <O>11       0.0265
  39 H15      -1.7341    -3.0322     4.5362  H       1  <O>11       0.0265
  40 H16      -2.7790    -0.8209     3.3702  H       1  <O>11       0.0272
  41 H17      -3.6486    -1.6450     4.6837  H       1  <O>11       0.0272
  42 H18       0.4637     2.8594     4.5515  H       1  <O>11       0.0471
  43 H19      -0.7519     3.3684     3.3561  H       1  <O>11       0.0471
  44 H20       1.5999     5.4547     6.4321  H       1  <O>11       0.0658
  45 H21       1.6124     7.5077     2.7638  H       1  <O>11       0.0830
  46 H22       2.4268     4.7886     2.3590  H       1  <O>11       0.0639
  47 H23       4.4041     3.5620     3.0065  H       1  <O>11       0.0830
@<TRIPOS>BOND
     1     1     2    1
     2     2     3   ar
     3     3     4   ar
     4     4     5    1
     5     5     6   ar
     6     6     7   ar
     7     7     8   ar
     8     8     9   ar
     9     5     9   ar
    10     9    10    1
    11    10    11    1
    12    11    12    1
    13    12    13    1
    14    13    14   am
    15    14    15    2
    16    14    16    1
    17    16    17    1
    18    17    18    1
    19    18    19    1
    20    19    20    1
    21    16    20    1
    22    13    21    1
    23    10    21    1
    24     4    22   ar
    25    22    23   ar
    26    23    24   ar
    27     2    24   ar
    28     1    25    1
    29     1    26    1
    30     7    27    1
    31    10    28    1
    32    11    29    1
    33    11    30    1
    34    12    31    1
    35    12    32    1
    36    16    33    1
    37    17    34    1
    38    17    35    1
    39    18    36    1
    40    18    37    1
    41    19    38    1
    42    19    39    1
    43    20    40    1
    44    20    41    1
    45    21    42    1
    46    21    43    1
    47     3    44    1
    48     6    45    1
    49    22    46    1
    50    23    47    1
@<TRIPOS>MOLECULE
mol6_3_13
 47 50 0 0 0
SMALL
USER_CHARGES
****
VDW energy = -61.47
@<TRIPOS>ATOM
   1 N1        3.7120     4.1520     7.3415  N.pl3   1  <O>11      -0.3431
   2 C1        3.3329     4.3488     5.9653  C.ar    1  <O>11       0.1167
   3 C2        2.1864     5.0670     5.6766  C.ar    1  <O>11      -0.0143
   4 C3        1.8446     5.2530     4.3395  C.ar    1  <O>11      -0.0100
   5 C4        0.7410     5.9700     3.9760  C.ar    1  <O>11       0.0230
   6 C5        0.7987     7.0659     3.2194  C.ar    1  <O>11       0.0303
   7 N2       -0.5370     7.4508     3.2121  N.ar    1  <O>11      -0.2839
   8 N3       -1.3506     6.5305     3.8169  N.ar    1  <O>11      -0.1779
   9 C6       -0.5083     5.6375     4.3457  C.ar    1  <O>11       0.0751
  10 C7       -0.7826     4.4797     5.1840  C.3     1  <O>11       0.0208
  11 C8       -2.2165     4.4647     5.5916  C.3     1  <O>11      -0.0274
  12 C9       -2.4287     2.9900     5.8983  C.3     1  <O>11       0.0153
  13 N4       -1.5188     2.2979     5.0018  N.am    1  <O>11      -0.3006
  14 C10      -1.4973     0.9739     4.6935  C.2     1  <O>11       0.2187
  15 O1       -2.3141     0.2167     5.1956  O.2     1  <O>11      -0.2753
  16 C11      -0.4745     0.4456     3.7427  C.3     1  <O>11       0.0358
  17 C12      -0.9952     0.4982     2.3434  C.3     1  <O>11      -0.0419
  18 C13      -1.7734    -0.8063     2.1926  C.3     1  <O>11      -0.0523
  19 C14      -1.3971    -1.6751     3.3930  C.3     1  <O>11      -0.0523
  20 C15      -0.1976    -0.9918     4.0277  C.3     1  <O>11      -0.0419
  21 C16      -0.5566     3.2206     4.4167  C.3     1  <O>11       0.0230
  22 C17       2.6639     4.6834     3.3579  C.ar    1  <O>11      -0.0356
  23 C18       3.8024     3.9729     3.7374  C.ar    1  <O>11       0.0302
  24 N5        4.1374     3.8086     5.0266  N.ar    1  <O>11      -0.2407
  25 H1        4.5551     3.6243     7.5678  H       1  <O>11       0.1437
  26 H2        3.1373     4.5403     8.0894  H       1  <O>11       0.1437
  27 H3       -0.8528     8.3174     2.8014  H       1  <O>11       0.1882
  28 H4       -0.1390     4.5091     6.0622  H       1  <O>11       0.0380
  29 H5       -2.3866     5.0821     6.4721  H       1  <O>11       0.0287
  30 H6       -2.8644     4.8000     4.7815  H       1  <O>11       0.0287
  31 H7       -2.1833     2.7740     6.9384  H       1  <O>11       0.0465
  32 H8       -3.4597     2.6994     5.7003  H       1  <O>11       0.0465
  33 H9        0.4392     1.0336     3.8287  H       1  <O>11       0.0394
  34 H10      -1.6491     1.3606     2.2028  H       1  <O>11       0.0272
  35 H11      -0.1745     0.5453     1.6264  H       1  <O>11       0.0272
  36 H12      -2.8464    -0.6068     2.1935  H       1  <O>11       0.0265
  37 H13      -1.4963    -1.3063     1.2647  H       1  <O>11       0.0265
  38 H14      -2.2256    -1.7256     4.1006  H       1  <O>11       0.0265
  39 H15      -1.1350    -2.6805     3.0677  H       1  <O>11       0.0265
  40 H16      -0.1524    -1.1807     5.0990  H       1  <O>11       0.0272
  41 H17       0.7345    -1.3130     3.5638  H       1  <O>11       0.0272
  42 H18       0.4637     2.8594     4.5515  H       1  <O>11       0.0471
  43 H19      -0.7519     3.3684     3.3561  H       1  <O>11       0.0471
  44 H20       1.5999     5.4547     6.4321  H       1  <O>11       0.0658
  45 H21       1.6124     7.5077     2.7638  H       1  <O>11       0.0830
  46 H22       2.4268     4.7886     2.3590  H       1  <O>11       0.0639
  47 H23       4.4041     3.5620     3.0065  H       1  <O>11       0.0830
@<TRIPOS>BOND
     1     1     2    1
     2     2     3   ar
     3     3     4   ar
     4     4     5    1
     5     5     6   ar
     6     6     7   ar
     7     7     8   ar
     8     8     9   ar
     9     5     9   ar
    10     9    10    1
    11    10    11    1
    12    11    12    1
    13    12    13    1
    14    13    14   am
    15    14    15    2
    16    14    16    1
    17    16    17    1
    18    17    18    1
    19    18    19    1
    20    19    20    1
    21    16    20    1
    22    13    21    1
    23    10    21    1
    24     4    22   ar
    25    22    23   ar
    26    23    24   ar
    27     2    24   ar
    28     1    25    1
    29     1    26    1
    30     7    27    1
    31    10    28    1
    32    11    29    1
    33    11    30    1
    34    12    31    1
    35    12    32    1
    36    16    33    1
    37    17    34    1
    38    17    35    1
    39    18    36    1
    40    18    37    1
    41    19    38    1
    42    19    39    1
    43    20    40    1
    44    20    41    1
    45    21    42    1
    46    21    43    1
    47     3    44    1
    48     6    45    1
    49    22    46    1
    50    23    47    1
@<TRIPOS>MOLECULE
mol6_3_14
 47 50 0 0 0
SMALL
USER_CHARGES
****
VDW energy = -61.08
@<TRIPOS>ATOM
   1 N1        3.7120     4.1520     7.3415  N.pl3   1  <O>11      -0.3431
   2 C1        3.3329     4.3488     5.9653  C.ar    1  <O>11       0.1167
   3 C2        2.1864     5.0670     5.6766  C.ar    1  <O>11      -0.0143
   4 C3        1.8446     5.2530     4.3395  C.ar    1  <O>11      -0.0100
   5 C4        0.7410     5.9700     3.9760  C.ar    1  <O>11       0.0230
   6 C5        0.7987     7.0659     3.2194  C.ar    1  <O>11       0.0303
   7 N2       -0.5370     7.4508     3.2121  N.ar    1  <O>11      -0.2839
   8 N3       -1.3506     6.5305     3.8169  N.ar    1  <O>11      -0.1779
   9 C6       -0.5083     5.6375     4.3457  C.ar    1  <O>11       0.0751
  10 C7       -0.7826     4.4797     5.1840  C.3     1  <O>11       0.0208
  11 C8       -2.2165     4.4647     5.5916  C.3     1  <O>11      -0.0274
  12 C9       -2.4287     2.9900     5.8983  C.3     1  <O>11       0.0153
  13 N4       -1.5188     2.2979     5.0018  N.am    1  <O>11      -0.3006
  14 C10      -1.4973     0.9739     4.6935  C.2     1  <O>11       0.2187
  15 O1       -0.6618     0.5421     3.9136  O.2     1  <O>11      -0.2753
  16 C11      -2.4954     0.0485     5.3072  C.3     1  <O>11       0.0358
  17 C12      -2.1719    -1.3667     4.9544  C.3     1  <O>11      -0.0419
  18 C13      -2.8500    -1.5715     3.6022  C.3     1  <O>11      -0.0523
  19 C14      -3.7828    -0.3771     3.4013  C.3     1  <O>11      -0.0523
  20 C15      -3.8544     0.3131     4.7530  C.3     1  <O>11      -0.0419
  21 C16      -0.5566     3.2206     4.4167  C.3     1  <O>11       0.0230
  22 C17       2.6639     4.6834     3.3579  C.ar    1  <O>11      -0.0356
  23 C18       3.8024     3.9729     3.7374  C.ar    1  <O>11       0.0302
  24 N5        4.1374     3.8086     5.0266  N.ar    1  <O>11      -0.2407
  25 H1        4.5551     3.6243     7.5678  H       1  <O>11       0.1437
  26 H2        3.1373     4.5403     8.0894  H       1  <O>11       0.1437
  27 H3       -0.8528     8.3174     2.8014  H       1  <O>11       0.1882
  28 H4       -0.1390     4.5091     6.0622  H       1  <O>11       0.0380
  29 H5       -2.3866     5.0821     6.4721  H       1  <O>11       0.0287
  30 H6       -2.8644     4.8000     4.7815  H       1  <O>11       0.0287
  31 H7       -2.1833     2.7740     6.9384  H       1  <O>11       0.0465
  32 H8       -3.4597     2.6994     5.7003  H       1  <O>11       0.0465
  33 H9       -2.4938     0.1785     6.3893  H       1  <O>11       0.0394
  34 H10      -1.0932    -1.5120     4.8755  H       1  <O>11       0.0272
  35 H11      -2.5763    -2.0535     5.6991  H       1  <O>11       0.0272
  36 H12      -2.1027    -1.6039     2.8074  H       1  <O>11       0.0265
  37 H13      -3.4216    -2.4994     3.6032  H       1  <O>11       0.0265
  38 H14      -3.3770     0.3000     2.6487  H       1  <O>11       0.0265
  39 H15      -4.7711    -0.7138     3.0925  H       1  <O>11       0.0265
  40 H16      -4.0365     1.3811     4.6457  H       1  <O>11       0.0272
  41 H17      -4.6287    -0.1246     5.3824  H       1  <O>11       0.0272
  42 H18       0.4637     2.8594     4.5515  H       1  <O>11       0.0471
  43 H19      -0.7519     3.3684     3.3561  H       1  <O>11       0.0471
  44 H20       1.5999     5.4547     6.4321  H       1  <O>11       0.0658
  45 H21       1.6124     7.5077     2.7638  H       1  <O>11       0.0830
  46 H22       2.4268     4.7886     2.3590  H       1  <O>11       0.0639
  47 H23       4.4041     3.5620     3.0065  H       1  <O>11       0.0830
@<TRIPOS>BOND
     1     1     2    1
     2     2     3   ar
     3     3     4   ar
     4     4     5    1
     5     5     6   ar
     6     6     7   ar
     7     7     8   ar
     8     8     9   ar
     9     5     9   ar
    10     9    10    1
    11    10    11    1
    12    11    12    1
    13    12    13    1
    14    13    14   am
    15    14    15    2
    16    14    16    1
    17    16    17    1
    18    17    18    1
    19    18    19    1
    20    19    20    1
    21    16    20    1
    22    13    21    1
    23    10    21    1
    24     4    22   ar
    25    22    23   ar
    26    23    24   ar
    27     2    24   ar
    28     1    25    1
    29     1    26    1
    30     7    27    1
    31    10    28    1
    32    11    29    1
    33    11    30    1
    34    12    31    1
    35    12    32    1
    36    16    33    1
    37    17    34    1
    38    17    35    1
    39    18    36    1
    40    18    37    1
    41    19    38    1
    42    19    39    1
    43    20    40    1
    44    20    41    1
    45    21    42    1
    46    21    43    1
    47     3    44    1
    48     6    45    1
    49    22    46    1
    50    23    47    1
@<TRIPOS>MOLECULE
mol6_3_15
 47 50 0 0 0
SMALL
USER_CHARGES
****
VDW energy = -60.91
@<TRIPOS>ATOM
   1 N1        3.7120     4.1520     7.3415  N.pl3   1  <O>11      -0.3431
   2 C1        3.3329     4.3488     5.9653  C.ar    1  <O>11       0.1167
   3 C2        2.1864     5.0670     5.6766  C.ar    1  <O>11      -0.0143
   4 C3        1.8446     5.2530     4.3395  C.ar    1  <O>11      -0.0100
   5 C4        0.7410     5.9700     3.9760  C.ar    1  <O>11       0.0230
   6 C5       -0.2647     5.4544     3.2693  C.ar    1  <O>11       0.0303
   7 N2       -1.0679     6.5760     3.0983  N.ar    1  <O>11      -0.2839
   8 N3       -0.6144     7.6576     3.8048  N.ar    1  <O>11      -0.1779
   9 C6        0.5638     7.2635     4.2978  C.ar    1  <O>11       0.0751
  10 C7        1.5542     8.0123     5.0573  C.3     1  <O>11       0.0208
  11 C8        2.5306     8.6602     4.1358  C.3     1  <O>11      -0.0274
  12 C9        3.0492     9.8012     4.9977  C.3     1  <O>11       0.0153
  13 N4        1.9285    10.1476     5.8547  N.am    1  <O>11      -0.3006
  14 C10       1.7791    11.2578     6.6252  C.2     1  <O>11       0.2187
  15 O1        2.6557    12.1086     6.6468  O.2     1  <O>11      -0.2753
  16 C11       0.5446    11.4360     7.4458  C.3     1  <O>11       0.0358
  17 C12      -0.4989    12.1585     6.6577  C.3     1  <O>11      -0.0419
  18 C13      -0.1694    13.6325     6.8778  C.3     1  <O>11      -0.0523
  19 C14       0.8409    13.6830     8.0241  C.3     1  <O>11      -0.0523
  20 C15       0.8324    12.2911     8.6333  C.3     1  <O>11      -0.0419
  21 C16       0.8985     9.1196     5.8116  C.3     1  <O>11       0.0230
  22 C17       2.6639     4.6834     3.3579  C.ar    1  <O>11      -0.0356
  23 C18       3.8024     3.9729     3.7374  C.ar    1  <O>11       0.0302
  24 N5        4.1374     3.8086     5.0266  N.ar    1  <O>11      -0.2407
  25 H1        4.5551     3.6243     7.5678  H       1  <O>11       0.1437
  26 H2        3.1373     4.5403     8.0894  H       1  <O>11       0.1437
  27 H3       -1.8908     6.5737     2.5133  H       1  <O>11       0.1882
  28 H4        2.0683     7.3395     5.7425  H       1  <O>11       0.0380
  29 H5        3.3310     7.9761     3.8587  H       1  <O>11       0.0287
  30 H6        2.0419     9.0322     3.2350  H       1  <O>11       0.0287
  31 H7        3.9033     9.4768     5.5927  H       1  <O>11       0.0465
  32 H8        3.3385    10.6506     4.3799  H       1  <O>11       0.0465
  33 H9        0.1735    10.4606     7.7601  H       1  <O>11       0.0394
  34 H10      -0.4373    11.8991     5.5994  H       1  <O>11       0.0272
  35 H11      -1.4969    11.9242     7.0304  H       1  <O>11       0.0272
  36 H12       0.2659    14.0602     5.9729  H       1  <O>11       0.0265
  37 H13      -1.0700    14.1849     7.1454  H       1  <O>11       0.0265
  38 H14       1.8341    13.9271     7.6454  H       1  <O>11       0.0265
  39 H15       0.5411    14.4242     8.7632  H       1  <O>11       0.0265
  40 H16       1.7965    12.0434     9.0743  H       1  <O>11       0.0272
  41 H17       0.0530    12.1922     9.3883  H       1  <O>11       0.0272
  42 H18       0.6243     8.7980     6.8171  H       1  <O>11       0.0471
  43 H19       0.0117     9.4765     5.2906  H       1  <O>11       0.0471
  44 H20       1.5999     5.4547     6.4321  H       1  <O>11       0.0658
  45 H21      -0.4079     4.4871     2.9393  H       1  <O>11       0.0830
  46 H22       2.4268     4.7886     2.3590  H       1  <O>11       0.0639
  47 H23       4.4041     3.5620     3.0065  H       1  <O>11       0.0830
@<TRIPOS>BOND
     1     1     2    1
     2     2     3   ar
     3     3     4   ar
     4     4     5    1
     5     5     6   ar
     6     6     7   ar
     7     7     8   ar
     8     8     9   ar
     9     5     9   ar
    10     9    10    1
    11    10    11    1
    12    11    12    1
    13    12    13    1
    14    13    14   am
    15    14    15    2
    16    14    16    1
    17    16    17    1
    18    17    18    1
    19    18    19    1
    20    19    20    1
    21    16    20    1
    22    13    21    1
    23    10    21    1
    24     4    22   ar
    25    22    23   ar
    26    23    24   ar
    27     2    24   ar
    28     1    25    1
    29     1    26    1
    30     7    27    1
    31    10    28    1
    32    11    29    1
    33    11    30    1
    34    12    31    1
    35    12    32    1
    36    16    33    1
    37    17    34    1
    38    17    35    1
    39    18    36    1
    40    18    37    1
    41    19    38    1
    42    19    39    1
    43    20    40    1
    44    20    41    1
    45    21    42    1
    46    21    43    1
    47     3    44    1
    48     6    45    1
    49    22    46    1
    50    23    47    1
@<TRIPOS>MOLECULE
mol6_3_16
 47 50 0 0 0
SMALL
USER_CHARGES
****
VDW energy = -59.25
@<TRIPOS>ATOM
   1 N1        3.7120     4.1520     7.3415  N.pl3   1  <O>11      -0.3431
   2 C1        3.3329     4.3488     5.9653  C.ar    1  <O>11       0.1167
   3 C2        2.1864     5.0670     5.6766  C.ar    1  <O>11      -0.0143
   4 C3        1.8446     5.2530     4.3395  C.ar    1  <O>11      -0.0100
   5 C4        0.7410     5.9700     3.9760  C.ar    1  <O>11       0.0230
   6 C5        0.7647     7.2839     3.7528  C.ar    1  <O>11       0.0303
   7 N2       -0.5804     7.5327     3.5055  N.ar    1  <O>11      -0.2839
   8 N3       -1.3228     6.3839     3.4432  N.ar    1  <O>11      -0.1779
   9 C6       -0.4735     5.4182     3.8075  C.ar    1  <O>11       0.0751
  10 C7       -0.7111     3.9973     4.0153  C.3     1  <O>11       0.0208
  11 C8       -1.0938     3.7391     5.4327  C.3     1  <O>11      -0.0274
  12 C9       -1.8465     2.4232     5.3081  C.3     1  <O>11       0.0153
  13 N4       -2.4437     2.4700     3.9846  N.am    1  <O>11      -0.3006
  14 C10      -3.4164     1.6659     3.4791  C.2     1  <O>11       0.2187
  15 O1       -3.8164     1.8353     2.3371  O.2     1  <O>11      -0.2753
  16 C11      -3.9963     0.5770     4.3201  C.3     1  <O>11       0.0358
  17 C12      -5.0407    -0.1667     3.5530  C.3     1  <O>11      -0.0419
  18 C13      -6.3109     0.6495     3.7773  C.3     1  <O>11      -0.0523
  19 C14      -6.0002     1.6305     4.9078  C.3     1  <O>11      -0.0523
  20 C15      -4.6882     1.1546     5.5082  C.3     1  <O>11      -0.0419
  21 C16      -1.8623     3.5387     3.1849  C.3     1  <O>11       0.0230
  22 C17       2.6639     4.6834     3.3579  C.ar    1  <O>11      -0.0356
  23 C18       3.8024     3.9729     3.7374  C.ar    1  <O>11       0.0302
  24 N5        4.1374     3.8086     5.0266  N.ar    1  <O>11      -0.2407
  25 H1        4.5551     3.6243     7.5678  H       1  <O>11       0.1437
  26 H2        3.1373     4.5403     8.0894  H       1  <O>11       0.1437
  27 H3       -0.9502     8.4649     3.3879  H       1  <O>11       0.1882
  28 H4        0.1882     3.4393     3.7576  H       1  <O>11       0.0380
  29 H5       -0.2167     3.6363     6.0696  H       1  <O>11       0.0287
  30 H6       -1.7357     4.5294     5.8224  H       1  <O>11       0.0287
  31 H7       -1.1620     1.5787     5.3923  H       1  <O>11       0.0465
  32 H8       -2.6160     2.3449     6.0752  H       1  <O>11       0.0465
  33 H9       -3.2029    -0.1011     4.6339  H       1  <O>11       0.0394
  34 H10      -4.7878    -0.2107     2.4923  H       1  <O>11       0.0272
  35 H11      -5.1572    -1.1798     3.9398  H       1  <O>11       0.0272
  36 H12      -6.5743     1.1933     2.8683  H       1  <O>11       0.0265
  37 H13      -7.1347    -0.0046     4.0624  H       1  <O>11       0.0265
  38 H14      -5.8947     2.6425     4.5151  H       1  <O>11       0.0265
  39 H15      -6.7909     1.6115     5.6562  H       1  <O>11       0.0265
  40 H16      -4.1211     1.9815     5.9325  H       1  <O>11       0.0272
  41 H17      -4.8529     0.3979     6.2747  H       1  <O>11       0.0272
  42 H18      -1.5218     3.1637     2.2190  H       1  <O>11       0.0471
  43 H19      -2.5780     4.3441     3.0294  H       1  <O>11       0.0471
  44 H20       1.5999     5.4547     6.4321  H       1  <O>11       0.0658
  45 H21       1.5632     7.9376     3.7613  H       1  <O>11       0.0830
  46 H22       2.4268     4.7886     2.3590  H       1  <O>11       0.0639
  47 H23       4.4041     3.5620     3.0065  H       1  <O>11       0.0830
@<TRIPOS>BOND
     1     1     2    1
     2     2     3   ar
     3     3     4   ar
     4     4     5    1
     5     5     6   ar
     6     6     7   ar
     7     7     8   ar
     8     8     9   ar
     9     5     9   ar
    10     9    10    1
    11    10    11    1
    12    11    12    1
    13    12    13    1
    14    13    14   am
    15    14    15    2
    16    14    16    1
    17    16    17    1
    18    17    18    1
    19    18    19    1
    20    19    20    1
    21    16    20    1
    22    13    21    1
    23    10    21    1
    24     4    22   ar
    25    22    23   ar
    26    23    24   ar
    27     2    24   ar
    28     1    25    1
    29     1    26    1
    30     7    27    1
    31    10    28    1
    32    11    29    1
    33    11    30    1
    34    12    31    1
    35    12    32    1
    36    16    33    1
    37    17    34    1
    38    17    35    1
    39    18    36    1
    40    18    37    1
    41    19    38    1
    42    19    39    1
    43    20    40    1
    44    20    41    1
    45    21    42    1
    46    21    43    1
    47     3    44    1
    48     6    45    1
    49    22    46    1
    50    23    47    1
@<TRIPOS>MOLECULE
mol6_3_17
 47 50 0 0 0
SMALL
USER_CHARGES
****
VDW energy = -59.24
@<TRIPOS>ATOM
   1 N1        3.7120     4.1520     7.3415  N.pl3   1  <O>11      -0.3431
   2 C1        3.3329     4.3488     5.9653  C.ar    1  <O>11       0.1167
   3 C2        2.1864     5.0670     5.6766  C.ar    1  <O>11      -0.0143
   4 C3        1.8446     5.2530     4.3395  C.ar    1  <O>11      -0.0100
   5 C4        0.7410     5.9700     3.9760  C.ar    1  <O>11       0.0230
   6 C5       -0.4632     5.4231     3.8104  C.ar    1  <O>11       0.0303
   7 N2       -1.1934     6.5226     3.3741  N.ar    1  <O>11      -0.2839
   8 N3       -0.4726     7.6854     3.4293  N.ar    1  <O>11      -0.1779
   9 C6        0.7644     7.2957     3.7522  C.ar    1  <O>11       0.0751
  10 C7        1.9873     8.0764     3.8689  C.3     1  <O>11       0.0208
  11 C8        2.6992     8.1208     2.5599  C.3     1  <O>11      -0.0274
  12 C9        3.5319     9.3848     2.7108  C.3     1  <O>11       0.0153
  13 N4        2.7393    10.2408     3.5766  N.am    1  <O>11      -0.3006
  14 C10       2.9061    11.5685     3.8167  C.2     1  <O>11       0.2187
  15 O1        2.1481    12.1515     4.5772  O.2     1  <O>11      -0.2753
  16 C11       4.0145    12.3140     3.1498  C.3     1  <O>11       0.0358
  17 C12       3.9954    13.7486     3.5666  C.3     1  <O>11      -0.0419
  18 C13       3.0095    14.3982     2.5992  C.3     1  <O>11      -0.0523
  19 C14       2.7586    13.3784     1.4883  C.3     1  <O>11      -0.0523
  20 C15       3.8234    12.3101     1.6708  C.3     1  <O>11      -0.0419
  21 C16       1.6662     9.4916     4.2144  C.3     1  <O>11       0.0230
  22 C17       2.6639     4.6834     3.3579  C.ar    1  <O>11      -0.0356
  23 C18       3.8024     3.9729     3.7374  C.ar    1  <O>11       0.0302
  24 N5        4.1374     3.8086     5.0266  N.ar    1  <O>11      -0.2407
  25 H1        4.5551     3.6243     7.5678  H       1  <O>11       0.1437
  26 H2        3.1373     4.5403     8.0894  H       1  <O>11       0.1437
  27 H3       -2.1488     6.4514     3.0553  H       1  <O>11       0.1882
  28 H4        2.6258     7.6353     4.6332  H       1  <O>11       0.0380
  29 H5        3.3295     7.2442     2.4195  H       1  <O>11       0.0287
  30 H6        1.9991     8.2023     1.7283  H       1  <O>11       0.0287
  31 H7        4.4949     9.1588     3.1693  H       1  <O>11       0.0465
  32 H8        3.6924     9.8586     1.7432  H       1  <O>11       0.0465
  33 H9        4.9686    11.8567     3.4115  H       1  <O>11       0.0394
  34 H10       3.6539    13.8503     4.5981  H       1  <O>11       0.0272
  35 H11       4.9864    14.1937     3.4677  H       1  <O>11       0.0272
  36 H12       2.0759    14.6322     3.1139  H       1  <O>11       0.0265
  37 H13       3.4350    15.3111     2.1829  H       1  <O>11       0.0265
  38 H14       1.7628    12.9448     1.5878  H       1  <O>11       0.0265
  39 H15       2.8543    13.8489     0.5111  H       1  <O>11       0.0265
  40 H16       3.4779    11.3392     1.3195  H       1  <O>11       0.0272
  41 H17       4.7452    12.5750     1.1537  H       1  <O>11       0.0272
  42 H18       1.6733     9.6408     5.2948  H       1  <O>11       0.0471
  43 H19       0.6960     9.7815     3.8146  H       1  <O>11       0.0471
  44 H20       1.5999     5.4547     6.4321  H       1  <O>11       0.0658
  45 H21      -0.7697     4.4497     3.9640  H       1  <O>11       0.0830
  46 H22       2.4268     4.7886     2.3590  H       1  <O>11       0.0639
  47 H23       4.4041     3.5620     3.0065  H       1  <O>11       0.0830
@<TRIPOS>BOND
     1     1     2    1
     2     2     3   ar
     3     3     4   ar
     4     4     5    1
     5     5     6   ar
     6     6     7   ar
     7     7     8   ar
     8     8     9   ar
     9     5     9   ar
    10     9    10    1
    11    10    11    1
    12    11    12    1
    13    12    13    1
    14    13    14   am
    15    14    15    2
    16    14    16    1
    17    16    17    1
    18    17    18    1
    19    18    19    1
    20    19    20    1
    21    16    20    1
    22    13    21    1
    23    10    21    1
    24     4    22   ar
    25    22    23   ar
    26    23    24   ar
    27     2    24   ar
    28     1    25    1
    29     1    26    1
    30     7    27    1
    31    10    28    1
    32    11    29    1
    33    11    30    1
    34    12    31    1
    35    12    32    1
    36    16    33    1
    37    17    34    1
    38    17    35    1
    39    18    36    1
    40    18    37    1
    41    19    38    1
    42    19    39    1
    43    20    40    1
    44    20    41    1
    45    21    42    1
    46    21    43    1
    47     3    44    1
    48     6    45    1
    49    22    46    1
    50    23    47    1
@<TRIPOS>MOLECULE
mol6_3_18
 47 50 0 0 0
SMALL
USER_CHARGES
****
VDW energy = -58.87
@<TRIPOS>ATOM
   1 N1        3.7120     4.1520     7.3415  N.pl3   1  <O>11      -0.3431
   2 C1        3.3329     4.3488     5.9653  C.ar    1  <O>11       0.1167
   3 C2        2.1864     5.0670     5.6766  C.ar    1  <O>11      -0.0143
   4 C3        1.8446     5.2530     4.3395  C.ar    1  <O>11      -0.0100
   5 C4        0.7410     5.9700     3.9760  C.ar    1  <O>11       0.0230
   6 C5       -0.4632     5.4231     3.8104  C.ar    1  <O>11       0.0303
   7 N2       -1.1934     6.5226     3.3741  N.ar    1  <O>11      -0.2839
   8 N3       -0.4726     7.6854     3.4293  N.ar    1  <O>11      -0.1779
   9 C6        0.7644     7.2957     3.7522  C.ar    1  <O>11       0.0751
  10 C7        1.9873     8.0764     3.8689  C.3     1  <O>11       0.0208
  11 C8        1.7615     9.4666     3.3806  C.3     1  <O>11      -0.0274
  12 C9        2.8620    10.2251     4.1068  C.3     1  <O>11       0.0153
  13 N4        3.0440     9.4982     5.3513  N.am    1  <O>11      -0.3006
  14 C10       3.7193     9.8993     6.4610  C.2     1  <O>11       0.2187
  15 O1        4.2633    10.9931     6.4826  O.2     1  <O>11      -0.2753
  16 C11       3.7971     9.0026     7.6522  C.3     1  <O>11       0.0358
  17 C12       4.4381     9.7186     8.7960  C.3     1  <O>11      -0.0419
  18 C13       5.9327     9.5069     8.5698  C.3     1  <O>11      -0.0523
  19 C14       6.0584     8.4249     7.4971  C.3     1  <O>11      -0.0523
  20 C15       4.6680     7.8280     7.3588  C.3     1  <O>11      -0.0419
  21 C16       2.3872     8.1998     5.3007  C.3     1  <O>11       0.0230
  22 C17       2.6639     4.6834     3.3579  C.ar    1  <O>11      -0.0356
  23 C18       3.8024     3.9729     3.7374  C.ar    1  <O>11       0.0302
  24 N5        4.1374     3.8086     5.0266  N.ar    1  <O>11      -0.2407
  25 H1        4.5551     3.6243     7.5678  H       1  <O>11       0.1437
  26 H2        3.1373     4.5403     8.0894  H       1  <O>11       0.1437
  27 H3       -2.1488     6.4514     3.0553  H       1  <O>11       0.1882
  28 H4        2.7785     7.5964     3.2945  H       1  <O>11       0.0380
  29 H5        1.8793     9.5333     2.3002  H       1  <O>11       0.0287
  30 H6        0.7737     9.8323     3.6619  H       1  <O>11       0.0287
  31 H7        3.7818    10.2231     3.5213  H       1  <O>11       0.0465
  32 H8        2.5580    11.2528     4.3020  H       1  <O>11       0.0465
  33 H9        2.7945     8.6741     7.9255  H       1  <O>11       0.0394
  34 H10       4.1881    10.7808     8.7804  H       1  <O>11       0.0272
  35 H11       4.1248     9.2869     9.7475  H       1  <O>11       0.0272
  36 H12       6.3964    10.4334     8.2265  H       1  <O>11       0.0265
  37 H13       6.4117     9.1796     9.4924  H       1  <O>11       0.0265
  38 H14       6.3812     8.8622     6.5516  H       1  <O>11       0.0265
  39 H15       6.7712     7.6625     7.8074  H       1  <O>11       0.0265
  40 H16       4.4953     7.4495     6.3526  H       1  <O>11       0.0272
  41 H17       4.5055     7.0272     8.0795  H       1  <O>11       0.0272
  42 H18       3.0750     7.4021     5.5839  H       1  <O>11       0.0471
  43 H19       1.5165     8.1767     5.9536  H       1  <O>11       0.0471
  44 H20       1.5999     5.4547     6.4321  H       1  <O>11       0.0658
  45 H21      -0.7697     4.4497     3.9640  H       1  <O>11       0.0830
  46 H22       2.4268     4.7886     2.3590  H       1  <O>11       0.0639
  47 H23       4.4041     3.5620     3.0065  H       1  <O>11       0.0830
@<TRIPOS>BOND
     1     1     2    1
     2     2     3   ar
     3     3     4   ar
     4     4     5    1
     5     5     6   ar
     6     6     7   ar
     7     7     8   ar
     8     8     9   ar
     9     5     9   ar
    10     9    10    1
    11    10    11    1
    12    11    12    1
    13    12    13    1
    14    13    14   am
    15    14    15    2
    16    14    16    1
    17    16    17    1
    18    17    18    1
    19    18    19    1
    20    19    20    1
    21    16    20    1
    22    13    21    1
    23    10    21    1
    24     4    22   ar
    25    22    23   ar
    26    23    24   ar
    27     2    24   ar
    28     1    25    1
    29     1    26    1
    30     7    27    1
    31    10    28    1
    32    11    29    1
    33    11    30    1
    34    12    31    1
    35    12    32    1
    36    16    33    1
    37    17    34    1
    38    17    35    1
    39    18    36    1
    40    18    37    1
    41    19    38    1
    42    19    39    1
    43    20    40    1
    44    20    41    1
    45    21    42    1
    46    21    43    1
    47     3    44    1
    48     6    45    1
    49    22    46    1
    50    23    47    1
@<TRIPOS>MOLECULE
mol6_3_19
 47 50 0 0 0
SMALL
USER_CHARGES
****
VDW energy = -58.43
@<TRIPOS>ATOM
   1 N1        3.7120     4.1520     7.3415  N.pl3   1  <O>11      -0.3431
   2 C1        3.3329     4.3488     5.9653  C.ar    1  <O>11       0.1167
   3 C2        2.1864     5.0670     5.6766  C.ar    1  <O>11      -0.0143
   4 C3        1.8446     5.2530     4.3395  C.ar    1  <O>11      -0.0100
   5 C4        0.7410     5.9700     3.9760  C.ar    1  <O>11       0.0230
   6 C5        0.7647     7.2839     3.7528  C.ar    1  <O>11       0.0303
   7 N2       -0.5804     7.5327     3.5055  N.ar    1  <O>11      -0.2839
   8 N3       -1.3228     6.3839     3.4432  N.ar    1  <O>11      -0.1779
   9 C6       -0.4735     5.4182     3.8075  C.ar    1  <O>11       0.0751
  10 C7       -0.7111     3.9973     4.0153  C.3     1  <O>11       0.0208
  11 C8       -2.1708     3.7021     3.9485  C.3     1  <O>11      -0.0274
  12 C9       -2.1646     2.2246     3.5868  C.3     1  <O>11       0.0153
  13 N4       -0.9560     2.0481     2.8003  N.am    1  <O>11      -0.3006
  14 C10      -0.6119     0.9846     2.0264  C.2     1  <O>11       0.2187
  15 O1       -1.3643     0.0262     1.9361  O.2     1  <O>11      -0.2753
  16 C11       0.6860     0.9876     1.2883  C.3     1  <O>11       0.0358
  17 C12       0.7670    -0.1975     0.3822  C.3     1  <O>11      -0.0419
  18 C13       1.3077    -1.3081     1.2789  C.3     1  <O>11      -0.0523
  19 C14       1.8032    -0.6296     2.5561  C.3     1  <O>11      -0.0523
  20 C15       1.8239     0.8571     2.2434  C.3     1  <O>11      -0.0419
  21 C16      -0.0770     3.2021     2.9241  C.3     1  <O>11       0.0230
  22 C17       2.6639     4.6834     3.3579  C.ar    1  <O>11      -0.0356
  23 C18       3.8024     3.9729     3.7374  C.ar    1  <O>11       0.0302
  24 N5        4.1374     3.8086     5.0266  N.ar    1  <O>11      -0.2407
  25 H1        4.5551     3.6243     7.5678  H       1  <O>11       0.1437
  26 H2        3.1373     4.5403     8.0894  H       1  <O>11       0.1437
  27 H3       -0.9502     8.4649     3.3879  H       1  <O>11       0.1882
  28 H4       -0.3082     3.7015     4.9830  H       1  <O>11       0.0380
  29 H5       -2.6561     3.8742     4.9078  H       1  <O>11       0.0287
  30 H6       -2.6630     4.2980     3.1797  H       1  <O>11       0.0287
  31 H7       -2.1327     1.6084     4.4857  H       1  <O>11       0.0465
  32 H8       -3.0462     1.9673     3.0010  H       1  <O>11       0.0465
  33 H9        0.7750     1.9097     0.7141  H       1  <O>11       0.0394
  34 H10      -0.2182    -0.4572    -0.0089  H       1  <O>11       0.0272
  35 H11       1.4469    -0.0040    -0.4484  H       1  <O>11       0.0272
  36 H12       0.5156    -2.0213     1.5140  H       1  <O>11       0.0265
  37 H13       2.1296    -1.8259     0.7848  H       1  <O>11       0.0265
  38 H14       1.1240    -0.8354     3.3843  H       1  <O>11       0.0265
  39 H15       2.8025    -0.9796     2.8099  H       1  <O>11       0.0265
  40 H16       1.6593     1.4547     3.1384  H       1  <O>11       0.0272
  41 H17       2.7641     1.1526     1.7788  H       1  <O>11       0.0272
  42 H18       0.9331     2.8967     3.2002  H       1  <O>11       0.0471
  43 H19      -0.0434     3.7691     1.9955  H       1  <O>11       0.0471
  44 H20       1.5999     5.4547     6.4321  H       1  <O>11       0.0658
  45 H21       1.5632     7.9376     3.7613  H       1  <O>11       0.0830
  46 H22       2.4268     4.7886     2.3590  H       1  <O>11       0.0639
  47 H23       4.4041     3.5620     3.0065  H       1  <O>11       0.0830
@<TRIPOS>BOND
     1     1     2    1
     2     2     3   ar
     3     3     4   ar
     4     4     5    1
     5     5     6   ar
     6     6     7   ar
     7     7     8   ar
     8     8     9   ar
     9     5     9   ar
    10     9    10    1
    11    10    11    1
    12    11    12    1
    13    12    13    1
    14    13    14   am
    15    14    15    2
    16    14    16    1
    17    16    17    1
    18    17    18    1
    19    18    19    1
    20    19    20    1
    21    16    20    1
    22    13    21    1
    23    10    21    1
    24     4    22   ar
    25    22    23   ar
    26    23    24   ar
    27     2    24   ar
    28     1    25    1
    29     1    26    1
    30     7    27    1
    31    10    28    1
    32    11    29    1
    33    11    30    1
    34    12    31    1
    35    12    32    1
    36    16    33    1
    37    17    34    1
    38    17    35    1
    39    18    36    1
    40    18    37    1
    41    19    38    1
    42    19    39    1
    43    20    40    1
    44    20    41    1
    45    21    42    1
    46    21    43    1
    47     3    44    1
    48     6    45    1
    49    22    46    1
    50    23    47    1
@<TRIPOS>MOLECULE
mol6_3_20
 47 50 0 0 0
SMALL
USER_CHARGES
****
VDW energy = -55.38
@<TRIPOS>ATOM
   1 N1        3.7120     4.1520     7.3415  N.pl3   1  <O>11      -0.3431
   2 C1        3.3329     4.3488     5.9653  C.ar    1  <O>11       0.1167
   3 C2        2.1864     5.0670     5.6766  C.ar    1  <O>11      -0.0143
   4 C3        1.8446     5.2530     4.3395  C.ar    1  <O>11      -0.0100
   5 C4        0.7410     5.9700     3.9760  C.ar    1  <O>11       0.0230
   6 C5        0.7987     7.0659     3.2194  C.ar    1  <O>11       0.0303
   7 N2       -0.5370     7.4508     3.2121  N.ar    1  <O>11      -0.2839
   8 N3       -1.3506     6.5305     3.8169  N.ar    1  <O>11      -0.1779
   9 C6       -0.5083     5.6375     4.3457  C.ar    1  <O>11       0.0751
  10 C7       -0.7826     4.4797     5.1840  C.3     1  <O>11       0.0208
  11 C8       -2.2165     4.4647     5.5916  C.3     1  <O>11      -0.0274
  12 C9       -2.4287     2.9900     5.8983  C.3     1  <O>11       0.0153
  13 N4       -1.5188     2.2979     5.0018  N.am    1  <O>11      -0.3006
  14 C10      -1.4973     0.9739     4.6935  C.2     1  <O>11       0.2187
  15 O1       -2.3141     0.2167     5.1956  O.2     1  <O>11      -0.2753
  16 C11      -0.4745     0.4456     3.7427  C.3     1  <O>11       0.0358
  17 C12      -0.7517    -0.9891     3.4316  C.3     1  <O>11      -0.0419
  18 C13      -0.0595    -1.7491     4.5599  C.3     1  <O>11      -0.0523
  19 C14       0.8369    -0.7383     5.2755  C.3     1  <O>11      -0.0523
  20 C15       0.8789     0.4796     4.3681  C.3     1  <O>11      -0.0419
  21 C16      -0.5566     3.2206     4.4167  C.3     1  <O>11       0.0230
  22 C17       2.6639     4.6834     3.3579  C.ar    1  <O>11      -0.0356
  23 C18       3.8024     3.9729     3.7374  C.ar    1  <O>11       0.0302
  24 N5        4.1374     3.8086     5.0266  N.ar    1  <O>11      -0.2407
  25 H1        4.5551     3.6243     7.5678  H       1  <O>11       0.1437
  26 H2        3.1373     4.5403     8.0894  H       1  <O>11       0.1437
  27 H3       -0.8528     8.3174     2.8014  H       1  <O>11       0.1882
  28 H4       -0.1390     4.5091     6.0622  H       1  <O>11       0.0380
  29 H5       -2.3866     5.0821     6.4721  H       1  <O>11       0.0287
  30 H6       -2.8644     4.8000     4.7815  H       1  <O>11       0.0287
  31 H7       -2.1833     2.7740     6.9384  H       1  <O>11       0.0465
  32 H8       -3.4597     2.6994     5.7003  H       1  <O>11       0.0465
  33 H9       -0.4868     1.0400     2.8292  H       1  <O>11       0.0394
  34 H10      -1.8249    -1.1872     3.4292  H       1  <O>11       0.0272
  35 H11      -0.3307    -1.2637     2.4636  H       1  <O>11       0.0272
  36 H12      -0.8006    -2.1520     5.2525  H       1  <O>11       0.0265
  37 H13       0.5407    -2.5633     4.1542  H       1  <O>11       0.0265
  38 H14       0.4148    -0.4759     6.2463  H       1  <O>11       0.0265
  39 H15       1.8370    -1.1464     5.4120  H       1  <O>11       0.0265
  40 H16       1.0283     1.3956     4.9375  H       1  <O>11       0.0272
  41 H17       1.6626     0.3888     3.6166  H       1  <O>11       0.0272
  42 H18       0.4637     2.8594     4.5515  H       1  <O>11       0.0471
  43 H19      -0.7519     3.3684     3.3561  H       1  <O>11       0.0471
  44 H20       1.5999     5.4547     6.4321  H       1  <O>11       0.0658
  45 H21       1.6124     7.5077     2.7638  H       1  <O>11       0.0830
  46 H22       2.4268     4.7886     2.3590  H       1  <O>11       0.0639
  47 H23       4.4041     3.5620     3.0065  H       1  <O>11       0.0830
@<TRIPOS>BOND
     1     1     2    1
     2     2     3   ar
     3     3     4   ar
     4     4     5    1
     5     5     6   ar
     6     6     7   ar
     7     7     8   ar
     8     8     9   ar
     9     5     9   ar
    10     9    10    1
    11    10    11    1
    12    11    12    1
    13    12    13    1
    14    13    14   am
    15    14    15    2
    16    14    16    1
    17    16    17    1
    18    17    18    1
    19    18    19    1
    20    19    20    1
    21    16    20    1
    22    13    21    1
    23    10    21    1
    24     4    22   ar
    25    22    23   ar
    26    23    24   ar
    27     2    24   ar
    28     1    25    1
    29     1    26    1
    30     7    27    1
    31    10    28    1
    32    11    29    1
    33    11    30    1
    34    12    31    1
    35    12    32    1
    36    16    33    1
    37    17    34    1
    38    17    35    1
    39    18    36    1
    40    18    37    1
    41    19    38    1
    42    19    39    1
    43    20    40    1
    44    20    41    1
    45    21    42    1
    46    21    43    1
    47     3    44    1
    48     6    45    1
    49    22    46    1
    50    23    47    1
@<TRIPOS>MOLECULE
mol6_3_21
 47 50 0 0 0
SMALL
USER_CHARGES
****
VDW energy = -54.67
@<TRIPOS>ATOM
   1 N1        3.7120     4.1520     7.3415  N.pl3   1  <O>11      -0.3431
   2 C1        3.3329     4.3488     5.9653  C.ar    1  <O>11       0.1167
   3 C2        2.1864     5.0670     5.6766  C.ar    1  <O>11      -0.0143
   4 C3        1.8446     5.2530     4.3395  C.ar    1  <O>11      -0.0100
   5 C4        0.7410     5.9700     3.9760  C.ar    1  <O>11       0.0230
   6 C5        0.7987     7.0659     3.2194  C.ar    1  <O>11       0.0303
   7 N2       -0.5370     7.4508     3.2121  N.ar    1  <O>11      -0.2839
   8 N3       -1.3506     6.5305     3.8169  N.ar    1  <O>11      -0.1779
   9 C6       -0.5083     5.6375     4.3457  C.ar    1  <O>11       0.0751
  10 C7       -0.7826     4.4797     5.1840  C.3     1  <O>11       0.0208
  11 C8       -0.7542     4.8656     6.6236  C.3     1  <O>11      -0.0274
  12 C9       -1.6086     3.7723     7.2470  C.3     1  <O>11       0.0153
  13 N4       -2.5601     3.4179     6.2080  N.am    1  <O>11      -0.3006
  14 C10      -3.6963     2.6818     6.3328  C.2     1  <O>11       0.2187
  15 O1       -4.3976     2.4706     5.3549  O.2     1  <O>11      -0.2753
  16 C11      -4.0873     2.1329     7.6651  C.3     1  <O>11       0.0358
  17 C12      -3.4949     0.7750     7.8577  C.3     1  <O>11      -0.0419
  18 C13      -4.5058    -0.1623     7.2024  C.3     1  <O>11      -0.0523
  19 C14      -5.7650     0.6677     6.9514  C.3     1  <O>11      -0.0523
  20 C15      -5.5660     1.9533     7.7363  C.3     1  <O>11      -0.0419
  21 C16      -2.1573     3.9643     4.9200  C.3     1  <O>11       0.0230
  22 C17       2.6639     4.6834     3.3579  C.ar    1  <O>11      -0.0356
  23 C18       3.8024     3.9729     3.7374  C.ar    1  <O>11       0.0302
  24 N5        4.1374     3.8086     5.0266  N.ar    1  <O>11      -0.2407
  25 H1        4.5551     3.6243     7.5678  H       1  <O>11       0.1437
  26 H2        3.1373     4.5403     8.0894  H       1  <O>11       0.1437
  27 H3       -0.8528     8.3174     2.8014  H       1  <O>11       0.1882
  28 H4       -0.0428     3.7057     4.9841  H       1  <O>11       0.0380
  29 H5        0.2599     4.8516     7.0197  H       1  <O>11       0.0287
  30 H6       -1.1925     5.8514     6.7806  H       1  <O>11       0.0287
  31 H7       -0.9958     2.9122     7.5178  H       1  <O>11       0.0465
  32 H8       -2.1248     4.1435     8.1316  H       1  <O>11       0.0465
  33 H9       -3.7477     2.8085     8.4500  H       1  <O>11       0.0394
  34 H10      -2.5216     0.7014     7.3694  H       1  <O>11       0.0272
  35 H11      -3.3857     0.5471     8.9188  H       1  <O>11       0.0272
  36 H12      -4.1105    -0.5419     6.2585  H       1  <O>11       0.0265
  37 H13      -4.7315    -0.9974     7.8653  H       1  <O>11       0.0265
  38 H14      -5.8727     0.8833     5.8877  H       1  <O>11       0.0265
  39 H15      -6.6472     0.1373     7.3061  H       1  <O>11       0.0265
  40 H16      -6.0884     2.7883     7.2721  H       1  <O>11       0.0272
  41 H17      -5.9007     1.8454     8.7676  H       1  <O>11       0.0272
  42 H18      -2.1426     3.1886     4.1533  H       1  <O>11       0.0471
  43 H19      -2.8236     4.7675     4.6106  H       1  <O>11       0.0471
  44 H20       1.5999     5.4547     6.4321  H       1  <O>11       0.0658
  45 H21       1.6124     7.5077     2.7638  H       1  <O>11       0.0830
  46 H22       2.4268     4.7886     2.3590  H       1  <O>11       0.0639
  47 H23       4.4041     3.5620     3.0065  H       1  <O>11       0.0830
@<TRIPOS>BOND
     1     1     2    1
     2     2     3   ar
     3     3     4   ar
     4     4     5    1
     5     5     6   ar
     6     6     7   ar
     7     7     8   ar
     8     8     9   ar
     9     5     9   ar
    10     9    10    1
    11    10    11    1
    12    11    12    1
    13    12    13    1
    14    13    14   am
    15    14    15    2
    16    14    16    1
    17    16    17    1
    18    17    18    1
    19    18    19    1
    20    19    20    1
    21    16    20    1
    22    13    21    1
    23    10    21    1
    24     4    22   ar
    25    22    23   ar
    26    23    24   ar
    27     2    24   ar
    28     1    25    1
    29     1    26    1
    30     7    27    1
    31    10    28    1
    32    11    29    1
    33    11    30    1
    34    12    31    1
    35    12    32    1
    36    16    33    1
    37    17    34    1
    38    17    35    1
    39    18    36    1
    40    18    37    1
    41    19    38    1
    42    19    39    1
    43    20    40    1
    44    20    41    1
    45    21    42    1
    46    21    43    1
    47     3    44    1
    48     6    45    1
    49    22    46    1
    50    23    47    1
@<TRIPOS>MOLECULE
mol6_3_22
 47 50 0 0 0
SMALL
USER_CHARGES
****
VDW energy = -51.77
@<TRIPOS>ATOM
   1 N1        3.7120     4.1520     7.3415  N.pl3   1  <O>11      -0.3431
   2 C1        3.3329     4.3488     5.9653  C.ar    1  <O>11       0.1167
   3 C2        2.1864     5.0670     5.6766  C.ar    1  <O>11      -0.0143
   4 C3        1.8446     5.2530     4.3395  C.ar    1  <O>11      -0.0100
   5 C4        0.7410     5.9700     3.9760  C.ar    1  <O>11       0.0230
   6 C5        0.7987     7.0659     3.2194  C.ar    1  <O>11       0.0303
   7 N2       -0.5370     7.4508     3.2121  N.ar    1  <O>11      -0.2839
   8 N3       -1.3506     6.5305     3.8169  N.ar    1  <O>11      -0.1779
   9 C6       -0.5083     5.6375     4.3457  C.ar    1  <O>11       0.0751
  10 C7       -0.7826     4.4797     5.1840  C.3     1  <O>11       0.0208
  11 C8       -0.7542     4.8656     6.6236  C.3     1  <O>11      -0.0274
  12 C9       -1.6086     3.7723     7.2470  C.3     1  <O>11       0.0153
  13 N4       -2.5601     3.4179     6.2080  N.am    1  <O>11      -0.3006
  14 C10      -3.6963     2.6818     6.3328  C.2     1  <O>11       0.2187
  15 O1       -4.0156     2.2317     7.4228  O.2     1  <O>11      -0.2753
  16 C11      -4.5526     2.4226     5.1375  C.3     1  <O>11       0.0358
  17 C12      -5.5760     3.5012     4.9923  C.3     1  <O>11      -0.0419
  18 C13      -6.7248     3.0391     5.8848  C.3     1  <O>11      -0.0523
  19 C14      -6.4348     1.5812     6.2423  C.3     1  <O>11      -0.0523
  20 C15      -5.3128     1.1515     5.3122  C.3     1  <O>11      -0.0419
  21 C16      -2.1573     3.9643     4.9200  C.3     1  <O>11       0.0230
  22 C17       2.6639     4.6834     3.3579  C.ar    1  <O>11      -0.0356
  23 C18       3.8024     3.9729     3.7374  C.ar    1  <O>11       0.0302
  24 N5        4.1374     3.8086     5.0266  N.ar    1  <O>11      -0.2407
  25 H1        4.5551     3.6243     7.5678  H       1  <O>11       0.1437
  26 H2        3.1373     4.5403     8.0894  H       1  <O>11       0.1437
  27 H3       -0.8528     8.3174     2.8014  H       1  <O>11       0.1882
  28 H4       -0.0428     3.7057     4.9841  H       1  <O>11       0.0380
  29 H5        0.2599     4.8516     7.0197  H       1  <O>11       0.0287
  30 H6       -1.1925     5.8514     6.7806  H       1  <O>11       0.0287
  31 H7       -0.9958     2.9122     7.5178  H       1  <O>11       0.0465
  32 H8       -2.1248     4.1435     8.1316  H       1  <O>11       0.0465
  33 H9       -3.9268     2.3724     4.2466  H       1  <O>11       0.0394
  34 H10      -5.1815     4.4610     5.3303  H       1  <O>11       0.0272
  35 H11      -5.9018     3.5888     3.9550  H       1  <O>11       0.0272
  36 H12      -6.7666     3.6478     6.7899  H       1  <O>11       0.0265
  37 H13      -7.6718     3.1144     5.3508  H       1  <O>11       0.0265
  38 H14      -6.1192     1.5003     7.2831  H       1  <O>11       0.0265
  39 H15      -7.3193     0.9669     6.0816  H       1  <O>11       0.0265
  40 H16      -4.6932     0.3796     5.7657  H       1  <O>11       0.0272
  41 H17      -5.7014     0.7907     4.3604  H       1  <O>11       0.0272
  42 H18      -2.1426     3.1886     4.1533  H       1  <O>11       0.0471
  43 H19      -2.8236     4.7675     4.6106  H       1  <O>11       0.0471
  44 H20       1.5999     5.4547     6.4321  H       1  <O>11       0.0658
  45 H21       1.6124     7.5077     2.7638  H       1  <O>11       0.0830
  46 H22       2.4268     4.7886     2.3590  H       1  <O>11       0.0639
  47 H23       4.4041     3.5620     3.0065  H       1  <O>11       0.0830
@<TRIPOS>BOND
     1     1     2    1
     2     2     3   ar
     3     3     4   ar
     4     4     5    1
     5     5     6   ar
     6     6     7   ar
     7     7     8   ar
     8     8     9   ar
     9     5     9   ar
    10     9    10    1
    11    10    11    1
    12    11    12    1
    13    12    13    1
    14    13    14   am
    15    14    15    2
    16    14    16    1
    17    16    17    1
    18    17    18    1
    19    18    19    1
    20    19    20    1
    21    16    20    1
    22    13    21    1
    23    10    21    1
    24     4    22   ar
    25    22    23   ar
    26    23    24   ar
    27     2    24   ar
    28     1    25    1
    29     1    26    1
    30     7    27    1
    31    10    28    1
    32    11    29    1
    33    11    30    1
    34    12    31    1
    35    12    32    1
    36    16    33    1
    37    17    34    1
    38    17    35    1
    39    18    36    1
    40    18    37    1
    41    19    38    1
    42    19    39    1
    43    20    40    1
    44    20    41    1
    45    21    42    1
    46    21    43    1
    47     3    44    1
    48     6    45    1
    49    22    46    1
    50    23    47    1
@<TRIPOS>MOLECULE
mol6_3_23
 47 50 0 0 0
SMALL
USER_CHARGES
****
VDW energy = -38.83
@<TRIPOS>ATOM
   1 N1        3.7120     4.1520     7.3415  N.pl3   1  <O>11      -0.3431
   2 C1        3.3329     4.3488     5.9653  C.ar    1  <O>11       0.1167
   3 C2        2.1864     5.0670     5.6766  C.ar    1  <O>11      -0.0143
   4 C3        1.8446     5.2530     4.3395  C.ar    1  <O>11      -0.0100
   5 C4        0.7410     5.9700     3.9760  C.ar    1  <O>11       0.0230
   6 C5       -0.2647     5.4544     3.2693  C.ar    1  <O>11       0.0303
   7 N2       -1.0679     6.5760     3.0983  N.ar    1  <O>11      -0.2839
   8 N3       -0.6144     7.6576     3.8048  N.ar    1  <O>11      -0.1779
   9 C6        0.5638     7.2635     4.2978  C.ar    1  <O>11       0.0751
  10 C7        1.5542     8.0123     5.0573  C.3     1  <O>11       0.0208
  11 C8        2.5306     8.6602     4.1358  C.3     1  <O>11      -0.0274
  12 C9        3.0492     9.8012     4.9977  C.3     1  <O>11       0.0153
  13 N4        1.9285    10.1476     5.8547  N.am    1  <O>11      -0.3006
  14 C10       1.7791    11.2578     6.6252  C.2     1  <O>11       0.2187
  15 O1        2.6557    12.1086     6.6468  O.2     1  <O>11      -0.2753
  16 C11       0.5446    11.4360     7.4458  C.3     1  <O>11       0.0358
  17 C12       0.6092    12.7228     8.2021  C.3     1  <O>11      -0.0419
  18 C13       1.3728    12.3626     9.4738  C.3     1  <O>11      -0.0523
  19 C14       1.4285    10.8357     9.5266  C.3     1  <O>11      -0.0523
  20 C15       0.4455    10.3577     8.4712  C.3     1  <O>11      -0.0419
  21 C16       0.8985     9.1196     5.8116  C.3     1  <O>11       0.0230
  22 C17       2.6639     4.6834     3.3579  C.ar    1  <O>11      -0.0356
  23 C18       3.8024     3.9729     3.7374  C.ar    1  <O>11       0.0302
  24 N5        4.1374     3.8086     5.0266  N.ar    1  <O>11      -0.2407
  25 H1        4.5551     3.6243     7.5678  H       1  <O>11       0.1437
  26 H2        3.1373     4.5403     8.0894  H       1  <O>11       0.1437
  27 H3       -1.8908     6.5737     2.5133  H       1  <O>11       0.1882
  28 H4        2.0683     7.3395     5.7425  H       1  <O>11       0.0380
  29 H5        3.3310     7.9761     3.8587  H       1  <O>11       0.0287
  30 H6        2.0419     9.0322     3.2350  H       1  <O>11       0.0287
  31 H7        3.9033     9.4768     5.5927  H       1  <O>11       0.0465
  32 H8        3.3385    10.6506     4.3799  H       1  <O>11       0.0465
  33 H9       -0.3292    11.4235     6.7946  H       1  <O>11       0.0394
  34 H10       1.1416    13.4847     7.6303  H       1  <O>11       0.0272
  35 H11      -0.3926    13.0828     8.4401  H       1  <O>11       0.0272
  36 H12       2.3825    12.7754     9.4362  H       1  <O>11       0.0265
  37 H13       0.8526    12.7507    10.3494  H       1  <O>11       0.0265
  38 H14       2.4349    10.4836     9.2973  H       1  <O>11       0.0265
  39 H15       1.1337    10.4781    10.5118  H       1  <O>11       0.0265
  40 H16       0.7399     9.3934     8.0604  H       1  <O>11       0.0272
  41 H17      -0.5652    10.2869     8.8721  H       1  <O>11       0.0272
  42 H18       0.6243     8.7980     6.8171  H       1  <O>11       0.0471
  43 H19       0.0117     9.4765     5.2906  H       1  <O>11       0.0471
  44 H20       1.5999     5.4547     6.4321  H       1  <O>11       0.0658
  45 H21      -0.4079     4.4871     2.9393  H       1  <O>11       0.0830
  46 H22       2.4268     4.7886     2.3590  H       1  <O>11       0.0639
  47 H23       4.4041     3.5620     3.0065  H       1  <O>11       0.0830
@<TRIPOS>BOND
     1     1     2    1
     2     2     3   ar
     3     3     4   ar
     4     4     5    1
     5     5     6   ar
     6     6     7   ar
     7     7     8   ar
     8     8     9   ar
     9     5     9   ar
    10     9    10    1
    11    10    11    1
    12    11    12    1
    13    12    13    1
    14    13    14   am
    15    14    15    2
    16    14    16    1
    17    16    17    1
    18    17    18    1
    19    18    19    1
    20    19    20    1
    21    16    20    1
    22    13    21    1
    23    10    21    1
    24     4    22   ar
    25    22    23   ar
    26    23    24   ar
    27     2    24   ar
    28     1    25    1
    29     1    26    1
    30     7    27    1
    31    10    28    1
    32    11    29    1
    33    11    30    1
    34    12    31    1
    35    12    32    1
    36    16    33    1
    37    17    34    1
    38    17    35    1
    39    18    36    1
    40    18    37    1
    41    19    38    1
    42    19    39    1
    43    20    40    1
    44    20    41    1
    45    21    42    1
    46    21    43    1
    47     3    44    1
    48     6    45    1
    49    22    46    1
    50    23    47    1
@<TRIPOS>MOLECULE
mol6_3_24
 47 50 0 0 0
SMALL
USER_CHARGES
****
VDW energy = -34.47
@<TRIPOS>ATOM
   1 N1        3.7120     4.1520     7.3415  N.pl3   1  <O>11      -0.3431
   2 C1        3.3329     4.3488     5.9653  C.ar    1  <O>11       0.1167
   3 C2        2.1864     5.0670     5.6766  C.ar    1  <O>11      -0.0143
   4 C3        1.8446     5.2530     4.3395  C.ar    1  <O>11      -0.0100
   5 C4        0.7410     5.9700     3.9760  C.ar    1  <O>11       0.0230
   6 C5       -0.2647     5.4544     3.2693  C.ar    1  <O>11       0.0303
   7 N2       -1.0679     6.5760     3.0983  N.ar    1  <O>11      -0.2839
   8 N3       -0.6144     7.6576     3.8048  N.ar    1  <O>11      -0.1779
   9 C6        0.5638     7.2635     4.2978  C.ar    1  <O>11       0.0751
  10 C7        1.5542     8.0123     5.0573  C.3     1  <O>11       0.0208
  11 C8        1.1889     9.4570     5.0997  C.3     1  <O>11      -0.0274
  12 C9        1.9245     9.9187     6.3486  C.3     1  <O>11       0.0153
  13 N4        1.9453     8.7498     7.2110  N.am    1  <O>11      -0.3006
  14 C10       2.2537     8.6943     8.5340  C.2     1  <O>11       0.2187
  15 O1        2.2236     7.6247     9.1236  O.2     1  <O>11      -0.2753
  16 C11       2.6275     9.9408     9.2660  C.3     1  <O>11       0.0358
  17 C12       4.1041    10.1570     9.1959  C.3     1  <O>11      -0.0419
  18 C13       4.6504     9.3376    10.3622  C.3     1  <O>11      -0.0523
  19 C14       3.4462     8.9547    11.2227  C.3     1  <O>11      -0.0523
  20 C15       2.2968     9.8085    10.7142  C.3     1  <O>11      -0.0419
  21 C16       1.5775     7.5488     6.4749  C.3     1  <O>11       0.0230
  22 C17       2.6639     4.6834     3.3579  C.ar    1  <O>11      -0.0356
  23 C18       3.8024     3.9729     3.7374  C.ar    1  <O>11       0.0302
  24 N5        4.1374     3.8086     5.0266  N.ar    1  <O>11      -0.2407
  25 H1        4.5551     3.6243     7.5678  H       1  <O>11       0.1437
  26 H2        3.1373     4.5403     8.0894  H       1  <O>11       0.1437
  27 H3       -1.8908     6.5737     2.5133  H       1  <O>11       0.1882
  28 H4        2.5342     7.8822     4.5999  H       1  <O>11       0.0380
  29 H5        1.5412     9.9830     4.2139  H       1  <O>11       0.0287
  30 H6        0.1118     9.5928     5.1991  H       1  <O>11       0.0287
  31 H7        2.9388    10.2345     6.1032  H       1  <O>11       0.0465
  32 H8        1.3937    10.7409     6.8270  H       1  <O>11       0.0465
  33 H9        2.0998    10.7894     8.8311  H       1  <O>11       0.0394
  34 H10       4.5058     9.7994     8.2463  H       1  <O>11       0.0272
  35 H11       4.3469    11.2136     9.3168  H       1  <O>11       0.0272
  36 H12       5.1488     8.4404     9.9910  H       1  <O>11       0.0265
  37 H13       5.3549     9.9318    10.9439  H       1  <O>11       0.0265
  38 H14       3.2154     7.8953    11.1042  H       1  <O>11       0.0265
  39 H15       3.6447     9.1685    12.2716  H       1  <O>11       0.0265
  40 H16       1.3384     9.3121    10.8569  H       1  <O>11       0.0272
  41 H17       2.2770    10.7814    11.2043  H       1  <O>11       0.0272
  42 H18       2.3187     6.7612     6.6158  H       1  <O>11       0.0471
  43 H19       0.5990     7.1854     6.7839  H       1  <O>11       0.0471
  44 H20       1.5999     5.4547     6.4321  H       1  <O>11       0.0658
  45 H21      -0.4079     4.4871     2.9393  H       1  <O>11       0.0830
  46 H22       2.4268     4.7886     2.3590  H       1  <O>11       0.0639
  47 H23       4.4041     3.5620     3.0065  H       1  <O>11       0.0830
@<TRIPOS>BOND
     1     1     2    1
     2     2     3   ar
     3     3     4   ar
     4     4     5    1
     5     5     6   ar
     6     6     7   ar
     7     7     8   ar
     8     8     9   ar
     9     5     9   ar
    10     9    10    1
    11    10    11    1
    12    11    12    1
    13    12    13    1
    14    13    14   am
    15    14    15    2
    16    14    16    1
    17    16    17    1
    18    17    18    1
    19    18    19    1
    20    19    20    1
    21    16    20    1
    22    13    21    1
    23    10    21    1
    24     4    22   ar
    25    22    23   ar
    26    23    24   ar
    27     2    24   ar
    28     1    25    1
    29     1    26    1
    30     7    27    1
    31    10    28    1
    32    11    29    1
    33    11    30    1
    34    12    31    1
    35    12    32    1
    36    16    33    1
    37    17    34    1
    38    17    35    1
    39    18    36    1
    40    18    37    1
    41    19    38    1
    42    19    39    1
    43    20    40    1
    44    20    41    1
    45    21    42    1
    46    21    43    1
    47     3    44    1
    48     6    45    1
    49    22    46    1
    50    23    47    1
@<TRIPOS>MOLECULE
mol6_3_25
 47 50 0 0 0
SMALL
USER_CHARGES
****
VDW energy = -31.77
@<TRIPOS>ATOM
   1 N1        3.7120     4.1520     7.3415  N.pl3   1  <O>11      -0.3431
   2 C1        3.3329     4.3488     5.9653  C.ar    1  <O>11       0.1167
   3 C2        2.1864     5.0670     5.6766  C.ar    1  <O>11      -0.0143
   4 C3        1.8446     5.2530     4.3395  C.ar    1  <O>11      -0.0100
   5 C4        0.7410     5.9700     3.9760  C.ar    1  <O>11       0.0230
   6 C5       -0.2647     5.4544     3.2693  C.ar    1  <O>11       0.0303
   7 N2       -1.0679     6.5760     3.0983  N.ar    1  <O>11      -0.2839
   8 N3       -0.6144     7.6576     3.8048  N.ar    1  <O>11      -0.1779
   9 C6        0.5638     7.2635     4.2978  C.ar    1  <O>11       0.0751
  10 C7        1.5542     8.0123     5.0573  C.3     1  <O>11       0.0208
  11 C8        1.1889     9.4570     5.0997  C.3     1  <O>11      -0.0274
  12 C9        1.9245     9.9187     6.3486  C.3     1  <O>11       0.0153
  13 N4        1.9453     8.7498     7.2110  N.am    1  <O>11      -0.3006
  14 C10       2.2537     8.6943     8.5340  C.2     1  <O>11       0.2187
  15 O1        2.2236     7.6247     9.1236  O.2     1  <O>11      -0.2753
  16 C11       2.6275     9.9408     9.2660  C.3     1  <O>11       0.0358
  17 C12       3.0833     9.6094    10.6497  C.3     1  <O>11      -0.0419
  18 C13       1.7896     9.5522    11.4578  C.3     1  <O>11      -0.0523
  19 C14       0.7004    10.1596    10.5735  C.3     1  <O>11      -0.0523
  20 C15       1.4368    10.8248     9.4229  C.3     1  <O>11      -0.0419
  21 C16       1.5775     7.5488     6.4749  C.3     1  <O>11       0.0230
  22 C17       2.6639     4.6834     3.3579  C.ar    1  <O>11      -0.0356
  23 C18       3.8024     3.9729     3.7374  C.ar    1  <O>11       0.0302
  24 N5        4.1374     3.8086     5.0266  N.ar    1  <O>11      -0.2407
  25 H1        4.5551     3.6243     7.5678  H       1  <O>11       0.1437
  26 H2        3.1373     4.5403     8.0894  H       1  <O>11       0.1437
  27 H3       -1.8908     6.5737     2.5133  H       1  <O>11       0.1882
  28 H4        2.5342     7.8822     4.5999  H       1  <O>11       0.0380
  29 H5        1.5412     9.9830     4.2139  H       1  <O>11       0.0287
  30 H6        0.1118     9.5928     5.1991  H       1  <O>11       0.0287
  31 H7        2.9388    10.2345     6.1032  H       1  <O>11       0.0465
  32 H8        1.3937    10.7409     6.8270  H       1  <O>11       0.0465
  33 H9        3.4170    10.4587     8.7216  H       1  <O>11       0.0394
  34 H10       3.5987     8.6477    10.6705  H       1  <O>11       0.0272
  35 H11       3.7472    10.3846    11.0347  H       1  <O>11       0.0272
  36 H12       1.5434     8.5172    11.7015  H       1  <O>11       0.0265
  37 H13       1.8927    10.1286    12.3770  H       1  <O>11       0.0265
  38 H14       0.0350     9.3802    10.2002  H       1  <O>11       0.0265
  39 H15       0.1227    10.8944    11.1318  H       1  <O>11       0.0265
  40 H16       0.8322    10.8379     8.5175  H       1  <O>11       0.0272
  41 H17       1.7323    11.8427     9.6755  H       1  <O>11       0.0272
  42 H18       2.3187     6.7612     6.6158  H       1  <O>11       0.0471
  43 H19       0.5990     7.1854     6.7839  H       1  <O>11       0.0471
  44 H20       1.5999     5.4547     6.4321  H       1  <O>11       0.0658
  45 H21      -0.4079     4.4871     2.9393  H       1  <O>11       0.0830
  46 H22       2.4268     4.7886     2.3590  H       1  <O>11       0.0639
  47 H23       4.4041     3.5620     3.0065  H       1  <O>11       0.0830
@<TRIPOS>BOND
     1     1     2    1
     2     2     3   ar
     3     3     4   ar
     4     4     5    1
     5     5     6   ar
     6     6     7   ar
     7     7     8   ar
     8     8     9   ar
     9     5     9   ar
    10     9    10    1
    11    10    11    1
    12    11    12    1
    13    12    13    1
    14    13    14   am
    15    14    15    2
    16    14    16    1
    17    16    17    1
    18    17    18    1
    19    18    19    1
    20    19    20    1
    21    16    20    1
    22    13    21    1
    23    10    21    1
    24     4    22   ar
    25    22    23   ar
    26    23    24   ar
    27     2    24   ar
    28     1    25    1
    29     1    26    1
    30     7    27    1
    31    10    28    1
    32    11    29    1
    33    11    30    1
    34    12    31    1
    35    12    32    1
    36    16    33    1
    37    17    34    1
    38    17    35    1
    39    18    36    1
    40    18    37    1
    41    19    38    1
    42    19    39    1
    43    20    40    1
    44    20    41    1
    45    21    42    1
    46    21    43    1
    47     3    44    1
    48     6    45    1
    49    22    46    1
    50    23    47    1
@<TRIPOS>MOLECULE
mol6_3_26
 47 50 0 0 0
SMALL
USER_CHARGES
****
VDW energy = -30.68
@<TRIPOS>ATOM
   1 N1        3.7120     4.1520     7.3415  N.pl3   1  <O>11      -0.3431
   2 C1        3.3329     4.3488     5.9653  C.ar    1  <O>11       0.1167
   3 C2        2.1864     5.0670     5.6766  C.ar    1  <O>11      -0.0143
   4 C3        1.8446     5.2530     4.3395  C.ar    1  <O>11      -0.0100
   5 C4        0.7410     5.9700     3.9760  C.ar    1  <O>11       0.0230
   6 C5       -0.2647     5.4544     3.2693  C.ar    1  <O>11       0.0303
   7 N2       -1.0679     6.5760     3.0983  N.ar    1  <O>11      -0.2839
   8 N3       -0.6144     7.6576     3.8048  N.ar    1  <O>11      -0.1779
   9 C6        0.5638     7.2635     4.2978  C.ar    1  <O>11       0.0751
  10 C7        1.5542     8.0123     5.0573  C.3     1  <O>11       0.0208
  11 C8        1.1889     9.4570     5.0997  C.3     1  <O>11      -0.0274
  12 C9        1.9245     9.9187     6.3486  C.3     1  <O>11       0.0153
  13 N4        1.9453     8.7498     7.2110  N.am    1  <O>11      -0.3006
  14 C10       2.2537     8.6943     8.5340  C.2     1  <O>11       0.2187
  15 O1        2.5595     9.7143     9.1330  O.2     1  <O>11      -0.2753
  16 C11       2.2198     7.3868     9.2539  C.3     1  <O>11       0.0358
  17 C12       0.8604     7.1477     9.8258  C.3     1  <O>11      -0.0419
  18 C13       0.8995     7.8613    11.1745  C.3     1  <O>11      -0.0523
  19 C14       2.3663     8.1986    11.4427  C.3     1  <O>11      -0.0523
  20 C15       3.1581     7.4104    10.4128  C.3     1  <O>11      -0.0419
  21 C16       1.5775     7.5488     6.4749  C.3     1  <O>11       0.0230
  22 C17       2.6639     4.6834     3.3579  C.ar    1  <O>11      -0.0356
  23 C18       3.8024     3.9729     3.7374  C.ar    1  <O>11       0.0302
  24 N5        4.1374     3.8086     5.0266  N.ar    1  <O>11      -0.2407
  25 H1        4.5551     3.6243     7.5678  H       1  <O>11       0.1437
  26 H2        3.1373     4.5403     8.0894  H       1  <O>11       0.1437
  27 H3       -1.8908     6.5737     2.5133  H       1  <O>11       0.1882
  28 H4        2.5342     7.8822     4.5999  H       1  <O>11       0.0380
  29 H5        1.5412     9.9830     4.2139  H       1  <O>11       0.0287
  30 H6        0.1118     9.5928     5.1991  H       1  <O>11       0.0287
  31 H7        2.9388    10.2345     6.1032  H       1  <O>11       0.0465
  32 H8        1.3937    10.7409     6.8270  H       1  <O>11       0.0465
  33 H9        2.4864     6.5857     8.5646  H       1  <O>11       0.0394
  34 H10       0.0870     7.5714     9.1828  H       1  <O>11       0.0272
  35 H11       0.6777     6.0804     9.9568  H       1  <O>11       0.0272
  36 H12       0.3041     8.7752    11.1343  H       1  <O>11       0.0265
  37 H13       0.5140     7.2093    11.9581  H       1  <O>11       0.0265
  38 H14       2.5394     9.2683    11.3194  H       1  <O>11       0.0265
  39 H15       2.6476     7.8985    12.4508  H       1  <O>11       0.0265
  40 H16       4.0896     7.9127    10.1570  H       1  <O>11       0.0272
  41 H17       3.3753     6.4024    10.7646  H       1  <O>11       0.0272
  42 H18       2.3187     6.7612     6.6158  H       1  <O>11       0.0471
  43 H19       0.5990     7.1854     6.7839  H       1  <O>11       0.0471
  44 H20       1.5999     5.4547     6.4321  H       1  <O>11       0.0658
  45 H21      -0.4079     4.4871     2.9393  H       1  <O>11       0.0830
  46 H22       2.4268     4.7886     2.3590  H       1  <O>11       0.0639
  47 H23       4.4041     3.5620     3.0065  H       1  <O>11       0.0830
@<TRIPOS>BOND
     1     1     2    1
     2     2     3   ar
     3     3     4   ar
     4     4     5    1
     5     5     6   ar
     6     6     7   ar
     7     7     8   ar
     8     8     9   ar
     9     5     9   ar
    10     9    10    1
    11    10    11    1
    12    11    12    1
    13    12    13    1
    14    13    14   am
    15    14    15    2
    16    14    16    1
    17    16    17    1
    18    17    18    1
    19    18    19    1
    20    19    20    1
    21    16    20    1
    22    13    21    1
    23    10    21    1
    24     4    22   ar
    25    22    23   ar
    26    23    24   ar
    27     2    24   ar
    28     1    25    1
    29     1    26    1
    30     7    27    1
    31    10    28    1
    32    11    29    1
    33    11    30    1
    34    12    31    1
    35    12    32    1
    36    16    33    1
    37    17    34    1
    38    17    35    1
    39    18    36    1
    40    18    37    1
    41    19    38    1
    42    19    39    1
    43    20    40    1
    44    20    41    1
    45    21    42    1
    46    21    43    1
    47     3    44    1
    48     6    45    1
    49    22    46    1
    50    23    47    1
@<TRIPOS>MOLECULE
mol6_3_27
 47 50 0 0 0
SMALL
USER_CHARGES
****
VDW energy = -29.54
@<TRIPOS>ATOM
   1 N1        3.7120     4.1520     7.3415  N.pl3   1  <O>11      -0.3431
   2 C1        3.3329     4.3488     5.9653  C.ar    1  <O>11       0.1167
   3 C2        2.1864     5.0670     5.6766  C.ar    1  <O>11      -0.0143
   4 C3        1.8446     5.2530     4.3395  C.ar    1  <O>11      -0.0100
   5 C4        0.7410     5.9700     3.9760  C.ar    1  <O>11       0.0230
   6 C5        0.7987     7.0659     3.2194  C.ar    1  <O>11       0.0303
   7 N2       -0.5370     7.4508     3.2121  N.ar    1  <O>11      -0.2839
   8 N3       -1.3506     6.5305     3.8169  N.ar    1  <O>11      -0.1779
   9 C6       -0.5083     5.6375     4.3457  C.ar    1  <O>11       0.0751
  10 C7       -0.7826     4.4797     5.1840  C.3     1  <O>11       0.0208
  11 C8       -0.7542     4.8656     6.6236  C.3     1  <O>11      -0.0274
  12 C9       -1.6086     3.7723     7.2470  C.3     1  <O>11       0.0153
  13 N4       -2.5601     3.4179     6.2080  N.am    1  <O>11      -0.3006
  14 C10      -3.6963     2.6818     6.3328  C.2     1  <O>11       0.2187
  15 O1       -4.0156     2.2317     7.4228  O.2     1  <O>11      -0.2753
  16 C11      -4.5526     2.4226     5.1375  C.3     1  <O>11       0.0358
  17 C12      -5.7373     1.5969     5.5208  C.3     1  <O>11      -0.0419
  18 C13      -5.2264     0.1611     5.4356  C.3     1  <O>11      -0.0523
  19 C14      -3.8829     0.2229     4.7087  C.3     1  <O>11      -0.0523
  20 C15      -3.8011     1.6240     4.1268  C.3     1  <O>11      -0.0419
  21 C16      -2.1573     3.9643     4.9200  C.3     1  <O>11       0.0230
  22 C17       2.6639     4.6834     3.3579  C.ar    1  <O>11      -0.0356
  23 C18       3.8024     3.9729     3.7374  C.ar    1  <O>11       0.0302
  24 N5        4.1374     3.8086     5.0266  N.ar    1  <O>11      -0.2407
  25 H1        4.5551     3.6243     7.5678  H       1  <O>11       0.1437
  26 H2        3.1373     4.5403     8.0894  H       1  <O>11       0.1437
  27 H3       -0.8528     8.3174     2.8014  H       1  <O>11       0.1882
  28 H4       -0.0428     3.7057     4.9841  H       1  <O>11       0.0380
  29 H5        0.2599     4.8516     7.0197  H       1  <O>11       0.0287
  30 H6       -1.1925     5.8514     6.7806  H       1  <O>11       0.0287
  31 H7       -0.9958     2.9122     7.5178  H       1  <O>11       0.0465
  32 H8       -2.1248     4.1435     8.1316  H       1  <O>11       0.0465
  33 H9       -4.8754     3.3715     4.7094  H       1  <O>11       0.0394
  34 H10      -6.0664     1.8341     6.5339  H       1  <O>11       0.0272
  35 H11      -6.5622     1.7571     4.8253  H       1  <O>11       0.0272
  36 H12      -5.0941    -0.2515     6.4374  H       1  <O>11       0.0265
  37 H13      -5.9286    -0.4571     4.8765  H       1  <O>11       0.0265
  38 H14      -3.0637     0.0523     5.4082  H       1  <O>11       0.0265
  39 H15      -3.8448    -0.5220     3.9155  H       1  <O>11       0.0265
  40 H16      -2.7692     1.9614     4.0443  H       1  <O>11       0.0272
  41 H17      -4.2783     1.6769     3.1487  H       1  <O>11       0.0272
  42 H18      -2.1426     3.1886     4.1533  H       1  <O>11       0.0471
  43 H19      -2.8236     4.7675     4.6106  H       1  <O>11       0.0471
  44 H20       1.5999     5.4547     6.4321  H       1  <O>11       0.0658
  45 H21       1.6124     7.5077     2.7638  H       1  <O>11       0.0830
  46 H22       2.4268     4.7886     2.3590  H       1  <O>11       0.0639
  47 H23       4.4041     3.5620     3.0065  H       1  <O>11       0.0830
@<TRIPOS>BOND
     1     1     2    1
     2     2     3   ar
     3     3     4   ar
     4     4     5    1
     5     5     6   ar
     6     6     7   ar
     7     7     8   ar
     8     8     9   ar
     9     5     9   ar
    10     9    10    1
    11    10    11    1
    12    11    12    1
    13    12    13    1
    14    13    14   am
    15    14    15    2
    16    14    16    1
    17    16    17    1
    18    17    18    1
    19    18    19    1
    20    19    20    1
    21    16    20    1
    22    13    21    1
    23    10    21    1
    24     4    22   ar
    25    22    23   ar
    26    23    24   ar
    27     2    24   ar
    28     1    25    1
    29     1    26    1
    30     7    27    1
    31    10    28    1
    32    11    29    1
    33    11    30    1
    34    12    31    1
    35    12    32    1
    36    16    33    1
    37    17    34    1
    38    17    35    1
    39    18    36    1
    40    18    37    1
    41    19    38    1
    42    19    39    1
    43    20    40    1
    44    20    41    1
    45    21    42    1
    46    21    43    1
    47     3    44    1
    48     6    45    1
    49    22    46    1
    50    23    47    1
@<TRIPOS>MOLECULE
mol6_3_28
 47 50 0 0 0
SMALL
USER_CHARGES
****
VDW energy = -22.37
@<TRIPOS>ATOM
   1 N1        3.7120     4.1520     7.3415  N.pl3   1  <O>11      -0.3431
   2 C1        3.3329     4.3488     5.9653  C.ar    1  <O>11       0.1167
   3 C2        2.1864     5.0670     5.6766  C.ar    1  <O>11      -0.0143
   4 C3        1.8446     5.2530     4.3395  C.ar    1  <O>11      -0.0100
   5 C4        0.7410     5.9700     3.9760  C.ar    1  <O>11       0.0230
   6 C5        0.7647     7.2839     3.7528  C.ar    1  <O>11       0.0303
   7 N2       -0.5804     7.5327     3.5055  N.ar    1  <O>11      -0.2839
   8 N3       -1.3228     6.3839     3.4432  N.ar    1  <O>11      -0.1779
   9 C6       -0.4735     5.4182     3.8075  C.ar    1  <O>11       0.0751
  10 C7       -0.7111     3.9973     4.0153  C.3     1  <O>11       0.0208
  11 C8        0.3388     3.4222     4.9036  C.3     1  <O>11      -0.0274
  12 C9       -0.3732     2.1993     5.4615  C.3     1  <O>11       0.0153
  13 N4       -1.7750     2.5792     5.4960  N.am    1  <O>11      -0.3006
  14 C10      -2.7942     1.9510     6.1401  C.2     1  <O>11       0.2187
  15 O1       -3.9284     2.4002     6.0724  O.2     1  <O>11      -0.2753
  16 C11      -2.5269     0.7131     6.9310  C.3     1  <O>11       0.0358
  17 C12      -2.6740    -0.4948     6.0642  C.3     1  <O>11      -0.0419
  18 C13      -4.1666    -0.8088     6.1235  C.3     1  <O>11      -0.0523
  19 C14      -4.7408     0.0349     7.2618  C.3     1  <O>11      -0.0523
  20 C15      -3.5360     0.5672     8.0193  C.3     1  <O>11      -0.0419
  21 C16      -2.0097     3.7876     4.7187  C.3     1  <O>11       0.0230
  22 C17       2.6639     4.6834     3.3579  C.ar    1  <O>11      -0.0356
  23 C18       3.8024     3.9729     3.7374  C.ar    1  <O>11       0.0302
  24 N5        4.1374     3.8086     5.0266  N.ar    1  <O>11      -0.2407
  25 H1        4.5551     3.6243     7.5678  H       1  <O>11       0.1437
  26 H2        3.1373     4.5403     8.0894  H       1  <O>11       0.1437
  27 H3       -0.9502     8.4649     3.3879  H       1  <O>11       0.1882
  28 H4       -0.7147     3.4872     3.0529  H       1  <O>11       0.0380
  29 H5        1.2274     3.1420     4.3403  H       1  <O>11       0.0287
  30 H6        0.6150     4.1180     5.6962  H       1  <O>11       0.0287
  31 H7       -0.2237     1.3369     4.8114  H       1  <O>11       0.0465
  32 H8       -0.0126     1.9663     6.4627  H       1  <O>11       0.0465
  33 H9       -1.5210     0.7590     7.3483  H       1  <O>11       0.0394
  34 H10      -2.3611    -0.2807     5.0409  H       1  <O>11       0.0272
  35 H11      -2.0868    -1.3263     6.4560  H       1  <O>11       0.0272
  36 H12      -4.6450    -0.5430     5.1792  H       1  <O>11       0.0265
  37 H13      -4.3218    -1.8685     6.3253  H       1  <O>11       0.0265
  38 H14      -5.3344     0.8583     6.8629  H       1  <O>11       0.0265
  39 H15      -5.3608    -0.5778     7.9142  H       1  <O>11       0.0265
  40 H16      -3.7523     1.5254     8.4888  H       1  <O>11       0.0272
  41 H17      -3.1988    -0.1393     8.7771  H       1  <O>11       0.0272
  42 H18      -2.8212     3.6420     4.0046  H       1  <O>11       0.0471
  43 H19      -2.2440     4.6300     5.3670  H       1  <O>11       0.0471
  44 H20       1.5999     5.4547     6.4321  H       1  <O>11       0.0658
  45 H21       1.5632     7.9376     3.7613  H       1  <O>11       0.0830
  46 H22       2.4268     4.7886     2.3590  H       1  <O>11       0.0639
  47 H23       4.4041     3.5620     3.0065  H       1  <O>11       0.0830
@<TRIPOS>BOND
     1     1     2    1
     2     2     3   ar
     3     3     4   ar
     4     4     5    1
     5     5     6   ar
     6     6     7   ar
     7     7     8   ar
     8     8     9   ar
     9     5     9   ar
    10     9    10    1
    11    10    11    1
    12    11    12    1
    13    12    13    1
    14    13    14   am
    15    14    15    2
    16    14    16    1
    17    16    17    1
    18    17    18    1
    19    18    19    1
    20    19    20    1
    21    16    20    1
    22    13    21    1
    23    10    21    1
    24     4    22   ar
    25    22    23   ar
    26    23    24   ar
    27     2    24   ar
    28     1    25    1
    29     1    26    1
    30     7    27    1
    31    10    28    1
    32    11    29    1
    33    11    30    1
    34    12    31    1
    35    12    32    1
    36    16    33    1
    37    17    34    1
    38    17    35    1
    39    18    36    1
    40    18    37    1
    41    19    38    1
    42    19    39    1
    43    20    40    1
    44    20    41    1
    45    21    42    1
    46    21    43    1
    47     3    44    1
    48     6    45    1
    49    22    46    1
    50    23    47    1
@<TRIPOS>MOLECULE
mol6_3_29
 47 50 0 0 0
SMALL
USER_CHARGES
****
VDW energy = -21.17
@<TRIPOS>ATOM
   1 N1        3.7120     4.1520     7.3415  N.pl3   1  <O>11      -0.3431
   2 C1        3.3329     4.3488     5.9653  C.ar    1  <O>11       0.1167
   3 C2        2.1864     5.0670     5.6766  C.ar    1  <O>11      -0.0143
   4 C3        1.8446     5.2530     4.3395  C.ar    1  <O>11      -0.0100
   5 C4        0.7410     5.9700     3.9760  C.ar    1  <O>11       0.0230
   6 C5       -0.4632     5.4231     3.8104  C.ar    1  <O>11       0.0303
   7 N2       -1.1934     6.5226     3.3741  N.ar    1  <O>11      -0.2839
   8 N3       -0.4726     7.6854     3.4293  N.ar    1  <O>11      -0.1779
   9 C6        0.7644     7.2957     3.7522  C.ar    1  <O>11       0.0751
  10 C7        1.9873     8.0764     3.8689  C.3     1  <O>11       0.0208
  11 C8        3.1798     7.1946     3.7192  C.3     1  <O>11      -0.0274
  12 C9        4.2398     8.1915     3.2759  C.3     1  <O>11       0.0153
  13 N4        3.5022     9.2015     2.5367  N.am    1  <O>11      -0.3006
  14 C10       4.0001    10.1684     1.7210  C.2     1  <O>11       0.2187
  15 O1        3.2418    10.9487     1.1653  O.2     1  <O>11      -0.2753
  16 C11       5.4734    10.2754     1.5034  C.3     1  <O>11       0.0358
  17 C12       6.0806    11.1844     2.5217  C.3     1  <O>11      -0.0419
  18 C13       5.9150    12.5757     1.9162  C.3     1  <O>11      -0.0523
  19 C14       5.5126    12.3665     0.4563  C.3     1  <O>11      -0.0523
  20 C15       5.7562    10.8932     0.1759  C.3     1  <O>11      -0.0419
  21 C16       2.0698     9.0762     2.7650  C.3     1  <O>11       0.0230
  22 C17       2.6639     4.6834     3.3579  C.ar    1  <O>11      -0.0356
  23 C18       3.8024     3.9729     3.7374  C.ar    1  <O>11       0.0302
  24 N5        4.1374     3.8086     5.0266  N.ar    1  <O>11      -0.2407
  25 H1        4.5551     3.6243     7.5678  H       1  <O>11       0.1437
  26 H2        3.1373     4.5403     8.0894  H       1  <O>11       0.1437
  27 H3       -2.1488     6.4514     3.0553  H       1  <O>11       0.1882
  28 H4        2.0050     8.5773     4.8360  H       1  <O>11       0.0380
  29 H5        3.4478     6.7234     4.6635  H       1  <O>11       0.0287
  30 H6        3.0150     6.4265     2.9633  H       1  <O>11       0.0287
  31 H7        4.7379     8.6331     4.1394  H       1  <O>11       0.0465
  32 H8        4.9790     7.7099     2.6370  H       1  <O>11       0.0465
  33 H9        5.9225     9.2842     1.5653  H       1  <O>11       0.0394
  34 H10       5.5544    11.1088     3.4748  H       1  <O>11       0.0272
  35 H11       7.1353    10.9492     2.6708  H       1  <O>11       0.0272
  36 H12       5.1362    13.1267     2.4465  H       1  <O>11       0.0265
  37 H13       6.8539    13.1263     1.9726  H       1  <O>11       0.0265
  38 H14       4.4598    12.6128     0.3128  H       1  <O>11       0.0265
  39 H15       6.1234    12.9853    -0.1992  H       1  <O>11       0.0265
  40 H16       5.0785    10.5158    -0.5881  H       1  <O>11       0.0272
  41 H17       6.7855    10.7119    -0.1319  H       1  <O>11       0.0272
  42 H18       1.6372    10.0301     3.0693  H       1  <O>11       0.0471
  43 H19       1.5618     8.7160     1.8721  H       1  <O>11       0.0471
  44 H20       1.5999     5.4547     6.4321  H       1  <O>11       0.0658
  45 H21      -0.7697     4.4497     3.9640  H       1  <O>11       0.0830
  46 H22       2.4268     4.7886     2.3590  H       1  <O>11       0.0639
  47 H23       4.4041     3.5620     3.0065  H       1  <O>11       0.0830
@<TRIPOS>BOND
     1     1     2    1
     2     2     3   ar
     3     3     4   ar
     4     4     5    1
     5     5     6   ar
     6     6     7   ar
     7     7     8   ar
     8     8     9   ar
     9     5     9   ar
    10     9    10    1
    11    10    11    1
    12    11    12    1
    13    12    13    1
    14    13    14   am
    15    14    15    2
    16    14    16    1
    17    16    17    1
    18    17    18    1
    19    18    19    1
    20    19    20    1
    21    16    20    1
    22    13    21    1
    23    10    21    1
    24     4    22   ar
    25    22    23   ar
    26    23    24   ar
    27     2    24   ar
    28     1    25    1
    29     1    26    1
    30     7    27    1
    31    10    28    1
    32    11    29    1
    33    11    30    1
    34    12    31    1
    35    12    32    1
    36    16    33    1
    37    17    34    1
    38    17    35    1
    39    18    36    1
    40    18    37    1
    41    19    38    1
    42    19    39    1
    43    20    40    1
    44    20    41    1
    45    21    42    1
    46    21    43    1
    47     3    44    1
    48     6    45    1
    49    22    46    1
    50    23    47    1
@<TRIPOS>MOLECULE
mol6_3_30
 47 50 0 0 0
SMALL
USER_CHARGES
****
VDW energy = -19.78
@<TRIPOS>ATOM
   1 N1        3.7120     4.1520     7.3415  N.pl3   1  <O>11      -0.3431
   2 C1        3.3329     4.3488     5.9653  C.ar    1  <O>11       0.1167
   3 C2        2.1864     5.0670     5.6766  C.ar    1  <O>11      -0.0143
   4 C3        1.8446     5.2530     4.3395  C.ar    1  <O>11      -0.0100
   5 C4        0.7410     5.9700     3.9760  C.ar    1  <O>11       0.0230
   6 C5        0.7647     7.2839     3.7528  C.ar    1  <O>11       0.0303
   7 N2       -0.5804     7.5327     3.5055  N.ar    1  <O>11      -0.2839
   8 N3       -1.3228     6.3839     3.4432  N.ar    1  <O>11      -0.1779
   9 C6       -0.4735     5.4182     3.8075  C.ar    1  <O>11       0.0751
  10 C7       -0.7111     3.9973     4.0153  C.3     1  <O>11       0.0208
  11 C8        0.3388     3.4222     4.9036  C.3     1  <O>11      -0.0274
  12 C9       -0.3732     2.1993     5.4615  C.3     1  <O>11       0.0153
  13 N4       -1.7750     2.5792     5.4960  N.am    1  <O>11      -0.3006
  14 C10      -2.7942     1.9510     6.1401  C.2     1  <O>11       0.2187
  15 O1       -3.9284     2.4002     6.0724  O.2     1  <O>11      -0.2753
  16 C11      -2.5269     0.7131     6.9310  C.3     1  <O>11       0.0358
  17 C12      -3.8120     0.1142     7.4020  C.3     1  <O>11      -0.0419
  18 C13      -4.1052     0.8537     8.7048  C.3     1  <O>11      -0.0523
  19 C14      -2.8257     1.6053     9.0724  C.3     1  <O>11      -0.0523
  20 C15      -1.7489     1.0430     8.1598  C.3     1  <O>11      -0.0419
  21 C16      -2.0097     3.7876     4.7187  C.3     1  <O>11       0.0230
  22 C17       2.6639     4.6834     3.3579  C.ar    1  <O>11      -0.0356
  23 C18       3.8024     3.9729     3.7374  C.ar    1  <O>11       0.0302
  24 N5        4.1374     3.8086     5.0266  N.ar    1  <O>11      -0.2407
  25 H1        4.5551     3.6243     7.5678  H       1  <O>11       0.1437
  26 H2        3.1373     4.5403     8.0894  H       1  <O>11       0.1437
  27 H3       -0.9502     8.4649     3.3879  H       1  <O>11       0.1882
  28 H4       -0.7147     3.4872     3.0529  H       1  <O>11       0.0380
  29 H5        1.2274     3.1420     4.3403  H       1  <O>11       0.0287
  30 H6        0.6150     4.1180     5.6962  H       1  <O>11       0.0287
  31 H7       -0.2237     1.3369     4.8114  H       1  <O>11       0.0465
  32 H8       -0.0126     1.9663     6.4627  H       1  <O>11       0.0465
  33 H9       -1.9804    -0.0006     6.3147  H       1  <O>11       0.0394
  34 H10      -4.6081     0.2772     6.6736  H       1  <O>11       0.0272
  35 H11      -3.6980    -0.9558     7.5805  H       1  <O>11       0.0272
  36 H12      -4.9274     1.5570     8.5615  H       1  <O>11       0.0265
  37 H13      -4.3644     0.1450     9.4911  H       1  <O>11       0.0265
  38 H14      -2.9503     2.6752     8.9006  H       1  <O>11       0.0265
  39 H15      -2.5692     1.4321    10.1163  H       1  <O>11       0.0265
  40 H16      -0.9768     1.7820     7.9523  H       1  <O>11       0.0272
  41 H17      -1.2910     0.1515     8.5874  H       1  <O>11       0.0272
  42 H18      -2.8212     3.6420     4.0046  H       1  <O>11       0.0471
  43 H19      -2.2440     4.6300     5.3670  H       1  <O>11       0.0471
  44 H20       1.5999     5.4547     6.4321  H       1  <O>11       0.0658
  45 H21       1.5632     7.9376     3.7613  H       1  <O>11       0.0830
  46 H22       2.4268     4.7886     2.3590  H       1  <O>11       0.0639
  47 H23       4.4041     3.5620     3.0065  H       1  <O>11       0.0830
@<TRIPOS>BOND
     1     1     2    1
     2     2     3   ar
     3     3     4   ar
     4     4     5    1
     5     5     6   ar
     6     6     7   ar
     7     7     8   ar
     8     8     9   ar
     9     5     9   ar
    10     9    10    1
    11    10    11    1
    12    11    12    1
    13    12    13    1
    14    13    14   am
    15    14    15    2
    16    14    16    1
    17    16    17    1
    18    17    18    1
    19    18    19    1
    20    19    20    1
    21    16    20    1
    22    13    21    1
    23    10    21    1
    24     4    22   ar
    25    22    23   ar
    26    23    24   ar
    27     2    24   ar
    28     1    25    1
    29     1    26    1
    30     7    27    1
    31    10    28    1
    32    11    29    1
    33    11    30    1
    34    12    31    1
    35    12    32    1
    36    16    33    1
    37    17    34    1
    38    17    35    1
    39    18    36    1
    40    18    37    1
    41    19    38    1
    42    19    39    1
    43    20    40    1
    44    20    41    1
    45    21    42    1
    46    21    43    1
    47     3    44    1
    48     6    45    1
    49    22    46    1
    50    23    47    1
@<TRIPOS>MOLECULE
mol6_4_1
 47 50 0 0 0
SMALL
USER_CHARGES
****
VDW energy = -70.41
@<TRIPOS>ATOM
   1 N1        3.7120     4.1520     7.3415  N.pl3   1  <O>11      -0.3431
   2 C1        3.3329     4.3488     5.9653  C.ar    1  <O>11       0.1167
   3 C2        2.1864     5.0670     5.6766  C.ar    1  <O>11      -0.0143
   4 C3        1.8446     5.2530     4.3395  C.ar    1  <O>11      -0.0100
   5 C4        0.7410     5.9700     3.9760  C.ar    1  <O>11       0.0230
   6 C5       -0.4632     5.4231     3.8104  C.ar    1  <O>11       0.0303
   7 N2       -1.1934     6.5226     3.3741  N.ar    1  <O>11      -0.2839
   8 N3       -0.4726     7.6854     3.4293  N.ar    1  <O>11      -0.1779
   9 C6        0.7644     7.2957     3.7522  C.ar    1  <O>11       0.0751
  10 C7        1.9873     8.0764     3.8689  C.3     1  <O>11       0.0208
  11 C8        1.7488     9.4797     3.4259  C.3     1  <O>11      -0.0274
  12 C9        2.8609    10.2199     4.1533  C.3     1  <O>11       0.0153
  13 N4        3.0681     9.4574     5.3724  N.am    1  <O>11      -0.3006
  14 C10       3.7631     9.8279     6.4806  C.2     1  <O>11       0.2187
  15 O1        3.8448     9.0670     7.4329  O.2     1  <O>11      -0.2753
  16 C11       4.4249    11.1652     6.5338  C.3     1  <O>11       0.0358
  17 C12       3.4894    12.1836     7.0973  C.3     1  <O>11      -0.0419
  18 C13       4.4187    13.2287     7.7154  C.3     1  <O>11      -0.0523
  19 C14       5.8111    12.6004     7.7552  C.3     1  <O>11      -0.0523
  20 C15       5.5977    11.1244     7.4536  C.3     1  <O>11      -0.0419
  21 C16       2.4137     8.1591     5.2960  C.3     1  <O>11       0.0230
  22 C17       2.6639     4.6834     3.3579  C.ar    1  <O>11      -0.0356
  23 C18       3.8024     3.9729     3.7374  C.ar    1  <O>11       0.0302
  24 N5        4.1374     3.8086     5.0266  N.ar    1  <O>11      -0.2407
  25 H1        4.5551     3.6243     7.5678  H       1  <O>11       0.1437
  26 H2        3.1373     4.5403     8.0894  H       1  <O>11       0.1437
  27 H3       -2.1488     6.4514     3.0553  H       1  <O>11       0.1882
  28 H4        2.7688     7.6159     3.2659  H       1  <O>11       0.0380
  29 H5        1.8462     9.5783     2.3460  H       1  <O>11       0.0287
  30 H6        0.7656     9.8338     3.7363  H       1  <O>11       0.0287
  31 H7        3.7695    10.2378     3.5510  H       1  <O>11       0.0465
  32 H8        2.5580    11.2405     4.3843  H       1  <O>11       0.0465
  33 H9        4.7420    11.4535     5.5310  H       1  <O>11       0.0394
  34 H10       2.8786    12.6248     6.3105  H       1  <O>11       0.0272
  35 H11       2.8439    11.7410     7.8534  H       1  <O>11       0.0272
  36 H12       4.4304    14.1314     7.1055  H       1  <O>11       0.0265
  37 H13       4.0882    13.4763     8.7243  H       1  <O>11       0.0265
  38 H14       6.4565    13.0523     7.0018  H       1  <O>11       0.0265
  39 H15       6.2597    12.7268     8.7400  H       1  <O>11       0.0265
  40 H16       6.4699    10.6885     6.9665  H       1  <O>11       0.0272
  41 H17       5.3699    10.5628     8.3606  H       1  <O>11       0.0272
  42 H18       3.1087     7.3555     5.5427  H       1  <O>11       0.0471
  43 H19       1.5554     8.1141     5.9641  H       1  <O>11       0.0471
  44 H20       1.5999     5.4547     6.4321  H       1  <O>11       0.0658
  45 H21      -0.7697     4.4497     3.9640  H       1  <O>11       0.0830
  46 H22       2.4268     4.7886     2.3590  H       1  <O>11       0.0639
  47 H23       4.4041     3.5620     3.0065  H       1  <O>11       0.0830
@<TRIPOS>BOND
     1     1     2    1
     2     2     3   ar
     3     3     4   ar
     4     4     5    1
     5     5     6   ar
     6     6     7   ar
     7     7     8   ar
     8     8     9   ar
     9     5     9   ar
    10     9    10    1
    11    10    11    1
    12    11    12    1
    13    12    13    1
    14    13    14   am
    15    14    15    2
    16    14    16    1
    17    16    17    1
    18    17    18    1
    19    18    19    1
    20    19    20    1
    21    16    20    1
    22    13    21    1
    23    10    21    1
    24     4    22   ar
    25    22    23   ar
    26    23    24   ar
    27     2    24   ar
    28     1    25    1
    29     1    26    1
    30     7    27    1
    31    10    28    1
    32    11    29    1
    33    11    30    1
    34    12    31    1
    35    12    32    1
    36    16    33    1
    37    17    34    1
    38    17    35    1
    39    18    36    1
    40    18    37    1
    41    19    38    1
    42    19    39    1
    43    20    40    1
    44    20    41    1
    45    21    42    1
    46    21    43    1
    47     3    44    1
    48     6    45    1
    49    22    46    1
    50    23    47    1
@<TRIPOS>MOLECULE
mol6_4_2
 47 50 0 0 0
SMALL
USER_CHARGES
****
VDW energy = -70.16
@<TRIPOS>ATOM
   1 N1        3.7120     4.1520     7.3415  N.pl3   1  <O>11      -0.3431
   2 C1        3.3329     4.3488     5.9653  C.ar    1  <O>11       0.1167
   3 C2        2.1864     5.0670     5.6766  C.ar    1  <O>11      -0.0143
   4 C3        1.8446     5.2530     4.3395  C.ar    1  <O>11      -0.0100
   5 C4        0.7410     5.9700     3.9760  C.ar    1  <O>11       0.0230
   6 C5        0.7647     7.2839     3.7528  C.ar    1  <O>11       0.0303
   7 N2       -0.5804     7.5327     3.5055  N.ar    1  <O>11      -0.2839
   8 N3       -1.3228     6.3839     3.4432  N.ar    1  <O>11      -0.1779
   9 C6       -0.4735     5.4182     3.8075  C.ar    1  <O>11       0.0751
  10 C7       -0.7111     3.9973     4.0153  C.3     1  <O>11       0.0208
  11 C8       -2.1662     3.6943     3.9005  C.3     1  <O>11      -0.0274
  12 C9       -2.1405     2.2149     3.5478  C.3     1  <O>11       0.0153
  13 N4       -0.9049     2.0401     2.8040  N.am    1  <O>11      -0.3006
  14 C10      -0.5294     0.9740     2.0484  C.2     1  <O>11       0.2187
  15 O1        0.5516     0.9796     1.4790  O.2     1  <O>11      -0.2753
  16 C11      -1.4388    -0.2024     1.9137  C.3     1  <O>11       0.0358
  17 C12      -2.3477    -0.0225     0.7426  C.3     1  <O>11      -0.0419
  18 C13      -2.6839    -1.4529     0.3199  C.3     1  <O>11      -0.0523
  19 C14      -1.7064    -2.3644     1.0607  C.3     1  <O>11      -0.0523
  20 C15      -0.6486    -1.4370     1.6404  C.3     1  <O>11      -0.0419
  21 C16      -0.0363     3.1992     2.9509  C.3     1  <O>11       0.0230
  22 C17       2.6639     4.6834     3.3579  C.ar    1  <O>11      -0.0356
  23 C18       3.8024     3.9729     3.7374  C.ar    1  <O>11       0.0302
  24 N5        4.1374     3.8086     5.0266  N.ar    1  <O>11      -0.2407
  25 H1        4.5551     3.6243     7.5678  H       1  <O>11       0.1437
  26 H2        3.1373     4.5403     8.0894  H       1  <O>11       0.1437
  27 H3       -0.9502     8.4649     3.3879  H       1  <O>11       0.1882
  28 H4       -0.3400     3.7090     4.9979  H       1  <O>11       0.0380
  29 H5       -2.6848     3.8694     4.8417  H       1  <O>11       0.0287
  30 H6       -2.6348     4.2834     3.1119  H       1  <O>11       0.0287
  31 H7       -2.1362     1.6039     4.4508  H       1  <O>11       0.0465
  32 H8       -3.0004     1.9498     2.9338  H       1  <O>11       0.0465
  33 H9       -2.0179    -0.3205     2.8302  H       1  <O>11       0.0394
  34 H10      -3.2482     0.5182     1.0316  H       1  <O>11       0.0272
  35 H11      -1.8445     0.5126    -0.0603  H       1  <O>11       0.0272
  36 H12      -3.7092    -1.6972     0.5960  H       1  <O>11       0.0265
  37 H13      -2.5613    -1.5655    -0.7575  H       1  <O>11       0.0265
  38 H14      -2.2163    -2.9043     1.8587  H       1  <O>11       0.0265
  39 H15      -1.2522    -3.0773     0.3732  H       1  <O>11       0.0265
  40 H16      -0.2207    -1.8457     2.5557  H       1  <O>11       0.0272
  41 H17       0.1487    -1.2453     0.9210  H       1  <O>11       0.0272
  42 H18       0.9653     2.9006     3.2630  H       1  <O>11       0.0471
  43 H19       0.0262     3.7612     2.0207  H       1  <O>11       0.0471
  44 H20       1.5999     5.4547     6.4321  H       1  <O>11       0.0658
  45 H21       1.5632     7.9376     3.7613  H       1  <O>11       0.0830
  46 H22       2.4268     4.7886     2.3590  H       1  <O>11       0.0639
  47 H23       4.4041     3.5620     3.0065  H       1  <O>11       0.0830
@<TRIPOS>BOND
     1     1     2    1
     2     2     3   ar
     3     3     4   ar
     4     4     5    1
     5     5     6   ar
     6     6     7   ar
     7     7     8   ar
     8     8     9   ar
     9     5     9   ar
    10     9    10    1
    11    10    11    1
    12    11    12    1
    13    12    13    1
    14    13    14   am
    15    14    15    2
    16    14    16    1
    17    16    17    1
    18    17    18    1
    19    18    19    1
    20    19    20    1
    21    16    20    1
    22    13    21    1
    23    10    21    1
    24     4    22   ar
    25    22    23   ar
    26    23    24   ar
    27     2    24   ar
    28     1    25    1
    29     1    26    1
    30     7    27    1
    31    10    28    1
    32    11    29    1
    33    11    30    1
    34    12    31    1
    35    12    32    1
    36    16    33    1
    37    17    34    1
    38    17    35    1
    39    18    36    1
    40    18    37    1
    41    19    38    1
    42    19    39    1
    43    20    40    1
    44    20    41    1
    45    21    42    1
    46    21    43    1
    47     3    44    1
    48     6    45    1
    49    22    46    1
    50    23    47    1
@<TRIPOS>MOLECULE
mol6_4_3
 47 50 0 0 0
SMALL
USER_CHARGES
****
VDW energy = -68.31
@<TRIPOS>ATOM
   1 N1        3.7120     4.1520     7.3415  N.pl3   1  <O>11      -0.3431
   2 C1        3.3329     4.3488     5.9653  C.ar    1  <O>11       0.1167
   3 C2        2.1864     5.0670     5.6766  C.ar    1  <O>11      -0.0143
   4 C3        1.8446     5.2530     4.3395  C.ar    1  <O>11      -0.0100
   5 C4        0.7410     5.9700     3.9760  C.ar    1  <O>11       0.0230
   6 C5        0.7647     7.2839     3.7528  C.ar    1  <O>11       0.0303
   7 N2       -0.5804     7.5327     3.5055  N.ar    1  <O>11      -0.2839
   8 N3       -1.3228     6.3839     3.4432  N.ar    1  <O>11      -0.1779
   9 C6       -0.4735     5.4182     3.8075  C.ar    1  <O>11       0.0751
  10 C7       -0.7111     3.9973     4.0153  C.3     1  <O>11       0.0208
  11 C8       -2.1662     3.6943     3.9005  C.3     1  <O>11      -0.0274
  12 C9       -2.1405     2.2149     3.5478  C.3     1  <O>11       0.0153
  13 N4       -0.9049     2.0401     2.8040  N.am    1  <O>11      -0.3006
  14 C10      -0.5294     0.9740     2.0484  C.2     1  <O>11       0.2187
  15 O1       -1.2731     0.0108     1.9391  O.2     1  <O>11      -0.2753
  16 C11       0.7922     0.9802     1.3537  C.3     1  <O>11       0.0358
  17 C12       1.8439     0.3946     2.2373  C.3     1  <O>11      -0.0419
  18 C13       2.8782    -0.1569     1.2554  C.3     1  <O>11      -0.0523
  19 C14       2.2172    -0.1441    -0.1223  C.3     1  <O>11      -0.0523
  20 C15       0.7411     0.1161     0.1396  C.3     1  <O>11      -0.0419
  21 C16      -0.0363     3.1992     2.9509  C.3     1  <O>11       0.0230
  22 C17       2.6639     4.6834     3.3579  C.ar    1  <O>11      -0.0356
  23 C18       3.8024     3.9729     3.7374  C.ar    1  <O>11       0.0302
  24 N5        4.1374     3.8086     5.0266  N.ar    1  <O>11      -0.2407
  25 H1        4.5551     3.6243     7.5678  H       1  <O>11       0.1437
  26 H2        3.1373     4.5403     8.0894  H       1  <O>11       0.1437
  27 H3       -0.9502     8.4649     3.3879  H       1  <O>11       0.1882
  28 H4       -0.3400     3.7090     4.9979  H       1  <O>11       0.0380
  29 H5       -2.6848     3.8694     4.8417  H       1  <O>11       0.0287
  30 H6       -2.6348     4.2834     3.1119  H       1  <O>11       0.0287
  31 H7       -2.1362     1.6039     4.4508  H       1  <O>11       0.0465
  32 H8       -3.0004     1.9498     2.9338  H       1  <O>11       0.0465
  33 H9        1.0527     2.0026     1.0782  H       1  <O>11       0.0394
  34 H10       2.2842     1.1607     2.8745  H       1  <O>11       0.0272
  35 H11       1.4322    -0.4003     2.8561  H       1  <O>11       0.0272
  36 H12       3.7681     0.4717     1.2517  H       1  <O>11       0.0265
  37 H13       3.1538    -1.1749     1.5315  H       1  <O>11       0.0265
  38 H14       2.6382     0.6482    -0.7414  H       1  <O>11       0.0265
  39 H15       2.3521    -1.1038    -0.6202  H       1  <O>11       0.0265
  40 H16       0.2746     0.6346    -0.6979  H       1  <O>11       0.0272
  41 H17       0.2032    -0.8122     0.3370  H       1  <O>11       0.0272
  42 H18       0.9653     2.9006     3.2630  H       1  <O>11       0.0471
  43 H19       0.0262     3.7612     2.0207  H       1  <O>11       0.0471
  44 H20       1.5999     5.4547     6.4321  H       1  <O>11       0.0658
  45 H21       1.5632     7.9376     3.7613  H       1  <O>11       0.0830
  46 H22       2.4268     4.7886     2.3590  H       1  <O>11       0.0639
  47 H23       4.4041     3.5620     3.0065  H       1  <O>11       0.0830
@<TRIPOS>BOND
     1     1     2    1
     2     2     3   ar
     3     3     4   ar
     4     4     5    1
     5     5     6   ar
     6     6     7   ar
     7     7     8   ar
     8     8     9   ar
     9     5     9   ar
    10     9    10    1
    11    10    11    1
    12    11    12    1
    13    12    13    1
    14    13    14   am
    15    14    15    2
    16    14    16    1
    17    16    17    1
    18    17    18    1
    19    18    19    1
    20    19    20    1
    21    16    20    1
    22    13    21    1
    23    10    21    1
    24     4    22   ar
    25    22    23   ar
    26    23    24   ar
    27     2    24   ar
    28     1    25    1
    29     1    26    1
    30     7    27    1
    31    10    28    1
    32    11    29    1
    33    11    30    1
    34    12    31    1
    35    12    32    1
    36    16    33    1
    37    17    34    1
    38    17    35    1
    39    18    36    1
    40    18    37    1
    41    19    38    1
    42    19    39    1
    43    20    40    1
    44    20    41    1
    45    21    42    1
    46    21    43    1
    47     3    44    1
    48     6    45    1
    49    22    46    1
    50    23    47    1
@<TRIPOS>MOLECULE
mol6_4_4
 47 50 0 0 0
SMALL
USER_CHARGES
****
VDW energy = -67.46
@<TRIPOS>ATOM
   1 N1        3.7120     4.1520     7.3415  N.pl3   1  <O>11      -0.3431
   2 C1        3.3329     4.3488     5.9653  C.ar    1  <O>11       0.1167
   3 C2        2.1864     5.0670     5.6766  C.ar    1  <O>11      -0.0143
   4 C3        1.8446     5.2530     4.3395  C.ar    1  <O>11      -0.0100
   5 C4        0.7410     5.9700     3.9760  C.ar    1  <O>11       0.0230
   6 C5       -0.4632     5.4231     3.8104  C.ar    1  <O>11       0.0303
   7 N2       -1.1934     6.5226     3.3741  N.ar    1  <O>11      -0.2839
   8 N3       -0.4726     7.6854     3.4293  N.ar    1  <O>11      -0.1779
   9 C6        0.7644     7.2957     3.7522  C.ar    1  <O>11       0.0751
  10 C7        1.9873     8.0764     3.8689  C.3     1  <O>11       0.0208
  11 C8        1.7488     9.4797     3.4259  C.3     1  <O>11      -0.0274
  12 C9        2.8609    10.2199     4.1533  C.3     1  <O>11       0.0153
  13 N4        3.0681     9.4574     5.3724  N.am    1  <O>11      -0.3006
  14 C10       3.7631     9.8279     6.4806  C.2     1  <O>11       0.2187
  15 O1        3.8448     9.0670     7.4329  O.2     1  <O>11      -0.2753
  16 C11       4.4249    11.1652     6.5338  C.3     1  <O>11       0.0358
  17 C12       5.1226    11.3456     7.8417  C.3     1  <O>11      -0.0419
  18 C13       6.2463    12.3319     7.5215  C.3     1  <O>11      -0.0523
  19 C14       6.3293    12.4139     5.9979  C.3     1  <O>11      -0.0523
  20 C15       5.4792    11.2615     5.4838  C.3     1  <O>11      -0.0419
  21 C16       2.4137     8.1591     5.2960  C.3     1  <O>11       0.0230
  22 C17       2.6639     4.6834     3.3579  C.ar    1  <O>11      -0.0356
  23 C18       3.8024     3.9729     3.7374  C.ar    1  <O>11       0.0302
  24 N5        4.1374     3.8086     5.0266  N.ar    1  <O>11      -0.2407
  25 H1        4.5551     3.6243     7.5678  H       1  <O>11       0.1437
  26 H2        3.1373     4.5403     8.0894  H       1  <O>11       0.1437
  27 H3       -2.1488     6.4514     3.0553  H       1  <O>11       0.1882
  28 H4        2.7688     7.6159     3.2659  H       1  <O>11       0.0380
  29 H5        1.8462     9.5783     2.3460  H       1  <O>11       0.0287
  30 H6        0.7656     9.8338     3.7363  H       1  <O>11       0.0287
  31 H7        3.7695    10.2378     3.5510  H       1  <O>11       0.0465
  32 H8        2.5580    11.2405     4.3843  H       1  <O>11       0.0465
  33 H9        3.6774    11.9462     6.3904  H       1  <O>11       0.0394
  34 H10       4.4448    11.7590     8.5876  H       1  <O>11       0.0272
  35 H11       5.5249    10.4003     8.2003  H       1  <O>11       0.0272
  36 H12       6.0189    13.3121     7.9393  H       1  <O>11       0.0265
  37 H13       7.1904    11.9725     7.9314  H       1  <O>11       0.0265
  38 H14       5.9329    13.3655     5.6437  H       1  <O>11       0.0265
  39 H15       7.3609    12.3042     5.6646  H       1  <O>11       0.0265
  40 H16       5.0492    11.4895     4.5086  H       1  <O>11       0.0272
  41 H17       6.0581    10.3392     5.4186  H       1  <O>11       0.0272
  42 H18       3.1087     7.3555     5.5427  H       1  <O>11       0.0471
  43 H19       1.5554     8.1141     5.9641  H       1  <O>11       0.0471
  44 H20       1.5999     5.4547     6.4321  H       1  <O>11       0.0658
  45 H21      -0.7697     4.4497     3.9640  H       1  <O>11       0.0830
  46 H22       2.4268     4.7886     2.3590  H       1  <O>11       0.0639
  47 H23       4.4041     3.5620     3.0065  H       1  <O>11       0.0830
@<TRIPOS>BOND
     1     1     2    1
     2     2     3   ar
     3     3     4   ar
     4     4     5    1
     5     5     6   ar
     6     6     7   ar
     7     7     8   ar
     8     8     9   ar
     9     5     9   ar
    10     9    10    1
    11    10    11    1
    12    11    12    1
    13    12    13    1
    14    13    14   am
    15    14    15    2
    16    14    16    1
    17    16    17    1
    18    17    18    1
    19    18    19    1
    20    19    20    1
    21    16    20    1
    22    13    21    1
    23    10    21    1
    24     4    22   ar
    25    22    23   ar
    26    23    24   ar
    27     2    24   ar
    28     1    25    1
    29     1    26    1
    30     7    27    1
    31    10    28    1
    32    11    29    1
    33    11    30    1
    34    12    31    1
    35    12    32    1
    36    16    33    1
    37    17    34    1
    38    17    35    1
    39    18    36    1
    40    18    37    1
    41    19    38    1
    42    19    39    1
    43    20    40    1
    44    20    41    1
    45    21    42    1
    46    21    43    1
    47     3    44    1
    48     6    45    1
    49    22    46    1
    50    23    47    1
@<TRIPOS>MOLECULE
mol6_4_5
 47 50 0 0 0
SMALL
USER_CHARGES
****
VDW energy = -67.42
@<TRIPOS>ATOM
   1 N1        3.7120     4.1520     7.3415  N.pl3   1  <O>11      -0.3431
   2 C1        3.3329     4.3488     5.9653  C.ar    1  <O>11       0.1167
   3 C2        2.1864     5.0670     5.6766  C.ar    1  <O>11      -0.0143
   4 C3        1.8446     5.2530     4.3395  C.ar    1  <O>11      -0.0100
   5 C4        0.7410     5.9700     3.9760  C.ar    1  <O>11       0.0230
   6 C5        0.7987     7.0659     3.2194  C.ar    1  <O>11       0.0303
   7 N2       -0.5370     7.4508     3.2121  N.ar    1  <O>11      -0.2839
   8 N3       -1.3506     6.5305     3.8169  N.ar    1  <O>11      -0.1779
   9 C6       -0.5083     5.6375     4.3457  C.ar    1  <O>11       0.0751
  10 C7       -0.7826     4.4797     5.1840  C.3     1  <O>11       0.0208
  11 C8       -2.2267     4.4384     5.5518  C.3     1  <O>11      -0.0274
  12 C9       -2.4178     2.9616     5.8626  C.3     1  <O>11       0.0153
  13 N4       -1.4696     2.2824     4.9964  N.am    1  <O>11      -0.3006
  14 C10      -1.4131     0.9572     4.6980  C.2     1  <O>11       0.2187
  15 O1       -0.5478     0.5374     3.9445  O.2     1  <O>11      -0.2753
  16 C11      -2.4092     0.0157     5.2901  C.3     1  <O>11       0.0358
  17 C12      -3.6034    -0.1004     4.4012  C.3     1  <O>11      -0.0419
  18 C13      -4.1562    -1.4911     4.7146  C.3     1  <O>11      -0.0523
  19 C14      -3.0778    -2.2143     5.5201  C.3     1  <O>11      -0.0523
  20 C15      -1.8294    -1.3545     5.3882  C.3     1  <O>11      -0.0419
  21 C16      -0.5102     3.2206     4.4319  C.3     1  <O>11       0.0230
  22 C17       2.6639     4.6834     3.3579  C.ar    1  <O>11      -0.0356
  23 C18       3.8024     3.9729     3.7374  C.ar    1  <O>11       0.0302
  24 N5        4.1374     3.8086     5.0266  N.ar    1  <O>11      -0.2407
  25 H1        4.5551     3.6243     7.5678  H       1  <O>11       0.1437
  26 H2        3.1373     4.5403     8.0894  H       1  <O>11       0.1437
  27 H3       -0.8528     8.3174     2.8014  H       1  <O>11       0.1882
  28 H4       -0.1644     4.5276     6.0795  H       1  <O>11       0.0380
  29 H5       -2.4336     5.0577     6.4230  H       1  <O>11       0.0287
  30 H6       -2.8584     4.7554     4.7218  H       1  <O>11       0.0287
  31 H7       -2.1972     2.7572     6.9106  H       1  <O>11       0.0465
  32 H8       -3.4368     2.6490     5.6381  H       1  <O>11       0.0465
  33 H9       -2.7033     0.3724     6.2778  H       1  <O>11       0.0394
  34 H10      -4.3366     0.6703     4.6360  H       1  <O>11       0.0272
  35 H11      -3.3167    -0.0224     3.3543  H       1  <O>11       0.0272
  36 H12      -5.0721    -1.4105     5.2992  H       1  <O>11       0.0265
  37 H13      -4.3619    -2.0313     3.7902  H       1  <O>11       0.0265
  38 H14      -3.3726    -2.2975     6.5662  H       1  <O>11       0.0265
  39 H15      -2.8994    -3.2093     5.1134  H       1  <O>11       0.0265
  40 H16      -1.1859    -1.4521     6.2624  H       1  <O>11       0.0272
  41 H17      -1.2642    -1.6101     4.4909  H       1  <O>11       0.0272
  42 H18       0.5130     2.8810     4.5974  H       1  <O>11       0.0471
  43 H19      -0.6788     3.3577     3.3653  H       1  <O>11       0.0471
  44 H20       1.5999     5.4547     6.4321  H       1  <O>11       0.0658
  45 H21       1.6124     7.5077     2.7638  H       1  <O>11       0.0830
  46 H22       2.4268     4.7886     2.3590  H       1  <O>11       0.0639
  47 H23       4.4041     3.5620     3.0065  H       1  <O>11       0.0830
@<TRIPOS>BOND
     1     1     2    1
     2     2     3   ar
     3     3     4   ar
     4     4     5    1
     5     5     6   ar
     6     6     7   ar
     7     7     8   ar
     8     8     9   ar
     9     5     9   ar
    10     9    10    1
    11    10    11    1
    12    11    12    1
    13    12    13    1
    14    13    14   am
    15    14    15    2
    16    14    16    1
    17    16    17    1
    18    17    18    1
    19    18    19    1
    20    19    20    1
    21    16    20    1
    22    13    21    1
    23    10    21    1
    24     4    22   ar
    25    22    23   ar
    26    23    24   ar
    27     2    24   ar
    28     1    25    1
    29     1    26    1
    30     7    27    1
    31    10    28    1
    32    11    29    1
    33    11    30    1
    34    12    31    1
    35    12    32    1
    36    16    33    1
    37    17    34    1
    38    17    35    1
    39    18    36    1
    40    18    37    1
    41    19    38    1
    42    19    39    1
    43    20    40    1
    44    20    41    1
    45    21    42    1
    46    21    43    1
    47     3    44    1
    48     6    45    1
    49    22    46    1
    50    23    47    1
@<TRIPOS>MOLECULE
mol6_4_6
 47 50 0 0 0
SMALL
USER_CHARGES
****
VDW energy = -67.21
@<TRIPOS>ATOM
   1 N1        3.7120     4.1520     7.3415  N.pl3   1  <O>11      -0.3431
   2 C1        3.3329     4.3488     5.9653  C.ar    1  <O>11       0.1167
   3 C2        2.1864     5.0670     5.6766  C.ar    1  <O>11      -0.0143
   4 C3        1.8446     5.2530     4.3395  C.ar    1  <O>11      -0.0100
   5 C4        0.7410     5.9700     3.9760  C.ar    1  <O>11       0.0230
   6 C5        0.7647     7.2839     3.7528  C.ar    1  <O>11       0.0303
   7 N2       -0.5804     7.5327     3.5055  N.ar    1  <O>11      -0.2839
   8 N3       -1.3228     6.3839     3.4432  N.ar    1  <O>11      -0.1779
   9 C6       -0.4735     5.4182     3.8075  C.ar    1  <O>11       0.0751
  10 C7       -0.7111     3.9973     4.0153  C.3     1  <O>11       0.0208
  11 C8       -2.1662     3.6943     3.9005  C.3     1  <O>11      -0.0274
  12 C9       -2.1405     2.2149     3.5478  C.3     1  <O>11       0.0153
  13 N4       -0.9049     2.0401     2.8040  N.am    1  <O>11      -0.3006
  14 C10      -0.5294     0.9740     2.0484  C.2     1  <O>11       0.2187
  15 O1        0.5516     0.9796     1.4790  O.2     1  <O>11      -0.2753
  16 C11      -1.4388    -0.2024     1.9137  C.3     1  <O>11       0.0358
  17 C12      -0.8150    -1.2414     1.0411  C.3     1  <O>11      -0.0419
  18 C13      -1.4455    -2.5481     1.5238  C.3     1  <O>11      -0.0523
  19 C14      -2.1456    -2.2292     2.8442  C.3     1  <O>11      -0.0523
  20 C15      -1.6493    -0.8469     3.2417  C.3     1  <O>11      -0.0419
  21 C16      -0.0363     3.1992     2.9509  C.3     1  <O>11       0.0230
  22 C17       2.6639     4.6834     3.3579  C.ar    1  <O>11      -0.0356
  23 C18       3.8024     3.9729     3.7374  C.ar    1  <O>11       0.0302
  24 N5        4.1374     3.8086     5.0266  N.ar    1  <O>11      -0.2407
  25 H1        4.5551     3.6243     7.5678  H       1  <O>11       0.1437
  26 H2        3.1373     4.5403     8.0894  H       1  <O>11       0.1437
  27 H3       -0.9502     8.4649     3.3879  H       1  <O>11       0.1882
  28 H4       -0.3400     3.7090     4.9979  H       1  <O>11       0.0380
  29 H5       -2.6848     3.8694     4.8417  H       1  <O>11       0.0287
  30 H6       -2.6348     4.2834     3.1119  H       1  <O>11       0.0287
  31 H7       -2.1362     1.6039     4.4508  H       1  <O>11       0.0465
  32 H8       -3.0004     1.9498     2.9338  H       1  <O>11       0.0465
  33 H9       -2.3927     0.1220     1.4965  H       1  <O>11       0.0394
  34 H10      -1.0526    -1.0600    -0.0064  H       1  <O>11       0.0272
  35 H11       0.2653    -1.2593     1.1709  H       1  <O>11       0.0272
  36 H12      -2.1675    -2.9115     0.7932  H       1  <O>11       0.0265
  37 H13      -0.6745    -3.3030     1.6789  H       1  <O>11       0.0265
  38 H14      -3.2275    -2.2204     2.7113  H       1  <O>11       0.0265
  39 H15      -1.8796    -2.9625     3.6049  H       1  <O>11       0.0265
  40 H16      -2.3945    -0.3113     3.8296  H       1  <O>11       0.0272
  41 H17      -0.7169    -0.9065     3.8047  H       1  <O>11       0.0272
  42 H18       0.9653     2.9006     3.2630  H       1  <O>11       0.0471
  43 H19       0.0262     3.7612     2.0207  H       1  <O>11       0.0471
  44 H20       1.5999     5.4547     6.4321  H       1  <O>11       0.0658
  45 H21       1.5632     7.9376     3.7613  H       1  <O>11       0.0830
  46 H22       2.4268     4.7886     2.3590  H       1  <O>11       0.0639
  47 H23       4.4041     3.5620     3.0065  H       1  <O>11       0.0830
@<TRIPOS>BOND
     1     1     2    1
     2     2     3   ar
     3     3     4   ar
     4     4     5    1
     5     5     6   ar
     6     6     7   ar
     7     7     8   ar
     8     8     9   ar
     9     5     9   ar
    10     9    10    1
    11    10    11    1
    12    11    12    1
    13    12    13    1
    14    13    14   am
    15    14    15    2
    16    14    16    1
    17    16    17    1
    18    17    18    1
    19    18    19    1
    20    19    20    1
    21    16    20    1
    22    13    21    1
    23    10    21    1
    24     4    22   ar
    25    22    23   ar
    26    23    24   ar
    27     2    24   ar
    28     1    25    1
    29     1    26    1
    30     7    27    1
    31    10    28    1
    32    11    29    1
    33    11    30    1
    34    12    31    1
    35    12    32    1
    36    16    33    1
    37    17    34    1
    38    17    35    1
    39    18    36    1
    40    18    37    1
    41    19    38    1
    42    19    39    1
    43    20    40    1
    44    20    41    1
    45    21    42    1
    46    21    43    1
    47     3    44    1
    48     6    45    1
    49    22    46    1
    50    23    47    1
@<TRIPOS>MOLECULE
mol6_4_7
 47 50 0 0 0
SMALL
USER_CHARGES
****
VDW energy = -65.69
@<TRIPOS>ATOM
   1 N1        3.7120     4.1520     7.3415  N.pl3   1  <O>11      -0.3431
   2 C1        3.3329     4.3488     5.9653  C.ar    1  <O>11       0.1167
   3 C2        2.1864     5.0670     5.6766  C.ar    1  <O>11      -0.0143
   4 C3        1.8446     5.2530     4.3395  C.ar    1  <O>11      -0.0100
   5 C4        0.7410     5.9700     3.9760  C.ar    1  <O>11       0.0230
   6 C5        0.7987     7.0659     3.2194  C.ar    1  <O>11       0.0303
   7 N2       -0.5370     7.4508     3.2121  N.ar    1  <O>11      -0.2839
   8 N3       -1.3506     6.5305     3.8169  N.ar    1  <O>11      -0.1779
   9 C6       -0.5083     5.6375     4.3457  C.ar    1  <O>11       0.0751
  10 C7       -0.7826     4.4797     5.1840  C.3     1  <O>11       0.0208
  11 C8       -2.2267     4.4384     5.5518  C.3     1  <O>11      -0.0274
  12 C9       -2.4178     2.9616     5.8626  C.3     1  <O>11       0.0153
  13 N4       -1.4696     2.2824     4.9964  N.am    1  <O>11      -0.3006
  14 C10      -1.4131     0.9572     4.6980  C.2     1  <O>11       0.2187
  15 O1       -2.2275     0.1866     5.1834  O.2     1  <O>11      -0.2753
  16 C11      -0.3548     0.4439     3.7783  C.3     1  <O>11       0.0358
  17 C12       0.8609     0.0559     4.5536  C.3     1  <O>11      -0.0419
  18 C13       1.5190    -1.0170     3.6854  C.3     1  <O>11      -0.0523
  19 C14       0.4882    -1.4108     2.6283  C.3     1  <O>11      -0.0523
  20 C15      -0.8232    -0.7945     3.0926  C.3     1  <O>11      -0.0419
  21 C16      -0.5102     3.2206     4.4319  C.3     1  <O>11       0.0230
  22 C17       2.6639     4.6834     3.3579  C.ar    1  <O>11      -0.0356
  23 C18       3.8024     3.9729     3.7374  C.ar    1  <O>11       0.0302
  24 N5        4.1374     3.8086     5.0266  N.ar    1  <O>11      -0.2407
  25 H1        4.5551     3.6243     7.5678  H       1  <O>11       0.1437
  26 H2        3.1373     4.5403     8.0894  H       1  <O>11       0.1437
  27 H3       -0.8528     8.3174     2.8014  H       1  <O>11       0.1882
  28 H4       -0.1644     4.5276     6.0795  H       1  <O>11       0.0380
  29 H5       -2.4336     5.0577     6.4230  H       1  <O>11       0.0287
  30 H6       -2.8584     4.7554     4.7218  H       1  <O>11       0.0287
  31 H7       -2.1972     2.7572     6.9106  H       1  <O>11       0.0465
  32 H8       -3.4368     2.6490     5.6381  H       1  <O>11       0.0465
  33 H9       -0.1087     1.2115     3.0438  H       1  <O>11       0.0394
  34 H10       1.5248     0.9096     4.6847  H       1  <O>11       0.0272
  35 H11       0.5881    -0.3452     5.5278  H       1  <O>11       0.0272
  36 H12       2.4144    -0.6200     3.2084  H       1  <O>11       0.0265
  37 H13       1.7846    -1.8822     4.2933  H       1  <O>11       0.0265
  38 H14       0.7697    -1.0140     1.6528  H       1  <O>11       0.0265
  39 H15       0.3985    -2.4950     2.5667  H       1  <O>11       0.0265
  40 H16      -1.4726    -0.5605     2.2492  H       1  <O>11       0.0272
  41 H17      -1.3493    -1.4545     3.7837  H       1  <O>11       0.0272
  42 H18       0.5130     2.8810     4.5974  H       1  <O>11       0.0471
  43 H19      -0.6788     3.3577     3.3653  H       1  <O>11       0.0471
  44 H20       1.5999     5.4547     6.4321  H       1  <O>11       0.0658
  45 H21       1.6124     7.5077     2.7638  H       1  <O>11       0.0830
  46 H22       2.4268     4.7886     2.3590  H       1  <O>11       0.0639
  47 H23       4.4041     3.5620     3.0065  H       1  <O>11       0.0830
@<TRIPOS>BOND
     1     1     2    1
     2     2     3   ar
     3     3     4   ar
     4     4     5    1
     5     5     6   ar
     6     6     7   ar
     7     7     8   ar
     8     8     9   ar
     9     5     9   ar
    10     9    10    1
    11    10    11    1
    12    11    12    1
    13    12    13    1
    14    13    14   am
    15    14    15    2
    16    14    16    1
    17    16    17    1
    18    17    18    1
    19    18    19    1
    20    19    20    1
    21    16    20    1
    22    13    21    1
    23    10    21    1
    24     4    22   ar
    25    22    23   ar
    26    23    24   ar
    27     2    24   ar
    28     1    25    1
    29     1    26    1
    30     7    27    1
    31    10    28    1
    32    11    29    1
    33    11    30    1
    34    12    31    1
    35    12    32    1
    36    16    33    1
    37    17    34    1
    38    17    35    1
    39    18    36    1
    40    18    37    1
    41    19    38    1
    42    19    39    1
    43    20    40    1
    44    20    41    1
    45    21    42    1
    46    21    43    1
    47     3    44    1
    48     6    45    1
    49    22    46    1
    50    23    47    1
@<TRIPOS>MOLECULE
mol6_4_8
 47 50 0 0 0
SMALL
USER_CHARGES
****
VDW energy = -64.83
@<TRIPOS>ATOM
   1 N1        3.7120     4.1520     7.3415  N.pl3   1  <O>11      -0.3431
   2 C1        3.3329     4.3488     5.9653  C.ar    1  <O>11       0.1167
   3 C2        2.1864     5.0670     5.6766  C.ar    1  <O>11      -0.0143
   4 C3        1.8446     5.2530     4.3395  C.ar    1  <O>11      -0.0100
   5 C4        0.7410     5.9700     3.9760  C.ar    1  <O>11       0.0230
   6 C5       -0.2647     5.4544     3.2693  C.ar    1  <O>11       0.0303
   7 N2       -1.0679     6.5760     3.0983  N.ar    1  <O>11      -0.2839
   8 N3       -0.6144     7.6576     3.8048  N.ar    1  <O>11      -0.1779
   9 C6        0.5638     7.2635     4.2978  C.ar    1  <O>11       0.0751
  10 C7        1.5542     8.0123     5.0573  C.3     1  <O>11       0.0208
  11 C8        2.5306     8.6602     4.1358  C.3     1  <O>11      -0.0274
  12 C9        3.0492     9.8012     4.9977  C.3     1  <O>11       0.0153
  13 N4        1.9285    10.1476     5.8547  N.am    1  <O>11      -0.3006
  14 C10       1.7791    11.2578     6.6252  C.2     1  <O>11       0.2187
  15 O1        0.7678    11.4047     7.2949  O.2     1  <O>11      -0.2753
  16 C11       2.8504    12.2975     6.6517  C.3     1  <O>11       0.0358
  17 C12       2.4639    13.4155     7.5629  C.3     1  <O>11      -0.0419
  18 C13       3.8043    13.9903     8.0222  C.3     1  <O>11      -0.0523
  19 C14       4.8733    12.9798     7.6084  C.3     1  <O>11      -0.0523
  20 C15       4.1108    11.7259     7.2065  C.3     1  <O>11      -0.0419
  21 C16       0.8985     9.1196     5.8116  C.3     1  <O>11       0.0230
  22 C17       2.6639     4.6834     3.3579  C.ar    1  <O>11      -0.0356
  23 C18       3.8024     3.9729     3.7374  C.ar    1  <O>11       0.0302
  24 N5        4.1374     3.8086     5.0266  N.ar    1  <O>11      -0.2407
  25 H1        4.5551     3.6243     7.5678  H       1  <O>11       0.1437
  26 H2        3.1373     4.5403     8.0894  H       1  <O>11       0.1437
  27 H3       -1.8908     6.5737     2.5133  H       1  <O>11       0.1882
  28 H4        2.0683     7.3395     5.7425  H       1  <O>11       0.0380
  29 H5        3.3310     7.9761     3.8587  H       1  <O>11       0.0287
  30 H6        2.0419     9.0322     3.2350  H       1  <O>11       0.0287
  31 H7        3.9033     9.4768     5.5927  H       1  <O>11       0.0465
  32 H8        3.3385    10.6506     4.3799  H       1  <O>11       0.0465
  33 H9        3.0186    12.6711     5.6410  H       1  <O>11       0.0394
  34 H10       1.8827    14.1663     7.0289  H       1  <O>11       0.0272
  35 H11       1.8888    13.0450     8.4092  H       1  <O>11       0.0272
  36 H12       3.9881    14.9506     7.5415  H       1  <O>11       0.0265
  37 H13       3.8071    14.1196     9.1047  H       1  <O>11       0.0265
  38 H14       5.4521    13.3584     6.7658  H       1  <O>11       0.0265
  39 H15       5.5423    12.7677     8.4418  H       1  <O>11       0.0265
  40 H16       4.6537    11.1552     6.4533  H       1  <O>11       0.0272
  41 H17       3.9103    11.0894     8.0695  H       1  <O>11       0.0272
  42 H18       0.6243     8.7980     6.8171  H       1  <O>11       0.0471
  43 H19       0.0117     9.4765     5.2906  H       1  <O>11       0.0471
  44 H20       1.5999     5.4547     6.4321  H       1  <O>11       0.0658
  45 H21      -0.4079     4.4871     2.9393  H       1  <O>11       0.0830
  46 H22       2.4268     4.7886     2.3590  H       1  <O>11       0.0639
  47 H23       4.4041     3.5620     3.0065  H       1  <O>11       0.0830
@<TRIPOS>BOND
     1     1     2    1
     2     2     3   ar
     3     3     4   ar
     4     4     5    1
     5     5     6   ar
     6     6     7   ar
     7     7     8   ar
     8     8     9   ar
     9     5     9   ar
    10     9    10    1
    11    10    11    1
    12    11    12    1
    13    12    13    1
    14    13    14   am
    15    14    15    2
    16    14    16    1
    17    16    17    1
    18    17    18    1
    19    18    19    1
    20    19    20    1
    21    16    20    1
    22    13    21    1
    23    10    21    1
    24     4    22   ar
    25    22    23   ar
    26    23    24   ar
    27     2    24   ar
    28     1    25    1
    29     1    26    1
    30     7    27    1
    31    10    28    1
    32    11    29    1
    33    11    30    1
    34    12    31    1
    35    12    32    1
    36    16    33    1
    37    17    34    1
    38    17    35    1
    39    18    36    1
    40    18    37    1
    41    19    38    1
    42    19    39    1
    43    20    40    1
    44    20    41    1
    45    21    42    1
    46    21    43    1
    47     3    44    1
    48     6    45    1
    49    22    46    1
    50    23    47    1
@<TRIPOS>MOLECULE
mol6_4_9
 47 50 0 0 0
SMALL
USER_CHARGES
****
VDW energy = -64.47
@<TRIPOS>ATOM
   1 N1        3.7120     4.1520     7.3415  N.pl3   1  <O>11      -0.3431
   2 C1        3.3329     4.3488     5.9653  C.ar    1  <O>11       0.1167
   3 C2        2.1864     5.0670     5.6766  C.ar    1  <O>11      -0.0143
   4 C3        1.8446     5.2530     4.3395  C.ar    1  <O>11      -0.0100
   5 C4        0.7410     5.9700     3.9760  C.ar    1  <O>11       0.0230
   6 C5        0.7987     7.0659     3.2194  C.ar    1  <O>11       0.0303
   7 N2       -0.5370     7.4508     3.2121  N.ar    1  <O>11      -0.2839
   8 N3       -1.3506     6.5305     3.8169  N.ar    1  <O>11      -0.1779
   9 C6       -0.5083     5.6375     4.3457  C.ar    1  <O>11       0.0751
  10 C7       -0.7826     4.4797     5.1840  C.3     1  <O>11       0.0208
  11 C8       -2.2267     4.4384     5.5518  C.3     1  <O>11      -0.0274
  12 C9       -2.4178     2.9616     5.8626  C.3     1  <O>11       0.0153
  13 N4       -1.4696     2.2824     4.9964  N.am    1  <O>11      -0.3006
  14 C10      -1.4131     0.9572     4.6980  C.2     1  <O>11       0.2187
  15 O1       -0.5478     0.5374     3.9445  O.2     1  <O>11      -0.2753
  16 C11      -2.4092     0.0157     5.2901  C.3     1  <O>11       0.0358
  17 C12      -2.1479    -1.3772     4.8196  C.3     1  <O>11      -0.0419
  18 C13      -2.7081    -2.2514     5.9421  C.3     1  <O>11      -0.0523
  19 C14      -2.9664    -1.3216     7.1269  C.3     1  <O>11      -0.0523
  20 C15      -2.2719    -0.0145     6.7745  C.3     1  <O>11      -0.0419
  21 C16      -0.5102     3.2206     4.4319  C.3     1  <O>11       0.0230
  22 C17       2.6639     4.6834     3.3579  C.ar    1  <O>11      -0.0356
  23 C18       3.8024     3.9729     3.7374  C.ar    1  <O>11       0.0302
  24 N5        4.1374     3.8086     5.0266  N.ar    1  <O>11      -0.2407
  25 H1        4.5551     3.6243     7.5678  H       1  <O>11       0.1437
  26 H2        3.1373     4.5403     8.0894  H       1  <O>11       0.1437
  27 H3       -0.8528     8.3174     2.8014  H       1  <O>11       0.1882
  28 H4       -0.1644     4.5276     6.0795  H       1  <O>11       0.0380
  29 H5       -2.4336     5.0577     6.4230  H       1  <O>11       0.0287
  30 H6       -2.8584     4.7554     4.7218  H       1  <O>11       0.0287
  31 H7       -2.1972     2.7572     6.9106  H       1  <O>11       0.0465
  32 H8       -3.4368     2.6490     5.6381  H       1  <O>11       0.0465
  33 H9       -3.4156     0.3292     5.0107  H       1  <O>11       0.0394
  34 H10      -2.6660    -1.5719     3.8813  H       1  <O>11       0.0272
  35 H11      -1.0814    -1.5486     4.6882  H       1  <O>11       0.0272
  36 H12      -3.6372    -2.7238     5.6249  H       1  <O>11       0.0265
  37 H13      -1.9853    -3.0198     6.2168  H       1  <O>11       0.0265
  38 H14      -4.0361    -1.1593     7.2599  H       1  <O>11       0.0265
  39 H15      -2.5470    -1.7412     8.0409  H       1  <O>11       0.0265
  40 H16      -2.7703     0.8373     7.2371  H       1  <O>11       0.0272
  41 H17      -1.2232    -0.0286     7.0746  H       1  <O>11       0.0272
  42 H18       0.5130     2.8810     4.5974  H       1  <O>11       0.0471
  43 H19      -0.6788     3.3577     3.3653  H       1  <O>11       0.0471
  44 H20       1.5999     5.4547     6.4321  H       1  <O>11       0.0658
  45 H21       1.6124     7.5077     2.7638  H       1  <O>11       0.0830
  46 H22       2.4268     4.7886     2.3590  H       1  <O>11       0.0639
  47 H23       4.4041     3.5620     3.0065  H       1  <O>11       0.0830
@<TRIPOS>BOND
     1     1     2    1
     2     2     3   ar
     3     3     4   ar
     4     4     5    1
     5     5     6   ar
     6     6     7   ar
     7     7     8   ar
     8     8     9   ar
     9     5     9   ar
    10     9    10    1
    11    10    11    1
    12    11    12    1
    13    12    13    1
    14    13    14   am
    15    14    15    2
    16    14    16    1
    17    16    17    1
    18    17    18    1
    19    18    19    1
    20    19    20    1
    21    16    20    1
    22    13    21    1
    23    10    21    1
    24     4    22   ar
    25    22    23   ar
    26    23    24   ar
    27     2    24   ar
    28     1    25    1
    29     1    26    1
    30     7    27    1
    31    10    28    1
    32    11    29    1
    33    11    30    1
    34    12    31    1
    35    12    32    1
    36    16    33    1
    37    17    34    1
    38    17    35    1
    39    18    36    1
    40    18    37    1
    41    19    38    1
    42    19    39    1
    43    20    40    1
    44    20    41    1
    45    21    42    1
    46    21    43    1
    47     3    44    1
    48     6    45    1
    49    22    46    1
    50    23    47    1
@<TRIPOS>MOLECULE
mol6_4_10
 47 50 0 0 0
SMALL
USER_CHARGES
****
VDW energy = -62.09
@<TRIPOS>ATOM
   1 N1        3.7120     4.1520     7.3415  N.pl3   1  <O>11      -0.3431
   2 C1        3.3329     4.3488     5.9653  C.ar    1  <O>11       0.1167
   3 C2        2.1864     5.0670     5.6766  C.ar    1  <O>11      -0.0143
   4 C3        1.8446     5.2530     4.3395  C.ar    1  <O>11      -0.0100
   5 C4        0.7410     5.9700     3.9760  C.ar    1  <O>11       0.0230
   6 C5       -0.4632     5.4231     3.8104  C.ar    1  <O>11       0.0303
   7 N2       -1.1934     6.5226     3.3741  N.ar    1  <O>11      -0.2839
   8 N3       -0.4726     7.6854     3.4293  N.ar    1  <O>11      -0.1779
   9 C6        0.7644     7.2957     3.7522  C.ar    1  <O>11       0.0751
  10 C7        1.9873     8.0764     3.8689  C.3     1  <O>11       0.0208
  11 C8        1.7488     9.4797     3.4259  C.3     1  <O>11      -0.0274
  12 C9        2.8609    10.2199     4.1533  C.3     1  <O>11       0.0153
  13 N4        3.0681     9.4574     5.3724  N.am    1  <O>11      -0.3006
  14 C10       3.7631     9.8279     6.4806  C.2     1  <O>11       0.2187
  15 O1        4.3056    10.9218     6.5236  O.2     1  <O>11      -0.2753
  16 C11       3.8642     8.8975     7.6438  C.3     1  <O>11       0.0358
  17 C12       4.6714     9.5195     8.7353  C.3     1  <O>11      -0.0419
  18 C13       4.1430     8.8507    10.0048  C.3     1  <O>11      -0.0523
  19 C14       2.8566     8.1270     9.6096  C.3     1  <O>11      -0.0523
  20 C15       2.5128     8.6427     8.2200  C.3     1  <O>11      -0.0419
  21 C16       2.4137     8.1591     5.2960  C.3     1  <O>11       0.0230
  22 C17       2.6639     4.6834     3.3579  C.ar    1  <O>11      -0.0356
  23 C18       3.8024     3.9729     3.7374  C.ar    1  <O>11       0.0302
  24 N5        4.1374     3.8086     5.0266  N.ar    1  <O>11      -0.2407
  25 H1        4.5551     3.6243     7.5678  H       1  <O>11       0.1437
  26 H2        3.1373     4.5403     8.0894  H       1  <O>11       0.1437
  27 H3       -2.1488     6.4514     3.0553  H       1  <O>11       0.1882
  28 H4        2.7688     7.6159     3.2659  H       1  <O>11       0.0380
  29 H5        1.8462     9.5783     2.3460  H       1  <O>11       0.0287
  30 H6        0.7656     9.8338     3.7363  H       1  <O>11       0.0287
  31 H7        3.7695    10.2378     3.5510  H       1  <O>11       0.0465
  32 H8        2.5580    11.2405     4.3843  H       1  <O>11       0.0465
  33 H9        4.3191     7.9605     7.3208  H       1  <O>11       0.0394
  34 H10       5.7318     9.3102     8.5994  H       1  <O>11       0.0272
  35 H11       4.5148    10.5959     8.7684  H       1  <O>11       0.0272
  36 H12       4.8730     8.1385    10.3882  H       1  <O>11       0.0265
  37 H13       3.9339     9.6020    10.7666  H       1  <O>11       0.0265
  38 H14       3.0158     7.0489     9.5856  H       1  <O>11       0.0265
  39 H15       2.0558     8.3598    10.3109  H       1  <O>11       0.0265
  40 H16       1.9689     7.8955     7.6424  H       1  <O>11       0.0272
  41 H17       1.9251     9.5604     8.2712  H       1  <O>11       0.0272
  42 H18       3.1087     7.3555     5.5427  H       1  <O>11       0.0471
  43 H19       1.5554     8.1141     5.9641  H       1  <O>11       0.0471
  44 H20       1.5999     5.4547     6.4321  H       1  <O>11       0.0658
  45 H21      -0.7697     4.4497     3.9640  H       1  <O>11       0.0830
  46 H22       2.4268     4.7886     2.3590  H       1  <O>11       0.0639
  47 H23       4.4041     3.5620     3.0065  H       1  <O>11       0.0830
@<TRIPOS>BOND
     1     1     2    1
     2     2     3   ar
     3     3     4   ar
     4     4     5    1
     5     5     6   ar
     6     6     7   ar
     7     7     8   ar
     8     8     9   ar
     9     5     9   ar
    10     9    10    1
    11    10    11    1
    12    11    12    1
    13    12    13    1
    14    13    14   am
    15    14    15    2
    16    14    16    1
    17    16    17    1
    18    17    18    1
    19    18    19    1
    20    19    20    1
    21    16    20    1
    22    13    21    1
    23    10    21    1
    24     4    22   ar
    25    22    23   ar
    26    23    24   ar
    27     2    24   ar
    28     1    25    1
    29     1    26    1
    30     7    27    1
    31    10    28    1
    32    11    29    1
    33    11    30    1
    34    12    31    1
    35    12    32    1
    36    16    33    1
    37    17    34    1
    38    17    35    1
    39    18    36    1
    40    18    37    1
    41    19    38    1
    42    19    39    1
    43    20    40    1
    44    20    41    1
    45    21    42    1
    46    21    43    1
    47     3    44    1
    48     6    45    1
    49    22    46    1
    50    23    47    1
@<TRIPOS>MOLECULE
mol6_4_11
 47 50 0 0 0
SMALL
USER_CHARGES
****
VDW energy = -61.48
@<TRIPOS>ATOM
   1 N1        3.7120     4.1520     7.3415  N.pl3   1  <O>11      -0.3431
   2 C1        3.3329     4.3488     5.9653  C.ar    1  <O>11       0.1167
   3 C2        2.1864     5.0670     5.6766  C.ar    1  <O>11      -0.0143
   4 C3        1.8446     5.2530     4.3395  C.ar    1  <O>11      -0.0100
   5 C4        0.7410     5.9700     3.9760  C.ar    1  <O>11       0.0230
   6 C5        0.7647     7.2839     3.7528  C.ar    1  <O>11       0.0303
   7 N2       -0.5804     7.5327     3.5055  N.ar    1  <O>11      -0.2839
   8 N3       -1.3228     6.3839     3.4432  N.ar    1  <O>11      -0.1779
   9 C6       -0.4735     5.4182     3.8075  C.ar    1  <O>11       0.0751
  10 C7       -0.7111     3.9973     4.0153  C.3     1  <O>11       0.0208
  11 C8       -2.1662     3.6943     3.9005  C.3     1  <O>11      -0.0274
  12 C9       -2.1405     2.2149     3.5478  C.3     1  <O>11       0.0153
  13 N4       -0.9049     2.0401     2.8040  N.am    1  <O>11      -0.3006
  14 C10      -0.5294     0.9740     2.0484  C.2     1  <O>11       0.2187
  15 O1       -1.2731     0.0108     1.9391  O.2     1  <O>11      -0.2753
  16 C11       0.7922     0.9802     1.3537  C.3     1  <O>11       0.0358
  17 C12       0.9814    -0.2892     0.5903  C.3     1  <O>11      -0.0419
  18 C13       1.9335     0.1044    -0.5396  C.3     1  <O>11      -0.0523
  19 C14       1.9833     1.6316    -0.5515  C.3     1  <O>11      -0.0523
  20 C15       0.8420     2.0807     0.3490  C.3     1  <O>11      -0.0419
  21 C16      -0.0363     3.1992     2.9509  C.3     1  <O>11       0.0230
  22 C17       2.6639     4.6834     3.3579  C.ar    1  <O>11      -0.0356
  23 C18       3.8024     3.9729     3.7374  C.ar    1  <O>11       0.0302
  24 N5        4.1374     3.8086     5.0266  N.ar    1  <O>11      -0.2407
  25 H1        4.5551     3.6243     7.5678  H       1  <O>11       0.1437
  26 H2        3.1373     4.5403     8.0894  H       1  <O>11       0.1437
  27 H3       -0.9502     8.4649     3.3879  H       1  <O>11       0.1882
  28 H4       -0.3400     3.7090     4.9979  H       1  <O>11       0.0380
  29 H5       -2.6848     3.8694     4.8417  H       1  <O>11       0.0287
  30 H6       -2.6348     4.2834     3.1119  H       1  <O>11       0.0287
  31 H7       -2.1362     1.6039     4.4508  H       1  <O>11       0.0465
  32 H8       -3.0004     1.9498     2.9338  H       1  <O>11       0.0465
  33 H9        1.5881     1.1043     2.0888  H       1  <O>11       0.0394
  34 H10       1.4257    -1.0576     1.2218  H       1  <O>11       0.0272
  35 H11       0.0338    -0.6481     0.1934  H       1  <O>11       0.0272
  36 H12       2.9270    -0.3032    -0.3554  H       1  <O>11       0.0265
  37 H13       1.5594    -0.2678    -1.4935  H       1  <O>11       0.0265
  38 H14       2.9371     1.9864    -0.1609  H       1  <O>11       0.0265
  39 H15       1.8420     2.0110    -1.5631  H       1  <O>11       0.0265
  40 H16       1.0611     3.0390     0.8197  H       1  <O>11       0.0272
  41 H17      -0.0952     2.1539    -0.2045  H       1  <O>11       0.0272
  42 H18       0.9653     2.9006     3.2630  H       1  <O>11       0.0471
  43 H19       0.0262     3.7612     2.0207  H       1  <O>11       0.0471
  44 H20       1.5999     5.4547     6.4321  H       1  <O>11       0.0658
  45 H21       1.5632     7.9376     3.7613  H       1  <O>11       0.0830
  46 H22       2.4268     4.7886     2.3590  H       1  <O>11       0.0639
  47 H23       4.4041     3.5620     3.0065  H       1  <O>11       0.0830
@<TRIPOS>BOND
     1     1     2    1
     2     2     3   ar
     3     3     4   ar
     4     4     5    1
     5     5     6   ar
     6     6     7   ar
     7     7     8   ar
     8     8     9   ar
     9     5     9   ar
    10     9    10    1
    11    10    11    1
    12    11    12    1
    13    12    13    1
    14    13    14   am
    15    14    15    2
    16    14    16    1
    17    16    17    1
    18    17    18    1
    19    18    19    1
    20    19    20    1
    21    16    20    1
    22    13    21    1
    23    10    21    1
    24     4    22   ar
    25    22    23   ar
    26    23    24   ar
    27     2    24   ar
    28     1    25    1
    29     1    26    1
    30     7    27    1
    31    10    28    1
    32    11    29    1
    33    11    30    1
    34    12    31    1
    35    12    32    1
    36    16    33    1
    37    17    34    1
    38    17    35    1
    39    18    36    1
    40    18    37    1
    41    19    38    1
    42    19    39    1
    43    20    40    1
    44    20    41    1
    45    21    42    1
    46    21    43    1
    47     3    44    1
    48     6    45    1
    49    22    46    1
    50    23    47    1
@<TRIPOS>MOLECULE
mol6_4_12
 47 50 0 0 0
SMALL
USER_CHARGES
****
VDW energy = -58.82
@<TRIPOS>ATOM
   1 N1        3.7120     4.1520     7.3415  N.pl3   1  <O>11      -0.3431
   2 C1        3.3329     4.3488     5.9653  C.ar    1  <O>11       0.1167
   3 C2        2.1864     5.0670     5.6766  C.ar    1  <O>11      -0.0143
   4 C3        1.8446     5.2530     4.3395  C.ar    1  <O>11      -0.0100
   5 C4        0.7410     5.9700     3.9760  C.ar    1  <O>11       0.0230
   6 C5        0.7987     7.0659     3.2194  C.ar    1  <O>11       0.0303
   7 N2       -0.5370     7.4508     3.2121  N.ar    1  <O>11      -0.2839
   8 N3       -1.3506     6.5305     3.8169  N.ar    1  <O>11      -0.1779
   9 C6       -0.5083     5.6375     4.3457  C.ar    1  <O>11       0.0751
  10 C7       -0.7826     4.4797     5.1840  C.3     1  <O>11       0.0208
  11 C8       -2.2267     4.4384     5.5518  C.3     1  <O>11      -0.0274
  12 C9       -2.4178     2.9616     5.8626  C.3     1  <O>11       0.0153
  13 N4       -1.4696     2.2824     4.9964  N.am    1  <O>11      -0.3006
  14 C10      -1.4131     0.9572     4.6980  C.2     1  <O>11       0.2187
  15 O1       -2.2275     0.1866     5.1834  O.2     1  <O>11      -0.2753
  16 C11      -0.3548     0.4439     3.7783  C.3     1  <O>11       0.0358
  17 C12      -0.4937    -1.0324     3.6024  C.3     1  <O>11      -0.0419
  18 C13       0.1150    -1.2934     2.2242  C.3     1  <O>11      -0.0523
  19 C14       0.2755     0.0715     1.5563  C.3     1  <O>11      -0.0523
  20 C15      -0.5161     1.0409     2.4215  C.3     1  <O>11      -0.0419
  21 C16      -0.5102     3.2206     4.4319  C.3     1  <O>11       0.0230
  22 C17       2.6639     4.6834     3.3579  C.ar    1  <O>11      -0.0356
  23 C18       3.8024     3.9729     3.7374  C.ar    1  <O>11       0.0302
  24 N5        4.1374     3.8086     5.0266  N.ar    1  <O>11      -0.2407
  25 H1        4.5551     3.6243     7.5678  H       1  <O>11       0.1437
  26 H2        3.1373     4.5403     8.0894  H       1  <O>11       0.1437
  27 H3       -0.8528     8.3174     2.8014  H       1  <O>11       0.1882
  28 H4       -0.1644     4.5276     6.0795  H       1  <O>11       0.0380
  29 H5       -2.4336     5.0577     6.4230  H       1  <O>11       0.0287
  30 H6       -2.8584     4.7554     4.7218  H       1  <O>11       0.0287
  31 H7       -2.1972     2.7572     6.9106  H       1  <O>11       0.0465
  32 H8       -3.4368     2.6490     5.6381  H       1  <O>11       0.0465
  33 H9        0.6278     0.6881     4.1833  H       1  <O>11       0.0394
  34 H10       0.0555    -1.5674     4.3764  H       1  <O>11       0.0272
  35 H11      -1.5403    -1.3294     3.6282  H       1  <O>11       0.0272
  36 H12       1.0850    -1.7792     2.3256  H       1  <O>11       0.0265
  37 H13      -0.5480    -1.9261     1.6339  H       1  <O>11       0.0265
  38 H14       1.3259     0.3613     1.5253  H       1  <O>11       0.0265
  39 H15      -0.1251     0.0511     0.5433  H       1  <O>11       0.0265
  40 H16      -0.0970     2.0460     2.3772  H       1  <O>11       0.0272
  41 H17      -1.5655     1.0718     2.1251  H       1  <O>11       0.0272
  42 H18       0.5130     2.8810     4.5974  H       1  <O>11       0.0471
  43 H19      -0.6788     3.3577     3.3653  H       1  <O>11       0.0471
  44 H20       1.5999     5.4547     6.4321  H       1  <O>11       0.0658
  45 H21       1.6124     7.5077     2.7638  H       1  <O>11       0.0830
  46 H22       2.4268     4.7886     2.3590  H       1  <O>11       0.0639
  47 H23       4.4041     3.5620     3.0065  H       1  <O>11       0.0830
@<TRIPOS>BOND
     1     1     2    1
     2     2     3   ar
     3     3     4   ar
     4     4     5    1
     5     5     6   ar
     6     6     7   ar
     7     7     8   ar
     8     8     9   ar
     9     5     9   ar
    10     9    10    1
    11    10    11    1
    12    11    12    1
    13    12    13    1
    14    13    14   am
    15    14    15    2
    16    14    16    1
    17    16    17    1
    18    17    18    1
    19    18    19    1
    20    19    20    1
    21    16    20    1
    22    13    21    1
    23    10    21    1
    24     4    22   ar
    25    22    23   ar
    26    23    24   ar
    27     2    24   ar
    28     1    25    1
    29     1    26    1
    30     7    27    1
    31    10    28    1
    32    11    29    1
    33    11    30    1
    34    12    31    1
    35    12    32    1
    36    16    33    1
    37    17    34    1
    38    17    35    1
    39    18    36    1
    40    18    37    1
    41    19    38    1
    42    19    39    1
    43    20    40    1
    44    20    41    1
    45    21    42    1
    46    21    43    1
    47     3    44    1
    48     6    45    1
    49    22    46    1
    50    23    47    1
@<TRIPOS>MOLECULE
mol6_4_13
 47 50 0 0 0
SMALL
USER_CHARGES
****
VDW energy = -58.43
@<TRIPOS>ATOM
   1 N1        3.7120     4.1520     7.3415  N.pl3   1  <O>11      -0.3431
   2 C1        3.3329     4.3488     5.9653  C.ar    1  <O>11       0.1167
   3 C2        2.1864     5.0670     5.6766  C.ar    1  <O>11      -0.0143
   4 C3        1.8446     5.2530     4.3395  C.ar    1  <O>11      -0.0100
   5 C4        0.7410     5.9700     3.9760  C.ar    1  <O>11       0.0230
   6 C5        0.7987     7.0659     3.2194  C.ar    1  <O>11       0.0303
   7 N2       -0.5370     7.4508     3.2121  N.ar    1  <O>11      -0.2839
   8 N3       -1.3506     6.5305     3.8169  N.ar    1  <O>11      -0.1779
   9 C6       -0.5083     5.6375     4.3457  C.ar    1  <O>11       0.0751
  10 C7       -0.7826     4.4797     5.1840  C.3     1  <O>11       0.0208
  11 C8       -0.7542     4.8656     6.6236  C.3     1  <O>11      -0.0274
  12 C9       -1.6086     3.7723     7.2470  C.3     1  <O>11       0.0153
  13 N4       -2.5601     3.4179     6.2080  N.am    1  <O>11      -0.3006
  14 C10      -3.6963     2.6818     6.3328  C.2     1  <O>11       0.2187
  15 O1       -4.3976     2.4706     5.3549  O.2     1  <O>11      -0.2753
  16 C11      -4.0873     2.1329     7.6651  C.3     1  <O>11       0.0358
  17 C12      -4.9496     3.1098     8.3944  C.3     1  <O>11      -0.0419
  18 C13      -5.7909     2.2314     9.3210  C.3     1  <O>11      -0.0523
  19 C14      -5.5956     0.7916     8.8479  C.3     1  <O>11      -0.0523
  20 C15      -4.9085     0.9001     7.4947  C.3     1  <O>11      -0.0419
  21 C16      -2.1573     3.9643     4.9200  C.3     1  <O>11       0.0230
  22 C17       2.6639     4.6834     3.3579  C.ar    1  <O>11      -0.0356
  23 C18       3.8024     3.9729     3.7374  C.ar    1  <O>11       0.0302
  24 N5        4.1374     3.8086     5.0266  N.ar    1  <O>11      -0.2407
  25 H1        4.5551     3.6243     7.5678  H       1  <O>11       0.1437
  26 H2        3.1373     4.5403     8.0894  H       1  <O>11       0.1437
  27 H3       -0.8528     8.3174     2.8014  H       1  <O>11       0.1882
  28 H4       -0.0428     3.7057     4.9841  H       1  <O>11       0.0380
  29 H5        0.2599     4.8516     7.0197  H       1  <O>11       0.0287
  30 H6       -1.1925     5.8514     6.7806  H       1  <O>11       0.0287
  31 H7       -0.9958     2.9122     7.5178  H       1  <O>11       0.0465
  32 H8       -2.1248     4.1435     8.1316  H       1  <O>11       0.0465
  33 H9       -3.1900     1.9112     8.2439  H       1  <O>11       0.0394
  34 H10      -4.3421     3.8085     8.9685  H       1  <O>11       0.0272
  35 H11      -5.5817     3.6619     7.7017  H       1  <O>11       0.0272
  36 H12      -5.4535     2.3379    10.3515  H       1  <O>11       0.0265
  37 H13      -6.8423     2.5112     9.2524  H       1  <O>11       0.0265
  38 H14      -4.9688     0.2401     9.5487  H       1  <O>11       0.0265
  39 H15      -6.5568     0.2883     8.7475  H       1  <O>11       0.0265
  40 H16      -4.2828     0.0301     7.2961  H       1  <O>11       0.0272
  41 H17      -5.6345     1.0167     6.6889  H       1  <O>11       0.0272
  42 H18      -2.1426     3.1886     4.1533  H       1  <O>11       0.0471
  43 H19      -2.8236     4.7675     4.6106  H       1  <O>11       0.0471
  44 H20       1.5999     5.4547     6.4321  H       1  <O>11       0.0658
  45 H21       1.6124     7.5077     2.7638  H       1  <O>11       0.0830
  46 H22       2.4268     4.7886     2.3590  H       1  <O>11       0.0639
  47 H23       4.4041     3.5620     3.0065  H       1  <O>11       0.0830
@<TRIPOS>BOND
     1     1     2    1
     2     2     3   ar
     3     3     4   ar
     4     4     5    1
     5     5     6   ar
     6     6     7   ar
     7     7     8   ar
     8     8     9   ar
     9     5     9   ar
    10     9    10    1
    11    10    11    1
    12    11    12    1
    13    12    13    1
    14    13    14   am
    15    14    15    2
    16    14    16    1
    17    16    17    1
    18    17    18    1
    19    18    19    1
    20    19    20    1
    21    16    20    1
    22    13    21    1
    23    10    21    1
    24     4    22   ar
    25    22    23   ar
    26    23    24   ar
    27     2    24   ar
    28     1    25    1
    29     1    26    1
    30     7    27    1
    31    10    28    1
    32    11    29    1
    33    11    30    1
    34    12    31    1
    35    12    32    1
    36    16    33    1
    37    17    34    1
    38    17    35    1
    39    18    36    1
    40    18    37    1
    41    19    38    1
    42    19    39    1
    43    20    40    1
    44    20    41    1
    45    21    42    1
    46    21    43    1
    47     3    44    1
    48     6    45    1
    49    22    46    1
    50    23    47    1
@<TRIPOS>MOLECULE
mol6_4_14
 47 50 0 0 0
SMALL
USER_CHARGES
****
VDW energy = -58.13
@<TRIPOS>ATOM
   1 N1        3.7120     4.1520     7.3415  N.pl3   1  <O>11      -0.3431
   2 C1        3.3329     4.3488     5.9653  C.ar    1  <O>11       0.1167
   3 C2        2.1864     5.0670     5.6766  C.ar    1  <O>11      -0.0143
   4 C3        1.8446     5.2530     4.3395  C.ar    1  <O>11      -0.0100
   5 C4        0.7410     5.9700     3.9760  C.ar    1  <O>11       0.0230
   6 C5       -0.2647     5.4544     3.2693  C.ar    1  <O>11       0.0303
   7 N2       -1.0679     6.5760     3.0983  N.ar    1  <O>11      -0.2839
   8 N3       -0.6144     7.6576     3.8048  N.ar    1  <O>11      -0.1779
   9 C6        0.5638     7.2635     4.2978  C.ar    1  <O>11       0.0751
  10 C7        1.5542     8.0123     5.0573  C.3     1  <O>11       0.0208
  11 C8        2.5306     8.6602     4.1358  C.3     1  <O>11      -0.0274
  12 C9        3.0492     9.8012     4.9977  C.3     1  <O>11       0.0153
  13 N4        1.9285    10.1476     5.8547  N.am    1  <O>11      -0.3006
  14 C10       1.7791    11.2578     6.6252  C.2     1  <O>11       0.2187
  15 O1        2.6562    12.1080     6.6477  O.2     1  <O>11      -0.2753
  16 C11       0.5439    11.4367     7.4447  C.3     1  <O>11       0.0358
  17 C12       0.6070    12.7223     8.2017  C.3     1  <O>11      -0.0419
  18 C13      -0.8614    13.0985     8.4026  C.3     1  <O>11      -0.0523
  19 C14      -1.6717    12.1868     7.4822  C.3     1  <O>11      -0.0523
  20 C15      -0.6526    11.5336     6.5603  C.3     1  <O>11      -0.0419
  21 C16       0.8985     9.1196     5.8116  C.3     1  <O>11       0.0230
  22 C17       2.6639     4.6834     3.3579  C.ar    1  <O>11      -0.0356
  23 C18       3.8024     3.9729     3.7374  C.ar    1  <O>11       0.0302
  24 N5        4.1374     3.8086     5.0266  N.ar    1  <O>11      -0.2407
  25 H1        4.5551     3.6243     7.5678  H       1  <O>11       0.1437
  26 H2        3.1373     4.5403     8.0894  H       1  <O>11       0.1437
  27 H3       -1.8908     6.5737     2.5133  H       1  <O>11       0.1882
  28 H4        2.0683     7.3395     5.7425  H       1  <O>11       0.0380
  29 H5        3.3310     7.9761     3.8587  H       1  <O>11       0.0287
  30 H6        2.0419     9.0322     3.2350  H       1  <O>11       0.0287
  31 H7        3.9033     9.4768     5.5927  H       1  <O>11       0.0465
  32 H8        3.3385    10.6506     4.3799  H       1  <O>11       0.0465
  33 H9        0.4386    10.5958     8.1309  H       1  <O>11       0.0394
  34 H10       1.1060    12.5826     9.1600  H       1  <O>11       0.0272
  35 H11       1.1293    13.4852     7.6278  H       1  <O>11       0.0272
  36 H12      -1.1531    12.9409     9.4404  H       1  <O>11       0.0265
  37 H13      -1.0221    14.1430     8.1349  H       1  <O>11       0.0265
  38 H14      -2.1996    11.4294     8.0618  H       1  <O>11       0.0265
  39 H15      -2.3903    12.7675     6.9046  H       1  <O>11       0.0265
  40 H16      -0.9863    10.5487     6.2338  H       1  <O>11       0.0272
  41 H17      -0.4502    12.1561     5.6876  H       1  <O>11       0.0272
  42 H18       0.6243     8.7980     6.8171  H       1  <O>11       0.0471
  43 H19       0.0117     9.4765     5.2906  H       1  <O>11       0.0471
  44 H20       1.5999     5.4547     6.4321  H       1  <O>11       0.0658
  45 H21      -0.4079     4.4871     2.9393  H       1  <O>11       0.0830
  46 H22       2.4268     4.7886     2.3590  H       1  <O>11       0.0639
  47 H23       4.4041     3.5620     3.0065  H       1  <O>11       0.0830
@<TRIPOS>BOND
     1     1     2    1
     2     2     3   ar
     3     3     4   ar
     4     4     5    1
     5     5     6   ar
     6     6     7   ar
     7     7     8   ar
     8     8     9   ar
     9     5     9   ar
    10     9    10    1
    11    10    11    1
    12    11    12    1
    13    12    13    1
    14    13    14   am
    15    14    15    2
    16    14    16    1
    17    16    17    1
    18    17    18    1
    19    18    19    1
    20    19    20    1
    21    16    20    1
    22    13    21    1
    23    10    21    1
    24     4    22   ar
    25    22    23   ar
    26    23    24   ar
    27     2    24   ar
    28     1    25    1
    29     1    26    1
    30     7    27    1
    31    10    28    1
    32    11    29    1
    33    11    30    1
    34    12    31    1
    35    12    32    1
    36    16    33    1
    37    17    34    1
    38    17    35    1
    39    18    36    1
    40    18    37    1
    41    19    38    1
    42    19    39    1
    43    20    40    1
    44    20    41    1
    45    21    42    1
    46    21    43    1
    47     3    44    1
    48     6    45    1
    49    22    46    1
    50    23    47    1
@<TRIPOS>MOLECULE
mol6_4_15
 47 50 0 0 0
SMALL
USER_CHARGES
****
VDW energy = -55.70
@<TRIPOS>ATOM
   1 N1        3.7120     4.1520     7.3415  N.pl3   1  <O>11      -0.3431
   2 C1        3.3329     4.3488     5.9653  C.ar    1  <O>11       0.1167
   3 C2        2.1864     5.0670     5.6766  C.ar    1  <O>11      -0.0143
   4 C3        1.8446     5.2530     4.3395  C.ar    1  <O>11      -0.0100
   5 C4        0.7410     5.9700     3.9760  C.ar    1  <O>11       0.0230
   6 C5        0.7987     7.0659     3.2194  C.ar    1  <O>11       0.0303
   7 N2       -0.5370     7.4508     3.2121  N.ar    1  <O>11      -0.2839
   8 N3       -1.3506     6.5305     3.8169  N.ar    1  <O>11      -0.1779
   9 C6       -0.5083     5.6375     4.3457  C.ar    1  <O>11       0.0751
  10 C7       -0.7826     4.4797     5.1840  C.3     1  <O>11       0.0208
  11 C8       -0.7542     4.8656     6.6236  C.3     1  <O>11      -0.0274
  12 C9       -1.6086     3.7723     7.2470  C.3     1  <O>11       0.0153
  13 N4       -2.5601     3.4179     6.2080  N.am    1  <O>11      -0.3006
  14 C10      -3.6963     2.6818     6.3328  C.2     1  <O>11       0.2187
  15 O1       -4.0156     2.2317     7.4228  O.2     1  <O>11      -0.2753
  16 C11      -4.5526     2.4226     5.1375  C.3     1  <O>11       0.0358
  17 C12      -4.1226     1.1656     4.4557  C.3     1  <O>11      -0.0419
  18 C13      -5.3935     0.6754     3.7611  C.3     1  <O>11      -0.0523
  19 C14      -6.5464     1.4947     4.3395  C.3     1  <O>11      -0.0523
  20 C15      -5.9680     2.2062     5.5536  C.3     1  <O>11      -0.0419
  21 C16      -2.1573     3.9643     4.9200  C.3     1  <O>11       0.0230
  22 C17       2.6639     4.6834     3.3579  C.ar    1  <O>11      -0.0356
  23 C18       3.8024     3.9729     3.7374  C.ar    1  <O>11       0.0302
  24 N5        4.1374     3.8086     5.0266  N.ar    1  <O>11      -0.2407
  25 H1        4.5551     3.6243     7.5678  H       1  <O>11       0.1437
  26 H2        3.1373     4.5403     8.0894  H       1  <O>11       0.1437
  27 H3       -0.8528     8.3174     2.8014  H       1  <O>11       0.1882
  28 H4       -0.0428     3.7057     4.9841  H       1  <O>11       0.0380
  29 H5        0.2599     4.8516     7.0197  H       1  <O>11       0.0287
  30 H6       -1.1925     5.8514     6.7806  H       1  <O>11       0.0287
  31 H7       -0.9958     2.9122     7.5178  H       1  <O>11       0.0465
  32 H8       -2.1248     4.1435     8.1316  H       1  <O>11       0.0465
  33 H9       -4.4860     3.2688     4.4528  H       1  <O>11       0.0394
  34 H10      -3.3373     1.3693     3.7286  H       1  <O>11       0.0272
  35 H11      -3.7674     0.4340     5.1788  H       1  <O>11       0.0272
  36 H12      -5.3213     0.8343     2.6856  H       1  <O>11       0.0265
  37 H13      -5.5469    -0.3850     3.9620  H       1  <O>11       0.0265
  38 H14      -6.9043     2.2204     3.6091  H       1  <O>11       0.0265
  39 H15      -7.3678     0.8430     4.6357  H       1  <O>11       0.0265
  40 H16      -6.4766     3.1521     5.7393  H       1  <O>11       0.0272
  41 H17      -6.0269     1.5810     6.4457  H       1  <O>11       0.0272
  42 H18      -2.1426     3.1886     4.1533  H       1  <O>11       0.0471
  43 H19      -2.8236     4.7675     4.6106  H       1  <O>11       0.0471
  44 H20       1.5999     5.4547     6.4321  H       1  <O>11       0.0658
  45 H21       1.6124     7.5077     2.7638  H       1  <O>11       0.0830
  46 H22       2.4268     4.7886     2.3590  H       1  <O>11       0.0639
  47 H23       4.4041     3.5620     3.0065  H       1  <O>11       0.0830
@<TRIPOS>BOND
     1     1     2    1
     2     2     3   ar
     3     3     4   ar
     4     4     5    1
     5     5     6   ar
     6     6     7   ar
     7     7     8   ar
     8     8     9   ar
     9     5     9   ar
    10     9    10    1
    11    10    11    1
    12    11    12    1
    13    12    13    1
    14    13    14   am
    15    14    15    2
    16    14    16    1
    17    16    17    1
    18    17    18    1
    19    18    19    1
    20    19    20    1
    21    16    20    1
    22    13    21    1
    23    10    21    1
    24     4    22   ar
    25    22    23   ar
    26    23    24   ar
    27     2    24   ar
    28     1    25    1
    29     1    26    1
    30     7    27    1
    31    10    28    1
    32    11    29    1
    33    11    30    1
    34    12    31    1
    35    12    32    1
    36    16    33    1
    37    17    34    1
    38    17    35    1
    39    18    36    1
    40    18    37    1
    41    19    38    1
    42    19    39    1
    43    20    40    1
    44    20    41    1
    45    21    42    1
    46    21    43    1
    47     3    44    1
    48     6    45    1
    49    22    46    1
    50    23    47    1
@<TRIPOS>MOLECULE
mol6_4_16
 47 50 0 0 0
SMALL
USER_CHARGES
****
VDW energy = -55.49
@<TRIPOS>ATOM
   1 N1        3.7120     4.1520     7.3415  N.pl3   1  <O>11      -0.3431
   2 C1        3.3329     4.3488     5.9653  C.ar    1  <O>11       0.1167
   3 C2        2.1864     5.0670     5.6766  C.ar    1  <O>11      -0.0143
   4 C3        1.8446     5.2530     4.3395  C.ar    1  <O>11      -0.0100
   5 C4        0.7410     5.9700     3.9760  C.ar    1  <O>11       0.0230
   6 C5        0.7987     7.0659     3.2194  C.ar    1  <O>11       0.0303
   7 N2       -0.5370     7.4508     3.2121  N.ar    1  <O>11      -0.2839
   8 N3       -1.3506     6.5305     3.8169  N.ar    1  <O>11      -0.1779
   9 C6       -0.5083     5.6375     4.3457  C.ar    1  <O>11       0.0751
  10 C7       -0.7826     4.4797     5.1840  C.3     1  <O>11       0.0208
  11 C8       -0.7542     4.8656     6.6236  C.3     1  <O>11      -0.0274
  12 C9       -1.6086     3.7723     7.2470  C.3     1  <O>11       0.0153
  13 N4       -2.5601     3.4179     6.2080  N.am    1  <O>11      -0.3006
  14 C10      -3.6963     2.6818     6.3328  C.2     1  <O>11       0.2187
  15 O1       -4.3976     2.4706     5.3549  O.2     1  <O>11      -0.2753
  16 C11      -4.0873     2.1329     7.6651  C.3     1  <O>11       0.0358
  17 C12      -5.3627     1.3643     7.5541  C.3     1  <O>11      -0.0419
  18 C13      -5.2784     0.3525     8.6973  C.3     1  <O>11      -0.0523
  19 C14      -3.8343     0.3821     9.1960  C.3     1  <O>11      -0.0523
  20 C15      -3.0598     1.1656     8.1465  C.3     1  <O>11      -0.0419
  21 C16      -2.1573     3.9643     4.9200  C.3     1  <O>11       0.0230
  22 C17       2.6639     4.6834     3.3579  C.ar    1  <O>11      -0.0356
  23 C18       3.8024     3.9729     3.7374  C.ar    1  <O>11       0.0302
  24 N5        4.1374     3.8086     5.0266  N.ar    1  <O>11      -0.2407
  25 H1        4.5551     3.6243     7.5678  H       1  <O>11       0.1437
  26 H2        3.1373     4.5403     8.0894  H       1  <O>11       0.1437
  27 H3       -0.8528     8.3174     2.8014  H       1  <O>11       0.1882
  28 H4       -0.0428     3.7057     4.9841  H       1  <O>11       0.0380
  29 H5        0.2599     4.8516     7.0197  H       1  <O>11       0.0287
  30 H6       -1.1925     5.8514     6.7806  H       1  <O>11       0.0287
  31 H7       -0.9958     2.9122     7.5178  H       1  <O>11       0.0465
  32 H8       -2.1248     4.1435     8.1316  H       1  <O>11       0.0465
  33 H9       -4.1972     2.9517     8.3770  H       1  <O>11       0.0394
  34 H10      -6.2224     2.0214     7.6805  H       1  <O>11       0.0272
  35 H11      -5.4292     0.8600     6.5921  H       1  <O>11       0.0272
  36 H12      -5.9596     0.6323     9.5003  H       1  <O>11       0.0265
  37 H13      -5.5321    -0.6445     8.3368  H       1  <O>11       0.0265
  38 H14      -3.7736     0.8808    10.1634  H       1  <O>11       0.0265
  39 H15      -3.4393    -0.6296     9.2841  H       1  <O>11       0.0265
  40 H16      -2.2048     1.6795     8.5855  H       1  <O>11       0.0272
  41 H17      -2.7180     0.5168     7.3388  H       1  <O>11       0.0272
  42 H18      -2.1426     3.1886     4.1533  H       1  <O>11       0.0471
  43 H19      -2.8236     4.7675     4.6106  H       1  <O>11       0.0471
  44 H20       1.5999     5.4547     6.4321  H       1  <O>11       0.0658
  45 H21       1.6124     7.5077     2.7638  H       1  <O>11       0.0830
  46 H22       2.4268     4.7886     2.3590  H       1  <O>11       0.0639
  47 H23       4.4041     3.5620     3.0065  H       1  <O>11       0.0830
@<TRIPOS>BOND
     1     1     2    1
     2     2     3   ar
     3     3     4   ar
     4     4     5    1
     5     5     6   ar
     6     6     7   ar
     7     7     8   ar
     8     8     9   ar
     9     5     9   ar
    10     9    10    1
    11    10    11    1
    12    11    12    1
    13    12    13    1
    14    13    14   am
    15    14    15    2
    16    14    16    1
    17    16    17    1
    18    17    18    1
    19    18    19    1
    20    19    20    1
    21    16    20    1
    22    13    21    1
    23    10    21    1
    24     4    22   ar
    25    22    23   ar
    26    23    24   ar
    27     2    24   ar
    28     1    25    1
    29     1    26    1
    30     7    27    1
    31    10    28    1
    32    11    29    1
    33    11    30    1
    34    12    31    1
    35    12    32    1
    36    16    33    1
    37    17    34    1
    38    17    35    1
    39    18    36    1
    40    18    37    1
    41    19    38    1
    42    19    39    1
    43    20    40    1
    44    20    41    1
    45    21    42    1
    46    21    43    1
    47     3    44    1
    48     6    45    1
    49    22    46    1
    50    23    47    1
@<TRIPOS>MOLECULE
mol6_4_17
 47 50 0 0 0
SMALL
USER_CHARGES
****
VDW energy = -54.25
@<TRIPOS>ATOM
   1 N1        3.7120     4.1520     7.3415  N.pl3   1  <O>11      -0.3431
   2 C1        3.3329     4.3488     5.9653  C.ar    1  <O>11       0.1167
   3 C2        2.1864     5.0670     5.6766  C.ar    1  <O>11      -0.0143
   4 C3        1.8446     5.2530     4.3395  C.ar    1  <O>11      -0.0100
   5 C4        0.7410     5.9700     3.9760  C.ar    1  <O>11       0.0230
   6 C5       -0.4632     5.4231     3.8104  C.ar    1  <O>11       0.0303
   7 N2       -1.1934     6.5226     3.3741  N.ar    1  <O>11      -0.2839
   8 N3       -0.4726     7.6854     3.4293  N.ar    1  <O>11      -0.1779
   9 C6        0.7644     7.2957     3.7522  C.ar    1  <O>11       0.0751
  10 C7        1.9873     8.0764     3.8689  C.3     1  <O>11       0.0208
  11 C8        1.7488     9.4797     3.4259  C.3     1  <O>11      -0.0274
  12 C9        2.8609    10.2199     4.1533  C.3     1  <O>11       0.0153
  13 N4        3.0681     9.4574     5.3724  N.am    1  <O>11      -0.3006
  14 C10       3.7631     9.8279     6.4806  C.2     1  <O>11       0.2187
  15 O1        3.8448     9.0670     7.4329  O.2     1  <O>11      -0.2753
  16 C11       4.4249    11.1652     6.5338  C.3     1  <O>11       0.0358
  17 C12       3.4960    12.2226     6.0350  C.3     1  <O>11      -0.0419
  18 C13       3.9700    13.4893     6.7483  C.3     1  <O>11      -0.0523
  19 C14       4.9278    13.0339     7.8484  C.3     1  <O>11      -0.0523
  20 C15       4.7464    11.5263     7.9443  C.3     1  <O>11      -0.0419
  21 C16       2.4137     8.1591     5.2960  C.3     1  <O>11       0.0230
  22 C17       2.6639     4.6834     3.3579  C.ar    1  <O>11      -0.0356
  23 C18       3.8024     3.9729     3.7374  C.ar    1  <O>11       0.0302
  24 N5        4.1374     3.8086     5.0266  N.ar    1  <O>11      -0.2407
  25 H1        4.5551     3.6243     7.5678  H       1  <O>11       0.1437
  26 H2        3.1373     4.5403     8.0894  H       1  <O>11       0.1437
  27 H3       -2.1488     6.4514     3.0553  H       1  <O>11       0.1882
  28 H4        2.7688     7.6159     3.2659  H       1  <O>11       0.0380
  29 H5        1.8462     9.5783     2.3460  H       1  <O>11       0.0287
  30 H6        0.7656     9.8338     3.7363  H       1  <O>11       0.0287
  31 H7        3.7695    10.2378     3.5510  H       1  <O>11       0.0465
  32 H8        2.5580    11.2405     4.3843  H       1  <O>11       0.0465
  33 H9        5.3349    11.1440     5.9331  H       1  <O>11       0.0394
  34 H10       3.5792    12.3320     4.9543  H       1  <O>11       0.0272
  35 H11       2.4661    11.9899     6.2985  H       1  <O>11       0.0272
  36 H12       4.4856    14.1462     6.0485  H       1  <O>11       0.0265
  37 H13       3.1206    14.0166     7.1828  H       1  <O>11       0.0265
  38 H14       5.9572    13.2763     7.5841  H       1  <O>11       0.0265
  39 H15       4.6753    13.5087     8.7960  H       1  <O>11       0.0265
  40 H16       5.6601    11.0370     8.2814  H       1  <O>11       0.0272
  41 H17       3.9267    11.2669     8.6157  H       1  <O>11       0.0272
  42 H18       3.1087     7.3555     5.5427  H       1  <O>11       0.0471
  43 H19       1.5554     8.1141     5.9641  H       1  <O>11       0.0471
  44 H20       1.5999     5.4547     6.4321  H       1  <O>11       0.0658
  45 H21      -0.7697     4.4497     3.9640  H       1  <O>11       0.0830
  46 H22       2.4268     4.7886     2.3590  H       1  <O>11       0.0639
  47 H23       4.4041     3.5620     3.0065  H       1  <O>11       0.0830
@<TRIPOS>BOND
     1     1     2    1
     2     2     3   ar
     3     3     4   ar
     4     4     5    1
     5     5     6   ar
     6     6     7   ar
     7     7     8   ar
     8     8     9   ar
     9     5     9   ar
    10     9    10    1
    11    10    11    1
    12    11    12    1
    13    12    13    1
    14    13    14   am
    15    14    15    2
    16    14    16    1
    17    16    17    1
    18    17    18    1
    19    18    19    1
    20    19    20    1
    21    16    20    1
    22    13    21    1
    23    10    21    1
    24     4    22   ar
    25    22    23   ar
    26    23    24   ar
    27     2    24   ar
    28     1    25    1
    29     1    26    1
    30     7    27    1
    31    10    28    1
    32    11    29    1
    33    11    30    1
    34    12    31    1
    35    12    32    1
    36    16    33    1
    37    17    34    1
    38    17    35    1
    39    18    36    1
    40    18    37    1
    41    19    38    1
    42    19    39    1
    43    20    40    1
    44    20    41    1
    45    21    42    1
    46    21    43    1
    47     3    44    1
    48     6    45    1
    49    22    46    1
    50    23    47    1
@<TRIPOS>MOLECULE
mol6_4_18
 47 50 0 0 0
SMALL
USER_CHARGES
****
VDW energy = -54.00
@<TRIPOS>ATOM
   1 N1        3.7120     4.1520     7.3415  N.pl3   1  <O>11      -0.3431
   2 C1        3.3329     4.3488     5.9653  C.ar    1  <O>11       0.1167
   3 C2        2.1864     5.0670     5.6766  C.ar    1  <O>11      -0.0143
   4 C3        1.8446     5.2530     4.3395  C.ar    1  <O>11      -0.0100
   5 C4        0.7410     5.9700     3.9760  C.ar    1  <O>11       0.0230
   6 C5        0.7647     7.2839     3.7528  C.ar    1  <O>11       0.0303
   7 N2       -0.5804     7.5327     3.5055  N.ar    1  <O>11      -0.2839
   8 N3       -1.3228     6.3839     3.4432  N.ar    1  <O>11      -0.1779
   9 C6       -0.4735     5.4182     3.8075  C.ar    1  <O>11       0.0751
  10 C7       -0.7111     3.9973     4.0153  C.3     1  <O>11       0.0208
  11 C8       -2.1662     3.6943     3.9005  C.3     1  <O>11      -0.0274
  12 C9       -2.1405     2.2149     3.5478  C.3     1  <O>11       0.0153
  13 N4       -0.9049     2.0401     2.8040  N.am    1  <O>11      -0.3006
  14 C10      -0.5294     0.9740     2.0484  C.2     1  <O>11       0.2187
  15 O1        0.5516     0.9796     1.4790  O.2     1  <O>11      -0.2753
  16 C11      -1.4388    -0.2024     1.9137  C.3     1  <O>11       0.0358
  17 C12      -2.8360     0.2515     1.6462  C.3     1  <O>11      -0.0419
  18 C13      -3.4590    -0.9184     0.8839  C.3     1  <O>11      -0.0523
  19 C14      -2.3052    -1.8350     0.4793  C.3     1  <O>11      -0.0523
  20 C15      -1.0396    -1.0317     0.7405  C.3     1  <O>11      -0.0419
  21 C16      -0.0363     3.1992     2.9509  C.3     1  <O>11       0.0230
  22 C17       2.6639     4.6834     3.3579  C.ar    1  <O>11      -0.0356
  23 C18       3.8024     3.9729     3.7374  C.ar    1  <O>11       0.0302
  24 N5        4.1374     3.8086     5.0266  N.ar    1  <O>11      -0.2407
  25 H1        4.5551     3.6243     7.5678  H       1  <O>11       0.1437
  26 H2        3.1373     4.5403     8.0894  H       1  <O>11       0.1437
  27 H3       -0.9502     8.4649     3.3879  H       1  <O>11       0.1882
  28 H4       -0.3400     3.7090     4.9979  H       1  <O>11       0.0380
  29 H5       -2.6848     3.8694     4.8417  H       1  <O>11       0.0287
  30 H6       -2.6348     4.2834     3.1119  H       1  <O>11       0.0287
  31 H7       -2.1362     1.6039     4.4508  H       1  <O>11       0.0465
  32 H8       -3.0004     1.9498     2.9338  H       1  <O>11       0.0465
  33 H9       -1.4002    -0.7975     2.8267  H       1  <O>11       0.0394
  34 H10      -3.3685     0.4340     2.5790  H       1  <O>11       0.0272
  35 H11      -2.8409     1.1565     1.0420  H       1  <O>11       0.0272
  36 H12      -4.1597    -1.4551     1.5227  H       1  <O>11       0.0265
  37 H13      -3.9801    -0.5553    -0.0021  H       1  <O>11       0.0265
  38 H14      -2.3090    -2.7437     1.0814  H       1  <O>11       0.0265
  39 H15      -2.3778    -2.0985    -0.5754  H       1  <O>11       0.0265
  40 H16      -0.1990    -1.6822     0.9813  H       1  <O>11       0.0272
  41 H17      -0.7818    -0.4072    -0.1160  H       1  <O>11       0.0272
  42 H18       0.9653     2.9006     3.2630  H       1  <O>11       0.0471
  43 H19       0.0262     3.7612     2.0207  H       1  <O>11       0.0471
  44 H20       1.5999     5.4547     6.4321  H       1  <O>11       0.0658
  45 H21       1.5632     7.9376     3.7613  H       1  <O>11       0.0830
  46 H22       2.4268     4.7886     2.3590  H       1  <O>11       0.0639
  47 H23       4.4041     3.5620     3.0065  H       1  <O>11       0.0830
@<TRIPOS>BOND
     1     1     2    1
     2     2     3   ar
     3     3     4   ar
     4     4     5    1
     5     5     6   ar
     6     6     7   ar
     7     7     8   ar
     8     8     9   ar
     9     5     9   ar
    10     9    10    1
    11    10    11    1
    12    11    12    1
    13    12    13    1
    14    13    14   am
    15    14    15    2
    16    14    16    1
    17    16    17    1
    18    17    18    1
    19    18    19    1
    20    19    20    1
    21    16    20    1
    22    13    21    1
    23    10    21    1
    24     4    22   ar
    25    22    23   ar
    26    23    24   ar
    27     2    24   ar
    28     1    25    1
    29     1    26    1
    30     7    27    1
    31    10    28    1
    32    11    29    1
    33    11    30    1
    34    12    31    1
    35    12    32    1
    36    16    33    1
    37    17    34    1
    38    17    35    1
    39    18    36    1
    40    18    37    1
    41    19    38    1
    42    19    39    1
    43    20    40    1
    44    20    41    1
    45    21    42    1
    46    21    43    1
    47     3    44    1
    48     6    45    1
    49    22    46    1
    50    23    47    1
@<TRIPOS>MOLECULE
mol6_4_19
 47 50 0 0 0
SMALL
USER_CHARGES
****
VDW energy = -51.63
@<TRIPOS>ATOM
   1 N1        3.7120     4.1520     7.3415  N.pl3   1  <O>11      -0.3431
   2 C1        3.3329     4.3488     5.9653  C.ar    1  <O>11       0.1167
   3 C2        2.1864     5.0670     5.6766  C.ar    1  <O>11      -0.0143
   4 C3        1.8446     5.2530     4.3395  C.ar    1  <O>11      -0.0100
   5 C4        0.7410     5.9700     3.9760  C.ar    1  <O>11       0.0230
   6 C5       -0.2647     5.4544     3.2693  C.ar    1  <O>11       0.0303
   7 N2       -1.0679     6.5760     3.0983  N.ar    1  <O>11      -0.2839
   8 N3       -0.6144     7.6576     3.8048  N.ar    1  <O>11      -0.1779
   9 C6        0.5638     7.2635     4.2978  C.ar    1  <O>11       0.0751
  10 C7        1.5542     8.0123     5.0573  C.3     1  <O>11       0.0208
  11 C8        2.5306     8.6602     4.1358  C.3     1  <O>11      -0.0274
  12 C9        3.0492     9.8012     4.9977  C.3     1  <O>11       0.0153
  13 N4        1.9285    10.1476     5.8547  N.am    1  <O>11      -0.3006
  14 C10       1.7791    11.2578     6.6252  C.2     1  <O>11       0.2187
  15 O1        0.7678    11.4047     7.2949  O.2     1  <O>11      -0.2753
  16 C11       2.8504    12.2975     6.6517  C.3     1  <O>11       0.0358
  17 C12       3.3158    12.5963     5.2646  C.3     1  <O>11      -0.0419
  18 C13       3.8274    14.0344     5.3545  C.3     1  <O>11      -0.0523
  19 C14       3.3377    14.5852     6.6931  C.3     1  <O>11      -0.0523
  20 C15       2.3134    13.5781     7.1947  C.3     1  <O>11      -0.0419
  21 C16       0.8985     9.1196     5.8116  C.3     1  <O>11       0.0230
  22 C17       2.6639     4.6834     3.3579  C.ar    1  <O>11      -0.0356
  23 C18       3.8024     3.9729     3.7374  C.ar    1  <O>11       0.0302
  24 N5        4.1374     3.8086     5.0266  N.ar    1  <O>11      -0.2407
  25 H1        4.5551     3.6243     7.5678  H       1  <O>11       0.1437
  26 H2        3.1373     4.5403     8.0894  H       1  <O>11       0.1437
  27 H3       -1.8908     6.5737     2.5133  H       1  <O>11       0.1882
  28 H4        2.0683     7.3395     5.7425  H       1  <O>11       0.0380
  29 H5        3.3310     7.9761     3.8587  H       1  <O>11       0.0287
  30 H6        2.0419     9.0322     3.2350  H       1  <O>11       0.0287
  31 H7        3.9033     9.4768     5.5927  H       1  <O>11       0.0465
  32 H8        3.3385    10.6506     4.3799  H       1  <O>11       0.0465
  33 H9        3.6814    11.9469     7.2646  H       1  <O>11       0.0394
  34 H10       4.1158    11.9178     4.9706  H       1  <O>11       0.0272
  35 H11       2.4945    12.5190     4.5548  H       1  <O>11       0.0272
  36 H12       4.9161    14.0510     5.3164  H       1  <O>11       0.0265
  37 H13       3.4261    14.6285     4.5332  H       1  <O>11       0.0265
  38 H14       4.1648    14.6686     7.3983  H       1  <O>11       0.0265
  39 H15       2.8760    15.5629     6.5585  H       1  <O>11       0.0265
  40 H16       2.2727    13.5619     8.2837  H       1  <O>11       0.0272
  41 H17       1.3200    13.7907     6.7974  H       1  <O>11       0.0272
  42 H18       0.6243     8.7980     6.8171  H       1  <O>11       0.0471
  43 H19       0.0117     9.4765     5.2906  H       1  <O>11       0.0471
  44 H20       1.5999     5.4547     6.4321  H       1  <O>11       0.0658
  45 H21      -0.4079     4.4871     2.9393  H       1  <O>11       0.0830
  46 H22       2.4268     4.7886     2.3590  H       1  <O>11       0.0639
  47 H23       4.4041     3.5620     3.0065  H       1  <O>11       0.0830
@<TRIPOS>BOND
     1     1     2    1
     2     2     3   ar
     3     3     4   ar
     4     4     5    1
     5     5     6   ar
     6     6     7   ar
     7     7     8   ar
     8     8     9   ar
     9     5     9   ar
    10     9    10    1
    11    10    11    1
    12    11    12    1
    13    12    13    1
    14    13    14   am
    15    14    15    2
    16    14    16    1
    17    16    17    1
    18    17    18    1
    19    18    19    1
    20    19    20    1
    21    16    20    1
    22    13    21    1
    23    10    21    1
    24     4    22   ar
    25    22    23   ar
    26    23    24   ar
    27     2    24   ar
    28     1    25    1
    29     1    26    1
    30     7    27    1
    31    10    28    1
    32    11    29    1
    33    11    30    1
    34    12    31    1
    35    12    32    1
    36    16    33    1
    37    17    34    1
    38    17    35    1
    39    18    36    1
    40    18    37    1
    41    19    38    1
    42    19    39    1
    43    20    40    1
    44    20    41    1
    45    21    42    1
    46    21    43    1
    47     3    44    1
    48     6    45    1
    49    22    46    1
    50    23    47    1
@<TRIPOS>MOLECULE
mol6_4_20
 47 50 0 0 0
SMALL
USER_CHARGES
****
VDW energy = -51.26
@<TRIPOS>ATOM
   1 N1        3.7120     4.1520     7.3415  N.pl3   1  <O>11      -0.3431
   2 C1        3.3329     4.3488     5.9653  C.ar    1  <O>11       0.1167
   3 C2        2.1864     5.0670     5.6766  C.ar    1  <O>11      -0.0143
   4 C3        1.8446     5.2530     4.3395  C.ar    1  <O>11      -0.0100
   5 C4        0.7410     5.9700     3.9760  C.ar    1  <O>11       0.0230
   6 C5        0.7987     7.0659     3.2194  C.ar    1  <O>11       0.0303
   7 N2       -0.5370     7.4508     3.2121  N.ar    1  <O>11      -0.2839
   8 N3       -1.3506     6.5305     3.8169  N.ar    1  <O>11      -0.1779
   9 C6       -0.5083     5.6375     4.3457  C.ar    1  <O>11       0.0751
  10 C7       -0.7826     4.4797     5.1840  C.3     1  <O>11       0.0208
  11 C8       -2.2267     4.4384     5.5518  C.3     1  <O>11      -0.0274
  12 C9       -2.4178     2.9616     5.8626  C.3     1  <O>11       0.0153
  13 N4       -1.4696     2.2824     4.9964  N.am    1  <O>11      -0.3006
  14 C10      -1.4131     0.9572     4.6980  C.2     1  <O>11       0.2187
  15 O1       -0.5478     0.5374     3.9445  O.2     1  <O>11      -0.2753
  16 C11      -2.4092     0.0157     5.2901  C.3     1  <O>11       0.0358
  17 C12      -3.7848     0.5880     5.1906  C.3     1  <O>11      -0.0419
  18 C13      -4.6902    -0.6439     5.1635  C.3     1  <O>11      -0.0523
  19 C14      -3.7777    -1.8466     4.9271  C.3     1  <O>11      -0.0523
  20 C15      -2.4336    -1.2610     4.5203  C.3     1  <O>11      -0.0419
  21 C16      -0.5102     3.2206     4.4319  C.3     1  <O>11       0.0230
  22 C17       2.6639     4.6834     3.3579  C.ar    1  <O>11      -0.0356
  23 C18       3.8024     3.9729     3.7374  C.ar    1  <O>11       0.0302
  24 N5        4.1374     3.8086     5.0266  N.ar    1  <O>11      -0.2407
  25 H1        4.5551     3.6243     7.5678  H       1  <O>11       0.1437
  26 H2        3.1373     4.5403     8.0894  H       1  <O>11       0.1437
  27 H3       -0.8528     8.3174     2.8014  H       1  <O>11       0.1882
  28 H4       -0.1644     4.5276     6.0795  H       1  <O>11       0.0380
  29 H5       -2.4336     5.0577     6.4230  H       1  <O>11       0.0287
  30 H6       -2.8584     4.7554     4.7218  H       1  <O>11       0.0287
  31 H7       -2.1972     2.7572     6.9106  H       1  <O>11       0.0465
  32 H8       -3.4368     2.6490     5.6381  H       1  <O>11       0.0465
  33 H9       -2.1517    -0.1770     6.3321  H       1  <O>11       0.0394
  34 H10      -4.0068     1.2134     6.0545  H       1  <O>11       0.0272
  35 H11      -3.8966     1.1732     4.2799  H       1  <O>11       0.0272
  36 H12      -5.2131    -0.7492     6.1135  H       1  <O>11       0.0265
  37 H13      -5.4176    -0.5584     4.3560  H       1  <O>11       0.0265
  38 H14      -3.6752    -2.4344     5.8395  H       1  <O>11       0.0265
  39 H15      -4.1745    -2.4773     4.1321  H       1  <O>11       0.0265
  40 H16      -1.6115    -1.9154     4.8097  H       1  <O>11       0.0272
  41 H17      -2.3898    -1.0763     3.4461  H       1  <O>11       0.0272
  42 H18       0.5130     2.8810     4.5974  H       1  <O>11       0.0471
  43 H19      -0.6788     3.3577     3.3653  H       1  <O>11       0.0471
  44 H20       1.5999     5.4547     6.4321  H       1  <O>11       0.0658
  45 H21       1.6124     7.5077     2.7638  H       1  <O>11       0.0830
  46 H22       2.4268     4.7886     2.3590  H       1  <O>11       0.0639
  47 H23       4.4041     3.5620     3.0065  H       1  <O>11       0.0830
@<TRIPOS>BOND
     1     1     2    1
     2     2     3   ar
     3     3     4   ar
     4     4     5    1
     5     5     6   ar
     6     6     7   ar
     7     7     8   ar
     8     8     9   ar
     9     5     9   ar
    10     9    10    1
    11    10    11    1
    12    11    12    1
    13    12    13    1
    14    13    14   am
    15    14    15    2
    16    14    16    1
    17    16    17    1
    18    17    18    1
    19    18    19    1
    20    19    20    1
    21    16    20    1
    22    13    21    1
    23    10    21    1
    24     4    22   ar
    25    22    23   ar
    26    23    24   ar
    27     2    24   ar
    28     1    25    1
    29     1    26    1
    30     7    27    1
    31    10    28    1
    32    11    29    1
    33    11    30    1
    34    12    31    1
    35    12    32    1
    36    16    33    1
    37    17    34    1
    38    17    35    1
    39    18    36    1
    40    18    37    1
    41    19    38    1
    42    19    39    1
    43    20    40    1
    44    20    41    1
    45    21    42    1
    46    21    43    1
    47     3    44    1
    48     6    45    1
    49    22    46    1
    50    23    47    1
@<TRIPOS>MOLECULE
mol6_4_21
 47 50 0 0 0
SMALL
USER_CHARGES
****
VDW energy = -42.29
@<TRIPOS>ATOM
   1 N1        3.7120     4.1520     7.3415  N.pl3   1  <O>11      -0.3431
   2 C1        3.3329     4.3488     5.9653  C.ar    1  <O>11       0.1167
   3 C2        2.1864     5.0670     5.6766  C.ar    1  <O>11      -0.0143
   4 C3        1.8446     5.2530     4.3395  C.ar    1  <O>11      -0.0100
   5 C4        0.7410     5.9700     3.9760  C.ar    1  <O>11       0.0230
   6 C5        0.7987     7.0659     3.2194  C.ar    1  <O>11       0.0303
   7 N2       -0.5370     7.4508     3.2121  N.ar    1  <O>11      -0.2839
   8 N3       -1.3506     6.5305     3.8169  N.ar    1  <O>11      -0.1779
   9 C6       -0.5083     5.6375     4.3457  C.ar    1  <O>11       0.0751
  10 C7       -0.7826     4.4797     5.1840  C.3     1  <O>11       0.0208
  11 C8       -0.7542     4.8656     6.6236  C.3     1  <O>11      -0.0274
  12 C9       -1.6086     3.7723     7.2470  C.3     1  <O>11       0.0153
  13 N4       -2.5601     3.4179     6.2080  N.am    1  <O>11      -0.3006
  14 C10      -3.6963     2.6818     6.3328  C.2     1  <O>11       0.2187
  15 O1       -4.3976     2.4706     5.3549  O.2     1  <O>11      -0.2753
  16 C11      -4.0873     2.1329     7.6651  C.3     1  <O>11       0.0358
  17 C12      -3.9400     3.1799     8.7196  C.3     1  <O>11      -0.0419
  18 C13      -4.9535     2.7662     9.7871  C.3     1  <O>11      -0.0523
  19 C14      -5.8429     1.6997     9.1494  C.3     1  <O>11      -0.0523
  20 C15      -5.5273     1.7464     7.6617  C.3     1  <O>11      -0.0419
  21 C16      -2.1573     3.9643     4.9200  C.3     1  <O>11       0.0230
  22 C17       2.6639     4.6834     3.3579  C.ar    1  <O>11      -0.0356
  23 C18       3.8024     3.9729     3.7374  C.ar    1  <O>11       0.0302
  24 N5        4.1374     3.8086     5.0266  N.ar    1  <O>11      -0.2407
  25 H1        4.5551     3.6243     7.5678  H       1  <O>11       0.1437
  26 H2        3.1373     4.5403     8.0894  H       1  <O>11       0.1437
  27 H3       -0.8528     8.3174     2.8014  H       1  <O>11       0.1882
  28 H4       -0.0428     3.7057     4.9841  H       1  <O>11       0.0380
  29 H5        0.2599     4.8516     7.0197  H       1  <O>11       0.0287
  30 H6       -1.1925     5.8514     6.7806  H       1  <O>11       0.0287
  31 H7       -0.9958     2.9122     7.5178  H       1  <O>11       0.0465
  32 H8       -2.1248     4.1435     8.1316  H       1  <O>11       0.0465
  33 H9       -3.4652     1.2680     7.8981  H       1  <O>11       0.0394
  34 H10      -2.9287     3.1810     9.1248  H       1  <O>11       0.0272
  35 H11      -4.1734     4.1658     8.3226  H       1  <O>11       0.0272
  36 H12      -4.4402     2.3573    10.6568  H       1  <O>11       0.0265
  37 H13      -5.5529     3.6250    10.0897  H       1  <O>11       0.0265
  38 H14      -5.6113     0.7151     9.5559  H       1  <O>11       0.0265
  39 H15      -6.8947     1.9253     9.3227  H       1  <O>11       0.0265
  40 H16      -5.6766     0.7736     7.1934  H       1  <O>11       0.0272
  41 H17      -6.1362     2.4930     7.1499  H       1  <O>11       0.0272
  42 H18      -2.1426     3.1886     4.1533  H       1  <O>11       0.0471
  43 H19      -2.8236     4.7675     4.6106  H       1  <O>11       0.0471
  44 H20       1.5999     5.4547     6.4321  H       1  <O>11       0.0658
  45 H21       1.6124     7.5077     2.7638  H       1  <O>11       0.0830
  46 H22       2.4268     4.7886     2.3590  H       1  <O>11       0.0639
  47 H23       4.4041     3.5620     3.0065  H       1  <O>11       0.0830
@<TRIPOS>BOND
     1     1     2    1
     2     2     3   ar
     3     3     4   ar
     4     4     5    1
     5     5     6   ar
     6     6     7   ar
     7     7     8   ar
     8     8     9   ar
     9     5     9   ar
    10     9    10    1
    11    10    11    1
    12    11    12    1
    13    12    13    1
    14    13    14   am
    15    14    15    2
    16    14    16    1
    17    16    17    1
    18    17    18    1
    19    18    19    1
    20    19    20    1
    21    16    20    1
    22    13    21    1
    23    10    21    1
    24     4    22   ar
    25    22    23   ar
    26    23    24   ar
    27     2    24   ar
    28     1    25    1
    29     1    26    1
    30     7    27    1
    31    10    28    1
    32    11    29    1
    33    11    30    1
    34    12    31    1
    35    12    32    1
    36    16    33    1
    37    17    34    1
    38    17    35    1
    39    18    36    1
    40    18    37    1
    41    19    38    1
    42    19    39    1
    43    20    40    1
    44    20    41    1
    45    21    42    1
    46    21    43    1
    47     3    44    1
    48     6    45    1
    49    22    46    1
    50    23    47    1
@<TRIPOS>MOLECULE
mol6_4_22
 47 50 0 0 0
SMALL
USER_CHARGES
****
VDW energy = -38.57
@<TRIPOS>ATOM
   1 N1        3.7120     4.1520     7.3415  N.pl3   1  <O>11      -0.3431
   2 C1        3.3329     4.3488     5.9653  C.ar    1  <O>11       0.1167
   3 C2        2.1864     5.0670     5.6766  C.ar    1  <O>11      -0.0143
   4 C3        1.8446     5.2530     4.3395  C.ar    1  <O>11      -0.0100
   5 C4        0.7410     5.9700     3.9760  C.ar    1  <O>11       0.0230
   6 C5        0.7647     7.2839     3.7528  C.ar    1  <O>11       0.0303
   7 N2       -0.5804     7.5327     3.5055  N.ar    1  <O>11      -0.2839
   8 N3       -1.3228     6.3839     3.4432  N.ar    1  <O>11      -0.1779
   9 C6       -0.4735     5.4182     3.8075  C.ar    1  <O>11       0.0751
  10 C7       -0.7111     3.9973     4.0153  C.3     1  <O>11       0.0208
  11 C8       -2.1662     3.6943     3.9005  C.3     1  <O>11      -0.0274
  12 C9       -2.1405     2.2149     3.5478  C.3     1  <O>11       0.0153
  13 N4       -0.9049     2.0401     2.8040  N.am    1  <O>11      -0.3006
  14 C10      -0.5294     0.9740     2.0484  C.2     1  <O>11       0.2187
  15 O1        0.5516     0.9796     1.4790  O.2     1  <O>11      -0.2753
  16 C11      -1.4388    -0.2024     1.9137  C.3     1  <O>11       0.0358
  17 C12      -1.9905    -0.5854     3.2473  C.3     1  <O>11      -0.0419
  18 C13      -3.3230    -1.2557     2.9109  C.3     1  <O>11      -0.0523
  19 C14      -3.6097    -0.9371     1.4442  C.3     1  <O>11      -0.0523
  20 C15      -2.6126     0.1472     1.0633  C.3     1  <O>11      -0.0419
  21 C16      -0.0363     3.1992     2.9509  C.3     1  <O>11       0.0230
  22 C17       2.6639     4.6834     3.3579  C.ar    1  <O>11      -0.0356
  23 C18       3.8024     3.9729     3.7374  C.ar    1  <O>11       0.0302
  24 N5        4.1374     3.8086     5.0266  N.ar    1  <O>11      -0.2407
  25 H1        4.5551     3.6243     7.5678  H       1  <O>11       0.1437
  26 H2        3.1373     4.5403     8.0894  H       1  <O>11       0.1437
  27 H3       -0.9502     8.4649     3.3879  H       1  <O>11       0.1882
  28 H4       -0.3400     3.7090     4.9979  H       1  <O>11       0.0380
  29 H5       -2.6848     3.8694     4.8417  H       1  <O>11       0.0287
  30 H6       -2.6348     4.2834     3.1119  H       1  <O>11       0.0287
  31 H7       -2.1362     1.6039     4.4508  H       1  <O>11       0.0465
  32 H8       -3.0004     1.9498     2.9338  H       1  <O>11       0.0465
  33 H9       -0.8904    -1.0367     1.4749  H       1  <O>11       0.0394
  34 H10      -1.3242    -1.2811     3.7561  H       1  <O>11       0.0272
  35 H11      -2.1433     0.2933     3.8708  H       1  <O>11       0.0272
  36 H12      -3.2507    -2.3333     3.0547  H       1  <O>11       0.0265
  37 H13      -4.1153    -0.8571     3.5449  H       1  <O>11       0.0265
  38 H14      -3.4634    -1.8219     0.8246  H       1  <O>11       0.0265
  39 H15      -4.6303    -0.5749     1.3239  H       1  <O>11       0.0265
  40 H16      -2.3629     0.1025     0.0033  H       1  <O>11       0.0272
  41 H17      -2.9943     1.1402     1.3047  H       1  <O>11       0.0272
  42 H18       0.9653     2.9006     3.2630  H       1  <O>11       0.0471
  43 H19       0.0262     3.7612     2.0207  H       1  <O>11       0.0471
  44 H20       1.5999     5.4547     6.4321  H       1  <O>11       0.0658
  45 H21       1.5632     7.9376     3.7613  H       1  <O>11       0.0830
  46 H22       2.4268     4.7886     2.3590  H       1  <O>11       0.0639
  47 H23       4.4041     3.5620     3.0065  H       1  <O>11       0.0830
@<TRIPOS>BOND
     1     1     2    1
     2     2     3   ar
     3     3     4   ar
     4     4     5    1
     5     5     6   ar
     6     6     7   ar
     7     7     8   ar
     8     8     9   ar
     9     5     9   ar
    10     9    10    1
    11    10    11    1
    12    11    12    1
    13    12    13    1
    14    13    14   am
    15    14    15    2
    16    14    16    1
    17    16    17    1
    18    17    18    1
    19    18    19    1
    20    19    20    1
    21    16    20    1
    22    13    21    1
    23    10    21    1
    24     4    22   ar
    25    22    23   ar
    26    23    24   ar
    27     2    24   ar
    28     1    25    1
    29     1    26    1
    30     7    27    1
    31    10    28    1
    32    11    29    1
    33    11    30    1
    34    12    31    1
    35    12    32    1
    36    16    33    1
    37    17    34    1
    38    17    35    1
    39    18    36    1
    40    18    37    1
    41    19    38    1
    42    19    39    1
    43    20    40    1
    44    20    41    1
    45    21    42    1
    46    21    43    1
    47     3    44    1
    48     6    45    1
    49    22    46    1
    50    23    47    1
@<TRIPOS>MOLECULE
mol6_4_23
 47 50 0 0 0
SMALL
USER_CHARGES
****
VDW energy = -36.44
@<TRIPOS>ATOM
   1 N1        3.7120     4.1520     7.3415  N.pl3   1  <O>11      -0.3431
   2 C1        3.3329     4.3488     5.9653  C.ar    1  <O>11       0.1167
   3 C2        2.1864     5.0670     5.6766  C.ar    1  <O>11      -0.0143
   4 C3        1.8446     5.2530     4.3395  C.ar    1  <O>11      -0.0100
   5 C4        0.7410     5.9700     3.9760  C.ar    1  <O>11       0.0230
   6 C5        0.7647     7.2839     3.7528  C.ar    1  <O>11       0.0303
   7 N2       -0.5804     7.5327     3.5055  N.ar    1  <O>11      -0.2839
   8 N3       -1.3228     6.3839     3.4432  N.ar    1  <O>11      -0.1779
   9 C6       -0.4735     5.4182     3.8075  C.ar    1  <O>11       0.0751
  10 C7       -0.7111     3.9973     4.0153  C.3     1  <O>11       0.0208
  11 C8       -2.1662     3.6943     3.9005  C.3     1  <O>11      -0.0274
  12 C9       -2.1405     2.2149     3.5478  C.3     1  <O>11       0.0153
  13 N4       -0.9049     2.0401     2.8040  N.am    1  <O>11      -0.3006
  14 C10      -0.5294     0.9740     2.0484  C.2     1  <O>11       0.2187
  15 O1       -1.2731     0.0108     1.9391  O.2     1  <O>11      -0.2753
  16 C11       0.7922     0.9802     1.3537  C.3     1  <O>11       0.0358
  17 C12       1.8617     1.4566     2.2805  C.3     1  <O>11      -0.0419
  18 C13       3.1304     0.7931     1.7435  C.3     1  <O>11      -0.0523
  19 C14       2.6737    -0.2698     0.7452  C.3     1  <O>11      -0.0523
  20 C15       1.1732    -0.4057     0.9569  C.3     1  <O>11      -0.0419
  21 C16      -0.0363     3.1992     2.9509  C.3     1  <O>11       0.0230
  22 C17       2.6639     4.6834     3.3579  C.ar    1  <O>11      -0.0356
  23 C18       3.8024     3.9729     3.7374  C.ar    1  <O>11       0.0302
  24 N5        4.1374     3.8086     5.0266  N.ar    1  <O>11      -0.2407
  25 H1        4.5551     3.6243     7.5678  H       1  <O>11       0.1437
  26 H2        3.1373     4.5403     8.0894  H       1  <O>11       0.1437
  27 H3       -0.9502     8.4649     3.3879  H       1  <O>11       0.1882
  28 H4       -0.3400     3.7090     4.9979  H       1  <O>11       0.0380
  29 H5       -2.6848     3.8694     4.8417  H       1  <O>11       0.0287
  30 H6       -2.6348     4.2834     3.1119  H       1  <O>11       0.0287
  31 H7       -2.1362     1.6039     4.4508  H       1  <O>11       0.0465
  32 H8       -3.0004     1.9498     2.9338  H       1  <O>11       0.0465
  33 H9        0.7369     1.6225     0.4742  H       1  <O>11       0.0394
  34 H10       1.9476     2.5420     2.2464  H       1  <O>11       0.0272
  35 H11       1.6594     1.1399     3.3018  H       1  <O>11       0.0272
  36 H12       3.7606     1.5301     1.2466  H       1  <O>11       0.0265
  37 H13       3.6867     0.3301     2.5587  H       1  <O>11       0.0265
  38 H14       2.8857     0.0478    -0.2758  H       1  <O>11       0.0265
  39 H15       3.1733    -1.2182     0.9410  H       1  <O>11       0.0265
  40 H16       0.6686    -0.7095     0.0399  H       1  <O>11       0.0272
  41 H17       0.9471    -1.1204     1.7495  H       1  <O>11       0.0272
  42 H18       0.9653     2.9006     3.2630  H       1  <O>11       0.0471
  43 H19       0.0262     3.7612     2.0207  H       1  <O>11       0.0471
  44 H20       1.5999     5.4547     6.4321  H       1  <O>11       0.0658
  45 H21       1.5632     7.9376     3.7613  H       1  <O>11       0.0830
  46 H22       2.4268     4.7886     2.3590  H       1  <O>11       0.0639
  47 H23       4.4041     3.5620     3.0065  H       1  <O>11       0.0830
@<TRIPOS>BOND
     1     1     2    1
     2     2     3   ar
     3     3     4   ar
     4     4     5    1
     5     5     6   ar
     6     6     7   ar
     7     7     8   ar
     8     8     9   ar
     9     5     9   ar
    10     9    10    1
    11    10    11    1
    12    11    12    1
    13    12    13    1
    14    13    14   am
    15    14    15    2
    16    14    16    1
    17    16    17    1
    18    17    18    1
    19    18    19    1
    20    19    20    1
    21    16    20    1
    22    13    21    1
    23    10    21    1
    24     4    22   ar
    25    22    23   ar
    26    23    24   ar
    27     2    24   ar
    28     1    25    1
    29     1    26    1
    30     7    27    1
    31    10    28    1
    32    11    29    1
    33    11    30    1
    34    12    31    1
    35    12    32    1
    36    16    33    1
    37    17    34    1
    38    17    35    1
    39    18    36    1
    40    18    37    1
    41    19    38    1
    42    19    39    1
    43    20    40    1
    44    20    41    1
    45    21    42    1
    46    21    43    1
    47     3    44    1
    48     6    45    1
    49    22    46    1
    50    23    47    1
@<TRIPOS>MOLECULE
mol6_4_24
 47 50 0 0 0
SMALL
USER_CHARGES
****
VDW energy = -36.35
@<TRIPOS>ATOM
   1 N1        3.7120     4.1520     7.3415  N.pl3   1  <O>11      -0.3431
   2 C1        3.3329     4.3488     5.9653  C.ar    1  <O>11       0.1167
   3 C2        2.1864     5.0670     5.6766  C.ar    1  <O>11      -0.0143
   4 C3        1.8446     5.2530     4.3395  C.ar    1  <O>11      -0.0100
   5 C4        0.7410     5.9700     3.9760  C.ar    1  <O>11       0.0230
   6 C5        0.7987     7.0659     3.2194  C.ar    1  <O>11       0.0303
   7 N2       -0.5370     7.4508     3.2121  N.ar    1  <O>11      -0.2839
   8 N3       -1.3506     6.5305     3.8169  N.ar    1  <O>11      -0.1779
   9 C6       -0.5083     5.6375     4.3457  C.ar    1  <O>11       0.0751
  10 C7       -0.7826     4.4797     5.1840  C.3     1  <O>11       0.0208
  11 C8       -2.2267     4.4384     5.5518  C.3     1  <O>11      -0.0274
  12 C9       -2.4178     2.9616     5.8626  C.3     1  <O>11       0.0153
  13 N4       -1.4696     2.2824     4.9964  N.am    1  <O>11      -0.3006
  14 C10      -1.4131     0.9572     4.6980  C.2     1  <O>11       0.2187
  15 O1       -2.2275     0.1866     5.1834  O.2     1  <O>11      -0.2753
  16 C11      -0.3548     0.4439     3.7783  C.3     1  <O>11       0.0358
  17 C12       0.9714     1.0281     4.1382  C.3     1  <O>11      -0.0419
  18 C13       1.9741    -0.0190     3.6521  C.3     1  <O>11      -0.0523
  19 C14       1.1667    -1.2768     3.3343  C.3     1  <O>11      -0.0523
  20 C15      -0.2128    -1.0328     3.9279  C.3     1  <O>11      -0.0419
  21 C16      -0.5102     3.2206     4.4319  C.3     1  <O>11       0.0230
  22 C17       2.6639     4.6834     3.3579  C.ar    1  <O>11      -0.0356
  23 C18       3.8024     3.9729     3.7374  C.ar    1  <O>11       0.0302
  24 N5        4.1374     3.8086     5.0266  N.ar    1  <O>11      -0.2407
  25 H1        4.5551     3.6243     7.5678  H       1  <O>11       0.1437
  26 H2        3.1373     4.5403     8.0894  H       1  <O>11       0.1437
  27 H3       -0.8528     8.3174     2.8014  H       1  <O>11       0.1882
  28 H4       -0.1644     4.5276     6.0795  H       1  <O>11       0.0380
  29 H5       -2.4336     5.0577     6.4230  H       1  <O>11       0.0287
  30 H6       -2.8584     4.7554     4.7218  H       1  <O>11       0.0287
  31 H7       -2.1972     2.7572     6.9106  H       1  <O>11       0.0465
  32 H8       -3.4368     2.6490     5.6381  H       1  <O>11       0.0465
  33 H9       -0.6148     0.6954     2.7495  H       1  <O>11       0.0394
  34 H10       1.1262     1.9788     3.6293  H       1  <O>11       0.0272
  35 H11       1.0519     1.1742     5.2136  H       1  <O>11       0.0272
  36 H12       2.4864     0.3353     2.7581  H       1  <O>11       0.0265
  37 H13       2.7069    -0.2285     4.4316  H       1  <O>11       0.0265
  38 H14       1.0956    -1.4237     2.2565  H       1  <O>11       0.0265
  39 H15       1.6278    -2.1525     3.7900  H       1  <O>11       0.0265
  40 H16      -0.9843    -1.5647     3.3714  H       1  <O>11       0.0272
  41 H17      -0.2519    -1.3297     4.9769  H       1  <O>11       0.0272
  42 H18       0.5130     2.8810     4.5974  H       1  <O>11       0.0471
  43 H19      -0.6788     3.3577     3.3653  H       1  <O>11       0.0471
  44 H20       1.5999     5.4547     6.4321  H       1  <O>11       0.0658
  45 H21       1.6124     7.5077     2.7638  H       1  <O>11       0.0830
  46 H22       2.4268     4.7886     2.3590  H       1  <O>11       0.0639
  47 H23       4.4041     3.5620     3.0065  H       1  <O>11       0.0830
@<TRIPOS>BOND
     1     1     2    1
     2     2     3   ar
     3     3     4   ar
     4     4     5    1
     5     5     6   ar
     6     6     7   ar
     7     7     8   ar
     8     8     9   ar
     9     5     9   ar
    10     9    10    1
    11    10    11    1
    12    11    12    1
    13    12    13    1
    14    13    14   am
    15    14    15    2
    16    14    16    1
    17    16    17    1
    18    17    18    1
    19    18    19    1
    20    19    20    1
    21    16    20    1
    22    13    21    1
    23    10    21    1
    24     4    22   ar
    25    22    23   ar
    26    23    24   ar
    27     2    24   ar
    28     1    25    1
    29     1    26    1
    30     7    27    1
    31    10    28    1
    32    11    29    1
    33    11    30    1
    34    12    31    1
    35    12    32    1
    36    16    33    1
    37    17    34    1
    38    17    35    1
    39    18    36    1
    40    18    37    1
    41    19    38    1
    42    19    39    1
    43    20    40    1
    44    20    41    1
    45    21    42    1
    46    21    43    1
    47     3    44    1
    48     6    45    1
    49    22    46    1
    50    23    47    1
@<TRIPOS>MOLECULE
mol6_4_25
 47 50 0 0 0
SMALL
USER_CHARGES
****
VDW energy = -35.83
@<TRIPOS>ATOM
   1 N1        3.7120     4.1520     7.3415  N.pl3   1  <O>11      -0.3431
   2 C1        3.3329     4.3488     5.9653  C.ar    1  <O>11       0.1167
   3 C2        2.1864     5.0670     5.6766  C.ar    1  <O>11      -0.0143
   4 C3        1.8446     5.2530     4.3395  C.ar    1  <O>11      -0.0100
   5 C4        0.7410     5.9700     3.9760  C.ar    1  <O>11       0.0230
   6 C5        0.7987     7.0659     3.2194  C.ar    1  <O>11       0.0303
   7 N2       -0.5370     7.4508     3.2121  N.ar    1  <O>11      -0.2839
   8 N3       -1.3506     6.5305     3.8169  N.ar    1  <O>11      -0.1779
   9 C6       -0.5083     5.6375     4.3457  C.ar    1  <O>11       0.0751
  10 C7       -0.7826     4.4797     5.1840  C.3     1  <O>11       0.0208
  11 C8       -2.2267     4.4384     5.5518  C.3     1  <O>11      -0.0274
  12 C9       -2.4178     2.9616     5.8626  C.3     1  <O>11       0.0153
  13 N4       -1.4696     2.2824     4.9964  N.am    1  <O>11      -0.3006
  14 C10      -1.4131     0.9572     4.6980  C.2     1  <O>11       0.2187
  15 O1       -0.5478     0.5374     3.9445  O.2     1  <O>11      -0.2753
  16 C11      -2.4092     0.0157     5.2901  C.3     1  <O>11       0.0358
  17 C12      -2.5758     0.2887     6.7487  C.3     1  <O>11      -0.0419
  18 C13      -3.9956    -0.1930     7.0490  C.3     1  <O>11      -0.0523
  19 C14      -4.6721    -0.4161     5.6971  C.3     1  <O>11      -0.0523
  20 C15      -3.7496     0.2267     4.6720  C.3     1  <O>11      -0.0419
  21 C16      -0.5102     3.2206     4.4319  C.3     1  <O>11       0.0230
  22 C17       2.6639     4.6834     3.3579  C.ar    1  <O>11      -0.0356
  23 C18       3.8024     3.9729     3.7374  C.ar    1  <O>11       0.0302
  24 N5        4.1374     3.8086     5.0266  N.ar    1  <O>11      -0.2407
  25 H1        4.5551     3.6243     7.5678  H       1  <O>11       0.1437
  26 H2        3.1373     4.5403     8.0894  H       1  <O>11       0.1437
  27 H3       -0.8528     8.3174     2.8014  H       1  <O>11       0.1882
  28 H4       -0.1644     4.5276     6.0795  H       1  <O>11       0.0380
  29 H5       -2.4336     5.0577     6.4230  H       1  <O>11       0.0287
  30 H6       -2.8584     4.7554     4.7218  H       1  <O>11       0.0287
  31 H7       -2.1972     2.7572     6.9106  H       1  <O>11       0.0465
  32 H8       -3.4368     2.6490     5.6381  H       1  <O>11       0.0465
  33 H9       -2.0778    -1.0109     5.1306  H       1  <O>11       0.0394
  34 H10      -1.8452    -0.2699     7.3326  H       1  <O>11       0.0272
  35 H11      -2.4729     1.3515     6.9586  H       1  <O>11       0.0272
  36 H12      -3.9668    -1.1243     7.6137  H       1  <O>11       0.0265
  37 H13      -4.5359     0.5618     7.6207  H       1  <O>11       0.0265
  38 H14      -4.7806    -1.4817     5.4947  H       1  <O>11       0.0265
  39 H15      -5.6527     0.0584     5.6772  H       1  <O>11       0.0265
  40 H16      -3.8238    -0.2697     3.7046  H       1  <O>11       0.0272
  41 H17      -3.9675     1.2890     4.5528  H       1  <O>11       0.0272
  42 H18       0.5130     2.8810     4.5974  H       1  <O>11       0.0471
  43 H19      -0.6788     3.3577     3.3653  H       1  <O>11       0.0471
  44 H20       1.5999     5.4547     6.4321  H       1  <O>11       0.0658
  45 H21       1.6124     7.5077     2.7638  H       1  <O>11       0.0830
  46 H22       2.4268     4.7886     2.3590  H       1  <O>11       0.0639
  47 H23       4.4041     3.5620     3.0065  H       1  <O>11       0.0830
@<TRIPOS>BOND
     1     1     2    1
     2     2     3   ar
     3     3     4   ar
     4     4     5    1
     5     5     6   ar
     6     6     7   ar
     7     7     8   ar
     8     8     9   ar
     9     5     9   ar
    10     9    10    1
    11    10    11    1
    12    11    12    1
    13    12    13    1
    14    13    14   am
    15    14    15    2
    16    14    16    1
    17    16    17    1
    18    17    18    1
    19    18    19    1
    20    19    20    1
    21    16    20    1
    22    13    21    1
    23    10    21    1
    24     4    22   ar
    25    22    23   ar
    26    23    24   ar
    27     2    24   ar
    28     1    25    1
    29     1    26    1
    30     7    27    1
    31    10    28    1
    32    11    29    1
    33    11    30    1
    34    12    31    1
    35    12    32    1
    36    16    33    1
    37    17    34    1
    38    17    35    1
    39    18    36    1
    40    18    37    1
    41    19    38    1
    42    19    39    1
    43    20    40    1
    44    20    41    1
    45    21    42    1
    46    21    43    1
    47     3    44    1
    48     6    45    1
    49    22    46    1
    50    23    47    1
@<TRIPOS>MOLECULE
mol6_4_26
 47 50 0 0 0
SMALL
USER_CHARGES
****
VDW energy = -35.04
@<TRIPOS>ATOM
   1 N1        3.7120     4.1520     7.3415  N.pl3   1  <O>11      -0.3431
   2 C1        3.3329     4.3488     5.9653  C.ar    1  <O>11       0.1167
   3 C2        2.1864     5.0670     5.6766  C.ar    1  <O>11      -0.0143
   4 C3        1.8446     5.2530     4.3395  C.ar    1  <O>11      -0.0100
   5 C4        0.7410     5.9700     3.9760  C.ar    1  <O>11       0.0230
   6 C5       -0.2647     5.4544     3.2693  C.ar    1  <O>11       0.0303
   7 N2       -1.0679     6.5760     3.0983  N.ar    1  <O>11      -0.2839
   8 N3       -0.6144     7.6576     3.8048  N.ar    1  <O>11      -0.1779
   9 C6        0.5638     7.2635     4.2978  C.ar    1  <O>11       0.0751
  10 C7        1.5542     8.0123     5.0573  C.3     1  <O>11       0.0208
  11 C8        2.5306     8.6602     4.1358  C.3     1  <O>11      -0.0274
  12 C9        3.0492     9.8012     4.9977  C.3     1  <O>11       0.0153
  13 N4        1.9285    10.1476     5.8547  N.am    1  <O>11      -0.3006
  14 C10       1.7791    11.2578     6.6252  C.2     1  <O>11       0.2187
  15 O1        2.6562    12.1080     6.6477  O.2     1  <O>11      -0.2753
  16 C11       0.5439    11.4367     7.4447  C.3     1  <O>11       0.0358
  17 C12       0.2088    10.1691     8.1593  C.3     1  <O>11      -0.0419
  18 C13      -0.5596    10.6401     9.3944  C.3     1  <O>11      -0.0523
  19 C14      -0.3473    12.1505     9.4866  C.3     1  <O>11      -0.0523
  20 C15       0.7705    12.4627     8.5026  C.3     1  <O>11      -0.0419
  21 C16       0.8985     9.1196     5.8116  C.3     1  <O>11       0.0230
  22 C17       2.6639     4.6834     3.3579  C.ar    1  <O>11      -0.0356
  23 C18       3.8024     3.9729     3.7374  C.ar    1  <O>11       0.0302
  24 N5        4.1374     3.8086     5.0266  N.ar    1  <O>11      -0.2407
  25 H1        4.5551     3.6243     7.5678  H       1  <O>11       0.1437
  26 H2        3.1373     4.5403     8.0894  H       1  <O>11       0.1437
  27 H3       -1.8908     6.5737     2.5133  H       1  <O>11       0.1882
  28 H4        2.0683     7.3395     5.7425  H       1  <O>11       0.0380
  29 H5        3.3310     7.9761     3.8587  H       1  <O>11       0.0287
  30 H6        2.0419     9.0322     3.2350  H       1  <O>11       0.0287
  31 H7        3.9033     9.4768     5.5927  H       1  <O>11       0.0465
  32 H8        3.3385    10.6506     4.3799  H       1  <O>11       0.0465
  33 H9       -0.2805    11.7381     6.7975  H       1  <O>11       0.0394
  34 H10      -0.4135     9.5273     7.5368  H       1  <O>11       0.0272
  35 H11       1.1125     9.6337     8.4438  H       1  <O>11       0.0272
  36 H12      -1.6203    10.4150     9.2879  H       1  <O>11       0.0265
  37 H13      -0.1723    10.1500    10.2879  H       1  <O>11       0.0265
  38 H14      -1.2572    12.6826     9.2086  H       1  <O>11       0.0265
  39 H15      -0.0553    12.4348    10.4971  H       1  <O>11       0.0265
  40 H16       0.6776    13.4726     8.1033  H       1  <O>11       0.0272
  41 H17       1.7513    12.3441     8.9652  H       1  <O>11       0.0272
  42 H18       0.6243     8.7980     6.8171  H       1  <O>11       0.0471
  43 H19       0.0117     9.4765     5.2906  H       1  <O>11       0.0471
  44 H20       1.5999     5.4547     6.4321  H       1  <O>11       0.0658
  45 H21      -0.4079     4.4871     2.9393  H       1  <O>11       0.0830
  46 H22       2.4268     4.7886     2.3590  H       1  <O>11       0.0639
  47 H23       4.4041     3.5620     3.0065  H       1  <O>11       0.0830
@<TRIPOS>BOND
     1     1     2    1
     2     2     3   ar
     3     3     4   ar
     4     4     5    1
     5     5     6   ar
     6     6     7   ar
     7     7     8   ar
     8     8     9   ar
     9     5     9   ar
    10     9    10    1
    11    10    11    1
    12    11    12    1
    13    12    13    1
    14    13    14   am
    15    14    15    2
    16    14    16    1
    17    16    17    1
    18    17    18    1
    19    18    19    1
    20    19    20    1
    21    16    20    1
    22    13    21    1
    23    10    21    1
    24     4    22   ar
    25    22    23   ar
    26    23    24   ar
    27     2    24   ar
    28     1    25    1
    29     1    26    1
    30     7    27    1
    31    10    28    1
    32    11    29    1
    33    11    30    1
    34    12    31    1
    35    12    32    1
    36    16    33    1
    37    17    34    1
    38    17    35    1
    39    18    36    1
    40    18    37    1
    41    19    38    1
    42    19    39    1
    43    20    40    1
    44    20    41    1
    45    21    42    1
    46    21    43    1
    47     3    44    1
    48     6    45    1
    49    22    46    1
    50    23    47    1
@<TRIPOS>MOLECULE
mol6_4_27
 47 50 0 0 0
SMALL
USER_CHARGES
****
VDW energy = -34.94
@<TRIPOS>ATOM
   1 N1        3.7120     4.1520     7.3415  N.pl3   1  <O>11      -0.3431
   2 C1        3.3329     4.3488     5.9653  C.ar    1  <O>11       0.1167
   3 C2        2.1864     5.0670     5.6766  C.ar    1  <O>11      -0.0143
   4 C3        1.8446     5.2530     4.3395  C.ar    1  <O>11      -0.0100
   5 C4        0.7410     5.9700     3.9760  C.ar    1  <O>11       0.0230
   6 C5       -0.4632     5.4231     3.8104  C.ar    1  <O>11       0.0303
   7 N2       -1.1934     6.5226     3.3741  N.ar    1  <O>11      -0.2839
   8 N3       -0.4726     7.6854     3.4293  N.ar    1  <O>11      -0.1779
   9 C6        0.7644     7.2957     3.7522  C.ar    1  <O>11       0.0751
  10 C7        1.9873     8.0764     3.8689  C.3     1  <O>11       0.0208
  11 C8        1.7488     9.4797     3.4259  C.3     1  <O>11      -0.0274
  12 C9        2.8609    10.2199     4.1533  C.3     1  <O>11       0.0153
  13 N4        3.0681     9.4574     5.3724  N.am    1  <O>11      -0.3006
  14 C10       3.7631     9.8279     6.4806  C.2     1  <O>11       0.2187
  15 O1        4.3056    10.9218     6.5236  O.2     1  <O>11      -0.2753
  16 C11       3.8642     8.8975     7.6438  C.3     1  <O>11       0.0358
  17 C12       4.1866     7.5167     7.1756  C.3     1  <O>11      -0.0419
  18 C13       4.9078     6.8874     8.3680  C.3     1  <O>11      -0.0523
  19 C14       5.2405     8.0309     9.3254  C.3     1  <O>11      -0.0523
  20 C15       4.9868     9.3065     8.5359  C.3     1  <O>11      -0.0419
  21 C16       2.4137     8.1591     5.2960  C.3     1  <O>11       0.0230
  22 C17       2.6639     4.6834     3.3579  C.ar    1  <O>11      -0.0356
  23 C18       3.8024     3.9729     3.7374  C.ar    1  <O>11       0.0302
  24 N5        4.1374     3.8086     5.0266  N.ar    1  <O>11      -0.2407
  25 H1        4.5551     3.6243     7.5678  H       1  <O>11       0.1437
  26 H2        3.1373     4.5403     8.0894  H       1  <O>11       0.1437
  27 H3       -2.1488     6.4514     3.0553  H       1  <O>11       0.1882
  28 H4        2.7688     7.6159     3.2659  H       1  <O>11       0.0380
  29 H5        1.8462     9.5783     2.3460  H       1  <O>11       0.0287
  30 H6        0.7656     9.8338     3.7363  H       1  <O>11       0.0287
  31 H7        3.7695    10.2378     3.5510  H       1  <O>11       0.0465
  32 H8        2.5580    11.2405     4.3843  H       1  <O>11       0.0465
  33 H9        2.9234     8.9023     8.1953  H       1  <O>11       0.0394
  34 H10       3.2768     6.9666     6.9383  H       1  <O>11       0.0272
  35 H11       4.8329     7.5449     6.3005  H       1  <O>11       0.0272
  36 H12       4.2616     6.1608     8.8595  H       1  <O>11       0.0265
  37 H13       5.8224     6.3948     8.0372  H       1  <O>11       0.0265
  38 H14       4.5964     7.9939    10.2041  H       1  <O>11       0.0265
  39 H15       6.2830     7.9773     9.6375  H       1  <O>11       0.0265
  40 H16       4.6952    10.1275     9.1907  H       1  <O>11       0.0272
  41 H17       5.8653     9.5973     7.9582  H       1  <O>11       0.0272
  42 H18       3.1087     7.3555     5.5427  H       1  <O>11       0.0471
  43 H19       1.5554     8.1141     5.9641  H       1  <O>11       0.0471
  44 H20       1.5999     5.4547     6.4321  H       1  <O>11       0.0658
  45 H21      -0.7697     4.4497     3.9640  H       1  <O>11       0.0830
  46 H22       2.4268     4.7886     2.3590  H       1  <O>11       0.0639
  47 H23       4.4041     3.5620     3.0065  H       1  <O>11       0.0830
@<TRIPOS>BOND
     1     1     2    1
     2     2     3   ar
     3     3     4   ar
     4     4     5    1
     5     5     6   ar
     6     6     7   ar
     7     7     8   ar
     8     8     9   ar
     9     5     9   ar
    10     9    10    1
    11    10    11    1
    12    11    12    1
    13    12    13    1
    14    13    14   am
    15    14    15    2
    16    14    16    1
    17    16    17    1
    18    17    18    1
    19    18    19    1
    20    19    20    1
    21    16    20    1
    22    13    21    1
    23    10    21    1
    24     4    22   ar
    25    22    23   ar
    26    23    24   ar
    27     2    24   ar
    28     1    25    1
    29     1    26    1
    30     7    27    1
    31    10    28    1
    32    11    29    1
    33    11    30    1
    34    12    31    1
    35    12    32    1
    36    16    33    1
    37    17    34    1
    38    17    35    1
    39    18    36    1
    40    18    37    1
    41    19    38    1
    42    19    39    1
    43    20    40    1
    44    20    41    1
    45    21    42    1
    46    21    43    1
    47     3    44    1
    48     6    45    1
    49    22    46    1
    50    23    47    1
@<TRIPOS>MOLECULE
mol6_4_28
 47 50 0 0 0
SMALL
USER_CHARGES
****
VDW energy = -31.56
@<TRIPOS>ATOM
   1 N1        3.7120     4.1520     7.3415  N.pl3   1  <O>11      -0.3431
   2 C1        3.3329     4.3488     5.9653  C.ar    1  <O>11       0.1167
   3 C2        2.1864     5.0670     5.6766  C.ar    1  <O>11      -0.0143
   4 C3        1.8446     5.2530     4.3395  C.ar    1  <O>11      -0.0100
   5 C4        0.7410     5.9700     3.9760  C.ar    1  <O>11       0.0230
   6 C5       -0.2647     5.4544     3.2693  C.ar    1  <O>11       0.0303
   7 N2       -1.0679     6.5760     3.0983  N.ar    1  <O>11      -0.2839
   8 N3       -0.6144     7.6576     3.8048  N.ar    1  <O>11      -0.1779
   9 C6        0.5638     7.2635     4.2978  C.ar    1  <O>11       0.0751
  10 C7        1.5542     8.0123     5.0573  C.3     1  <O>11       0.0208
  11 C8        1.1638     9.4486     5.1407  C.3     1  <O>11      -0.0274
  12 C9        1.9136     9.8942     6.3870  C.3     1  <O>11       0.0153
  13 N4        1.9710     8.7059     7.2208  N.am    1  <O>11      -0.3006
  14 C10       2.3043     8.6249     8.5363  C.2     1  <O>11       0.2187
  15 O1        2.3043     7.5413     9.1007  O.2     1  <O>11      -0.2753
  16 C11       2.6690     9.8604     9.2912  C.3     1  <O>11       0.0358
  17 C12       2.9942     9.5234    10.7091  C.3     1  <O>11      -0.0419
  18 C13       3.9532    10.6351    11.1364  C.3     1  <O>11      -0.0523
  19 C14       4.3729    11.3597     9.8582  C.3     1  <O>11      -0.0523
  20 C15       3.9014    10.4718     8.7162  C.3     1  <O>11      -0.0419
  21 C16       1.6116     7.5160     6.4628  C.3     1  <O>11       0.0230
  22 C17       2.6639     4.6834     3.3579  C.ar    1  <O>11      -0.0356
  23 C18       3.8024     3.9729     3.7374  C.ar    1  <O>11       0.0302
  24 N5        4.1374     3.8086     5.0266  N.ar    1  <O>11      -0.2407
  25 H1        4.5551     3.6243     7.5678  H       1  <O>11       0.1437
  26 H2        3.1373     4.5403     8.0894  H       1  <O>11       0.1437
  27 H3       -1.8908     6.5737     2.5133  H       1  <O>11       0.1882
  28 H4        2.5279     7.9111     4.5796  H       1  <O>11       0.0380
  29 H5        1.4904    10.0017     4.2616  H       1  <O>11       0.0287
  30 H6        0.0865     9.5622     5.2625  H       1  <O>11       0.0287
  31 H7        2.9174    10.2344     6.1313  H       1  <O>11       0.0465
  32 H8        1.3768    10.6950     6.8943  H       1  <O>11       0.0465
  33 H9        1.8413    10.5692     9.2488  H       1  <O>11       0.0394
  34 H10       2.0950     9.5295    11.3240  H       1  <O>11       0.0272
  35 H11       3.4736     8.5488    10.7760  H       1  <O>11       0.0272
  36 H12       3.4525    11.3261    11.8137  H       1  <O>11       0.0265
  37 H13       4.8259    10.2092    11.6319  H       1  <O>11       0.0265
  38 H14       3.8969    12.3386     9.7994  H       1  <O>11       0.0265
  39 H15       5.4553    11.4803     9.8248  H       1  <O>11       0.0265
  40 H16       3.6760    11.0572     7.8250  H       1  <O>11       0.0272
  41 H17       4.6438     9.7106     8.4724  H       1  <O>11       0.0272
  42 H18       2.3693     6.7391     6.5716  H       1  <O>11       0.0471
  43 H19       0.6455     7.1275     6.7803  H       1  <O>11       0.0471
  44 H20       1.5999     5.4547     6.4321  H       1  <O>11       0.0658
  45 H21      -0.4079     4.4871     2.9393  H       1  <O>11       0.0830
  46 H22       2.4268     4.7886     2.3590  H       1  <O>11       0.0639
  47 H23       4.4041     3.5620     3.0065  H       1  <O>11       0.0830
@<TRIPOS>BOND
     1     1     2    1
     2     2     3   ar
     3     3     4   ar
     4     4     5    1
     5     5     6   ar
     6     6     7   ar
     7     7     8   ar
     8     8     9   ar
     9     5     9   ar
    10     9    10    1
    11    10    11    1
    12    11    12    1
    13    12    13    1
    14    13    14   am
    15    14    15    2
    16    14    16    1
    17    16    17    1
    18    17    18    1
    19    18    19    1
    20    19    20    1
    21    16    20    1
    22    13    21    1
    23    10    21    1
    24     4    22   ar
    25    22    23   ar
    26    23    24   ar
    27     2    24   ar
    28     1    25    1
    29     1    26    1
    30     7    27    1
    31    10    28    1
    32    11    29    1
    33    11    30    1
    34    12    31    1
    35    12    32    1
    36    16    33    1
    37    17    34    1
    38    17    35    1
    39    18    36    1
    40    18    37    1
    41    19    38    1
    42    19    39    1
    43    20    40    1
    44    20    41    1
    45    21    42    1
    46    21    43    1
    47     3    44    1
    48     6    45    1
    49    22    46    1
    50    23    47    1
@<TRIPOS>MOLECULE
mol6_4_29
 47 50 0 0 0
SMALL
USER_CHARGES
****
VDW energy = -24.05
@<TRIPOS>ATOM
   1 N1        3.7120     4.1520     7.3415  N.pl3   1  <O>11      -0.3431
   2 C1        3.3329     4.3488     5.9653  C.ar    1  <O>11       0.1167
   3 C2        2.1864     5.0670     5.6766  C.ar    1  <O>11      -0.0143
   4 C3        1.8446     5.2530     4.3395  C.ar    1  <O>11      -0.0100
   5 C4        0.7410     5.9700     3.9760  C.ar    1  <O>11       0.0230
   6 C5       -0.2647     5.4544     3.2693  C.ar    1  <O>11       0.0303
   7 N2       -1.0679     6.5760     3.0983  N.ar    1  <O>11      -0.2839
   8 N3       -0.6144     7.6576     3.8048  N.ar    1  <O>11      -0.1779
   9 C6        0.5638     7.2635     4.2978  C.ar    1  <O>11       0.0751
  10 C7        1.5542     8.0123     5.0573  C.3     1  <O>11       0.0208
  11 C8        1.1638     9.4486     5.1407  C.3     1  <O>11      -0.0274
  12 C9        1.9136     9.8942     6.3870  C.3     1  <O>11       0.0153
  13 N4        1.9710     8.7059     7.2208  N.am    1  <O>11      -0.3006
  14 C10       2.3043     8.6249     8.5363  C.2     1  <O>11       0.2187
  15 O1        2.6038     9.6358     9.1537  O.2     1  <O>11      -0.2753
  16 C11       2.3056     7.3005     9.2257  C.3     1  <O>11       0.0358
  17 C12       2.7020     7.4622    10.6563  C.3     1  <O>11      -0.0419
  18 C13       2.0286     6.2812    11.3560  C.3     1  <O>11      -0.0523
  19 C14       1.0317     5.6967    10.3561  C.3     1  <O>11      -0.0523
  20 C15       0.9307     6.7238     9.2381  C.3     1  <O>11      -0.0419
  21 C16       1.6116     7.5160     6.4628  C.3     1  <O>11       0.0230
  22 C17       2.6639     4.6834     3.3579  C.ar    1  <O>11      -0.0356
  23 C18       3.8024     3.9729     3.7374  C.ar    1  <O>11       0.0302
  24 N5        4.1374     3.8086     5.0266  N.ar    1  <O>11      -0.2407
  25 H1        4.5551     3.6243     7.5678  H       1  <O>11       0.1437
  26 H2        3.1373     4.5403     8.0894  H       1  <O>11       0.1437
  27 H3       -1.8908     6.5737     2.5133  H       1  <O>11       0.1882
  28 H4        2.5279     7.9111     4.5796  H       1  <O>11       0.0380
  29 H5        1.4904    10.0017     4.2616  H       1  <O>11       0.0287
  30 H6        0.0865     9.5622     5.2625  H       1  <O>11       0.0287
  31 H7        2.9174    10.2344     6.1313  H       1  <O>11       0.0465
  32 H8        1.3768    10.6950     6.8943  H       1  <O>11       0.0465
  33 H9        2.9930     6.6258     8.7143  H       1  <O>11       0.0394
  34 H10       3.7847     7.4115    10.7656  H       1  <O>11       0.0272
  35 H11       2.3405     8.4082    11.0545  H       1  <O>11       0.0272
  36 H12       2.7703     5.5315    11.6299  H       1  <O>11       0.0265
  37 H13       1.5083     6.6214    12.2516  H       1  <O>11       0.0265
  38 H14       1.3940     4.7455     9.9661  H       1  <O>11       0.0265
  39 H15       0.0600     5.5493    10.8266  H       1  <O>11       0.0265
  40 H16       0.6891     6.2518     8.2859  H       1  <O>11       0.0272
  41 H17       0.1840     7.4859     9.4654  H       1  <O>11       0.0272
  42 H18       2.3693     6.7391     6.5716  H       1  <O>11       0.0471
  43 H19       0.6455     7.1275     6.7803  H       1  <O>11       0.0471
  44 H20       1.5999     5.4547     6.4321  H       1  <O>11       0.0658
  45 H21      -0.4079     4.4871     2.9393  H       1  <O>11       0.0830
  46 H22       2.4268     4.7886     2.3590  H       1  <O>11       0.0639
  47 H23       4.4041     3.5620     3.0065  H       1  <O>11       0.0830
@<TRIPOS>BOND
     1     1     2    1
     2     2     3   ar
     3     3     4   ar
     4     4     5    1
     5     5     6   ar
     6     6     7   ar
     7     7     8   ar
     8     8     9   ar
     9     5     9   ar
    10     9    10    1
    11    10    11    1
    12    11    12    1
    13    12    13    1
    14    13    14   am
    15    14    15    2
    16    14    16    1
    17    16    17    1
    18    17    18    1
    19    18    19    1
    20    19    20    1
    21    16    20    1
    22    13    21    1
    23    10    21    1
    24     4    22   ar
    25    22    23   ar
    26    23    24   ar
    27     2    24   ar
    28     1    25    1
    29     1    26    1
    30     7    27    1
    31    10    28    1
    32    11    29    1
    33    11    30    1
    34    12    31    1
    35    12    32    1
    36    16    33    1
    37    17    34    1
    38    17    35    1
    39    18    36    1
    40    18    37    1
    41    19    38    1
    42    19    39    1
    43    20    40    1
    44    20    41    1
    45    21    42    1
    46    21    43    1
    47     3    44    1
    48     6    45    1
    49    22    46    1
    50    23    47    1
@<TRIPOS>MOLECULE
mol6_4_30
 47 50 0 0 0
SMALL
USER_CHARGES
****
VDW energy = -21.99
@<TRIPOS>ATOM
   1 N1        3.7120     4.1520     7.3415  N.pl3   1  <O>11      -0.3431
   2 C1        3.3329     4.3488     5.9653  C.ar    1  <O>11       0.1167
   3 C2        2.1864     5.0670     5.6766  C.ar    1  <O>11      -0.0143
   4 C3        1.8446     5.2530     4.3395  C.ar    1  <O>11      -0.0100
   5 C4        0.7410     5.9700     3.9760  C.ar    1  <O>11       0.0230
   6 C5       -0.4632     5.4231     3.8104  C.ar    1  <O>11       0.0303
   7 N2       -1.1934     6.5226     3.3741  N.ar    1  <O>11      -0.2839
   8 N3       -0.4726     7.6854     3.4293  N.ar    1  <O>11      -0.1779
   9 C6        0.7644     7.2957     3.7522  C.ar    1  <O>11       0.0751
  10 C7        1.9873     8.0764     3.8689  C.3     1  <O>11       0.0208
  11 C8        3.1798     7.1946     3.7192  C.3     1  <O>11      -0.0274
  12 C9        4.2398     8.1915     3.2759  C.3     1  <O>11       0.0153
  13 N4        3.5022     9.2015     2.5367  N.am    1  <O>11      -0.3006
  14 C10       4.0001    10.1684     1.7210  C.2     1  <O>11       0.2187
  15 O1        3.2418    10.9487     1.1653  O.2     1  <O>11      -0.2753
  16 C11       5.4734    10.2754     1.5034  C.3     1  <O>11       0.0358
  17 C12       5.7787    11.4046     0.5752  C.3     1  <O>11      -0.0419
  18 C13       7.1948    11.8263     0.9689  C.3     1  <O>11      -0.0523
  19 C14       7.4979    11.1369     2.2985  C.3     1  <O>11      -0.0523
  20 C15       6.1628    10.5941     2.7865  C.3     1  <O>11      -0.0419
  21 C16       2.0698     9.0762     2.7650  C.3     1  <O>11       0.0230
  22 C17       2.6639     4.6834     3.3579  C.ar    1  <O>11      -0.0356
  23 C18       3.8024     3.9729     3.7374  C.ar    1  <O>11       0.0302
  24 N5        4.1374     3.8086     5.0266  N.ar    1  <O>11      -0.2407
  25 H1        4.5551     3.6243     7.5678  H       1  <O>11       0.1437
  26 H2        3.1373     4.5403     8.0894  H       1  <O>11       0.1437
  27 H3       -2.1488     6.4514     3.0553  H       1  <O>11       0.1882
  28 H4        2.0050     8.5773     4.8360  H       1  <O>11       0.0380
  29 H5        3.4478     6.7234     4.6635  H       1  <O>11       0.0287
  30 H6        3.0150     6.4265     2.9633  H       1  <O>11       0.0287
  31 H7        4.7379     8.6331     4.1394  H       1  <O>11       0.0465
  32 H8        4.9790     7.7099     2.6370  H       1  <O>11       0.0465
  33 H9        5.8494     9.3361     1.0965  H       1  <O>11       0.0394
  34 H10       5.7474    11.0721    -0.4617  H       1  <O>11       0.0272
  35 H11       5.0756    12.2232     0.7158  H       1  <O>11       0.0272
  36 H12       7.9083    11.5089     0.2092  H       1  <O>11       0.0265
  37 H13       7.2461    12.9090     1.0856  H       1  <O>11       0.0265
  38 H14       8.2086    10.3230     2.1543  H       1  <O>11       0.0265
  39 H15       7.9038    11.8501     3.0153  H       1  <O>11       0.0265
  40 H16       6.2965     9.7020     3.3981  H       1  <O>11       0.0272
  41 H17       5.6128    11.3452     3.3552  H       1  <O>11       0.0272
  42 H18       1.6372    10.0301     3.0693  H       1  <O>11       0.0471
  43 H19       1.5618     8.7160     1.8721  H       1  <O>11       0.0471
  44 H20       1.5999     5.4547     6.4321  H       1  <O>11       0.0658
  45 H21      -0.7697     4.4497     3.9640  H       1  <O>11       0.0830
  46 H22       2.4268     4.7886     2.3590  H       1  <O>11       0.0639
  47 H23       4.4041     3.5620     3.0065  H       1  <O>11       0.0830
@<TRIPOS>BOND
     1     1     2    1
     2     2     3   ar
     3     3     4   ar
     4     4     5    1
     5     5     6   ar
     6     6     7   ar
     7     7     8   ar
     8     8     9   ar
     9     5     9   ar
    10     9    10    1
    11    10    11    1
    12    11    12    1
    13    12    13    1
    14    13    14   am
    15    14    15    2
    16    14    16    1
    17    16    17    1
    18    17    18    1
    19    18    19    1
    20    19    20    1
    21    16    20    1
    22    13    21    1
    23    10    21    1
    24     4    22   ar
    25    22    23   ar
    26    23    24   ar
    27     2    24   ar
    28     1    25    1
    29     1    26    1
    30     7    27    1
    31    10    28    1
    32    11    29    1
    33    11    30    1
    34    12    31    1
    35    12    32    1
    36    16    33    1
    37    17    34    1
    38    17    35    1
    39    18    36    1
    40    18    37    1
    41    19    38    1
    42    19    39    1
    43    20    40    1
    44    20    41    1
    45    21    42    1
    46    21    43    1
    47     3    44    1
    48     6    45    1
    49    22    46    1
    50    23    47    1
