@<TRIPOS>MOLECULE
mol60_1_1
 33 35 0 0 0
SMALL
USER_CHARGES
****
VDW energy = 60.07
@<TRIPOS>ATOM
   1 O1        6.7938    -0.2446    -2.0599  O.2     1  <O>11      -0.2658
   2 C1        7.4213     0.9528    -1.6663  C.ar    1  <O>11       0.2725
   3 N1        6.7347     1.7343    -0.7968  N.ar    1  <O>11      -0.2425
   4 N2        7.2340     2.9457    -0.4598  N.ar    1  <O>11      -0.1750
   5 C2        8.4134     3.3437    -0.9933  C.ar    1  <O>11       0.0736
   6 C3        8.8350     4.7170    -0.6550  C.3     1  <O>11       0.0172
   7 C4        8.3028     5.6629    -1.6702  C.ar    1  <O>11      -0.0394
   8 C5        7.0433     6.2596    -1.4919  C.ar    1  <O>11      -0.0581
   9 C6        6.5376     7.1405    -2.4547  C.ar    1  <O>11      -0.0593
  10 C7        7.2827     7.4371    -3.5984  C.ar    1  <O>11      -0.0316
  11 C8        8.5416     6.8474    -3.7733  C.ar    1  <O>11       0.1219
  12 N3        9.3076     7.1572    -4.9521  N.4     1  <O>11       0.0060
  13 O2        9.6014     5.9353    -5.6726  O.2     1  <O>11      -0.1300
  14 O3       10.5486     7.8016    -4.5671  O.2     1  <O>11      -0.3961
  15 C9        9.0543     5.9684    -2.8175  C.ar    1  <O>11      -0.0281
  16 C10       9.2100     2.5349    -1.8162  C.ar    1  <O>11       0.0106
  17 C11      10.4688     2.9255    -2.3277  C.ar    1  <O>11      -0.0521
  18 C12      11.1965     2.0826    -3.1684  C.ar    1  <O>11      -0.0611
  19 C13      10.6797     0.8410    -3.5204  C.ar    1  <O>11      -0.0610
  20 C14       9.4353     0.4418    -3.0314  C.ar    1  <O>11      -0.0487
  21 C15       8.6875     1.2787    -2.1714  C.ar    1  <O>11       0.0496
  22 H1        5.8603     1.4136    -0.4062  H       1  <O>11       0.1921
  23 H2        9.9243     4.7707    -0.6448  H       1  <O>11       0.0377
  24 H3        8.4489     4.9842     0.3287  H       1  <O>11       0.0377
  25 H4        6.4890     6.0475    -0.6476  H       1  <O>11       0.0620
  26 H5        5.6102     7.5726    -2.3192  H       1  <O>11       0.0618
  27 H6        6.9090     8.0855    -4.3090  H       1  <O>11       0.0640
  28 H7       10.5295     8.6083    -4.0908  H       1  <O>11       0.3292
  29 H8        9.9848     5.5432    -2.9535  H       1  <O>11       0.0643
  30 H9       10.8555     3.8484    -2.0753  H       1  <O>11       0.0624
  31 H10      12.1168     2.3803    -3.5283  H       1  <O>11       0.0618
  32 H11      11.2155     0.2156    -4.1423  H       1  <O>11       0.0618
  33 H12       9.0548    -0.4786    -3.3016  H       1  <O>11       0.0625
@<TRIPOS>BOND
     1     1     2    2
     2     2     3   ar
     3     3     4   ar
     4     4     5   ar
     5     5     6    1
     6     6     7    1
     7     7     8   ar
     8     8     9   ar
     9     9    10   ar
    10    10    11   ar
    11    11    12    1
    12    12    13    2
    13    12    14    1
    14    11    15   ar
    15     7    15   ar
    16     5    16   ar
    17    16    17   ar
    18    17    18   ar
    19    18    19   ar
    20    19    20   ar
    21    20    21   ar
    22     2    21   ar
    23    16    21   ar
    24     3    22    1
    25     6    23    1
    26     6    24    1
    27     8    25    1
    28     9    26    1
    29    10    27    1
    30    14    28    1
    31    15    29    1
    32    17    30    1
    33    18    31    1
    34    19    32    1
    35    20    33    1
@<TRIPOS>MOLECULE
mol60_1_2
 33 35 0 0 0
SMALL
USER_CHARGES
****
VDW energy = 60.41
@<TRIPOS>ATOM
   1 O1        6.7938    -0.2446    -2.0599  O.2     1  <O>11      -0.2658
   2 C1        7.4213     0.9528    -1.6663  C.ar    1  <O>11       0.2725
   3 N1        6.7347     1.7343    -0.7968  N.ar    1  <O>11      -0.2425
   4 N2        7.2340     2.9457    -0.4598  N.ar    1  <O>11      -0.1750
   5 C2        8.4134     3.3437    -0.9933  C.ar    1  <O>11       0.0736
   6 C3        8.8350     4.7170    -0.6550  C.3     1  <O>11       0.0172
   7 C4        8.3028     5.6629    -1.6702  C.ar    1  <O>11      -0.0394
   8 C5        7.0433     6.2596    -1.4919  C.ar    1  <O>11      -0.0581
   9 C6        6.5376     7.1405    -2.4547  C.ar    1  <O>11      -0.0593
  10 C7        7.2827     7.4371    -3.5984  C.ar    1  <O>11      -0.0316
  11 C8        8.5416     6.8474    -3.7733  C.ar    1  <O>11       0.1219
  12 N3        9.3076     7.1572    -4.9521  N.4     1  <O>11       0.0060
  13 O2        9.4526     8.5937    -5.0707  O.2     1  <O>11      -0.1300
  14 O3        8.6235     6.6422    -6.1227  O.2     1  <O>11      -0.3961
  15 C9        9.0543     5.9684    -2.8175  C.ar    1  <O>11      -0.0281
  16 C10       9.2100     2.5349    -1.8162  C.ar    1  <O>11       0.0106
  17 C11      10.4688     2.9255    -2.3277  C.ar    1  <O>11      -0.0521
  18 C12      11.1965     2.0826    -3.1684  C.ar    1  <O>11      -0.0611
  19 C13      10.6797     0.8410    -3.5204  C.ar    1  <O>11      -0.0610
  20 C14       9.4353     0.4418    -3.0314  C.ar    1  <O>11      -0.0487
  21 C15       8.6875     1.2787    -2.1714  C.ar    1  <O>11       0.0496
  22 H1        5.8603     1.4136    -0.4062  H       1  <O>11       0.1921
  23 H2        9.9243     4.7707    -0.6448  H       1  <O>11       0.0377
  24 H3        8.4489     4.9842     0.3287  H       1  <O>11       0.0377
  25 H4        6.4890     6.0475    -0.6476  H       1  <O>11       0.0620
  26 H5        5.6102     7.5726    -2.3192  H       1  <O>11       0.0618
  27 H6        6.9090     8.0855    -4.3090  H       1  <O>11       0.0640
  28 H7        8.4516     5.7243    -6.1989  H       1  <O>11       0.3292
  29 H8        9.9848     5.5432    -2.9535  H       1  <O>11       0.0643
  30 H9       10.8555     3.8484    -2.0753  H       1  <O>11       0.0624
  31 H10      12.1168     2.3803    -3.5283  H       1  <O>11       0.0618
  32 H11      11.2155     0.2156    -4.1423  H       1  <O>11       0.0618
  33 H12       9.0548    -0.4786    -3.3016  H       1  <O>11       0.0625
@<TRIPOS>BOND
     1     1     2    2
     2     2     3   ar
     3     3     4   ar
     4     4     5   ar
     5     5     6    1
     6     6     7    1
     7     7     8   ar
     8     8     9   ar
     9     9    10   ar
    10    10    11   ar
    11    11    12    1
    12    12    13    2
    13    12    14    1
    14    11    15   ar
    15     7    15   ar
    16     5    16   ar
    17    16    17   ar
    18    17    18   ar
    19    18    19   ar
    20    19    20   ar
    21    20    21   ar
    22     2    21   ar
    23    16    21   ar
    24     3    22    1
    25     6    23    1
    26     6    24    1
    27     8    25    1
    28     9    26    1
    29    10    27    1
    30    14    28    1
    31    15    29    1
    32    17    30    1
    33    18    31    1
    34    19    32    1
    35    20    33    1
@<TRIPOS>MOLECULE
mol60_1_3
 33 35 0 0 0
SMALL
USER_CHARGES
****
VDW energy = 60.61
@<TRIPOS>ATOM
   1 O1        6.7938    -0.2446    -2.0599  O.2     1  <O>11      -0.2658
   2 C1        7.4213     0.9528    -1.6663  C.ar    1  <O>11       0.2725
   3 N1        6.7347     1.7343    -0.7968  N.ar    1  <O>11      -0.2425
   4 N2        7.2340     2.9457    -0.4598  N.ar    1  <O>11      -0.1750
   5 C2        8.4134     3.3437    -0.9933  C.ar    1  <O>11       0.0736
   6 C3        8.8350     4.7170    -0.6550  C.3     1  <O>11       0.0172
   7 C4        8.3028     5.6629    -1.6702  C.ar    1  <O>11      -0.0394
   8 C5        9.0545     5.9686    -2.8172  C.ar    1  <O>11      -0.0581
   9 C6        8.5578     6.8692    -3.7665  C.ar    1  <O>11      -0.0593
  10 C7        7.3090     7.4677    -3.5836  C.ar    1  <O>11      -0.0316
  11 C8        6.5563     7.1579    -2.4432  C.ar    1  <O>11       0.1219
  12 N3        5.2688     7.7750    -2.2593  N.4     1  <O>11       0.0060
  13 O2        4.4481     7.5393    -3.4295  O.2     1  <O>11      -0.1300
  14 O3        5.4394     9.2026    -2.0681  O.2     1  <O>11      -0.3961
  15 C9        7.0435     6.2599    -1.4917  C.ar    1  <O>11      -0.0281
  16 C10       9.2100     2.5349    -1.8162  C.ar    1  <O>11       0.0106
  17 C11      10.4688     2.9255    -2.3277  C.ar    1  <O>11      -0.0521
  18 C12      11.1965     2.0826    -3.1684  C.ar    1  <O>11      -0.0611
  19 C13      10.6797     0.8410    -3.5204  C.ar    1  <O>11      -0.0610
  20 C14       9.4353     0.4418    -3.0314  C.ar    1  <O>11      -0.0487
  21 C15       8.6875     1.2787    -2.1714  C.ar    1  <O>11       0.0496
  22 H1        5.8603     1.4136    -0.4062  H       1  <O>11       0.1921
  23 H2        9.9243     4.7707    -0.6448  H       1  <O>11       0.0377
  24 H3        8.4489     4.9842     0.3287  H       1  <O>11       0.0377
  25 H4        9.9764     5.5274    -2.9603  H       1  <O>11       0.0620
  26 H5        9.1166     7.0920    -4.6050  H       1  <O>11       0.0618
  27 H6        6.9436     8.1329    -4.2830  H       1  <O>11       0.0640
  28 H7        5.9483     9.5214    -1.3489  H       1  <O>11       0.3292
  29 H8        6.4789     6.0348    -0.6577  H       1  <O>11       0.0643
  30 H9       10.8555     3.8484    -2.0753  H       1  <O>11       0.0624
  31 H10      12.1168     2.3803    -3.5283  H       1  <O>11       0.0618
  32 H11      11.2155     0.2156    -4.1423  H       1  <O>11       0.0618
  33 H12       9.0548    -0.4786    -3.3016  H       1  <O>11       0.0625
@<TRIPOS>BOND
     1     1     2    2
     2     2     3   ar
     3     3     4   ar
     4     4     5   ar
     5     5     6    1
     6     6     7    1
     7     7     8   ar
     8     8     9   ar
     9     9    10   ar
    10    10    11   ar
    11    11    12    1
    12    12    13    2
    13    12    14    1
    14    11    15   ar
    15     7    15   ar
    16     5    16   ar
    17    16    17   ar
    18    17    18   ar
    19    18    19   ar
    20    19    20   ar
    21    20    21   ar
    22     2    21   ar
    23    16    21   ar
    24     3    22    1
    25     6    23    1
    26     6    24    1
    27     8    25    1
    28     9    26    1
    29    10    27    1
    30    14    28    1
    31    15    29    1
    32    17    30    1
    33    18    31    1
    34    19    32    1
    35    20    33    1
@<TRIPOS>MOLECULE
mol60_1_4
 33 35 0 0 0
SMALL
USER_CHARGES
****
VDW energy = 61.48
@<TRIPOS>ATOM
   1 O1        6.7938    -0.2446    -2.0599  O.2     1  <O>11      -0.2658
   2 C1        7.4213     0.9528    -1.6663  C.ar    1  <O>11       0.2725
   3 N1        6.7347     1.7343    -0.7968  N.ar    1  <O>11      -0.2425
   4 N2        7.2340     2.9457    -0.4598  N.ar    1  <O>11      -0.1750
   5 C2        8.4134     3.3437    -0.9933  C.ar    1  <O>11       0.0736
   6 C3        8.8350     4.7170    -0.6550  C.3     1  <O>11       0.0172
   7 C4        9.6503     4.6931     0.5874  C.ar    1  <O>11      -0.0394
   8 C5       11.0447     4.5362     0.5173  C.ar    1  <O>11      -0.0581
   9 C6       11.8102     4.5011     1.6885  C.ar    1  <O>11      -0.0593
  10 C7       11.1945     4.6265     2.9362  C.ar    1  <O>11      -0.0316
  11 C8        9.8047     4.7896     3.0060  C.ar    1  <O>11       0.1219
  12 N3        9.1741     4.9206     4.2934  N.4     1  <O>11       0.0060
  13 O2        8.1842     3.8754     4.4554  O.2     1  <O>11      -0.1300
  14 O3        8.5286     6.2162     4.3863  O.2     1  <O>11      -0.3961
  15 C9        9.0336     4.8267     1.8428  C.ar    1  <O>11      -0.0281
  16 C10       9.2100     2.5349    -1.8162  C.ar    1  <O>11       0.0106
  17 C11      10.4688     2.9255    -2.3277  C.ar    1  <O>11      -0.0521
  18 C12      11.1965     2.0826    -3.1684  C.ar    1  <O>11      -0.0611
  19 C13      10.6797     0.8410    -3.5204  C.ar    1  <O>11      -0.0610
  20 C14       9.4353     0.4418    -3.0314  C.ar    1  <O>11      -0.0487
  21 C15       8.6875     1.2787    -2.1714  C.ar    1  <O>11       0.0496
  22 H1        5.8603     1.4136    -0.4062  H       1  <O>11       0.1921
  23 H2        7.9533     5.3397    -0.4986  H       1  <O>11       0.0377
  24 H3        9.4290     5.1268    -1.4719  H       1  <O>11       0.0377
  25 H4       11.5064     4.4464    -0.4013  H       1  <O>11       0.0620
  26 H5       12.8336     4.3821     1.6301  H       1  <O>11       0.0618
  27 H6       11.7590     4.5991     3.7997  H       1  <O>11       0.0640
  28 H7        9.0358     6.9994     4.3016  H       1  <O>11       0.3292
  29 H8        8.0111     4.9522     1.9050  H       1  <O>11       0.0643
  30 H9       10.8555     3.8484    -2.0753  H       1  <O>11       0.0624
  31 H10      12.1168     2.3803    -3.5283  H       1  <O>11       0.0618
  32 H11      11.2155     0.2156    -4.1423  H       1  <O>11       0.0618
  33 H12       9.0548    -0.4786    -3.3016  H       1  <O>11       0.0625
@<TRIPOS>BOND
     1     1     2    2
     2     2     3   ar
     3     3     4   ar
     4     4     5   ar
     5     5     6    1
     6     6     7    1
     7     7     8   ar
     8     8     9   ar
     9     9    10   ar
    10    10    11   ar
    11    11    12    1
    12    12    13    2
    13    12    14    1
    14    11    15   ar
    15     7    15   ar
    16     5    16   ar
    17    16    17   ar
    18    17    18   ar
    19    18    19   ar
    20    19    20   ar
    21    20    21   ar
    22     2    21   ar
    23    16    21   ar
    24     3    22    1
    25     6    23    1
    26     6    24    1
    27     8    25    1
    28     9    26    1
    29    10    27    1
    30    14    28    1
    31    15    29    1
    32    17    30    1
    33    18    31    1
    34    19    32    1
    35    20    33    1
@<TRIPOS>MOLECULE
mol60_1_5
 33 35 0 0 0
SMALL
USER_CHARGES
****
VDW energy = 61.57
@<TRIPOS>ATOM
   1 O1        6.7938    -0.2446    -2.0599  O.2     1  <O>11      -0.2658
   2 C1        7.4213     0.9528    -1.6663  C.ar    1  <O>11       0.2725
   3 N1        6.7347     1.7343    -0.7968  N.ar    1  <O>11      -0.2425
   4 N2        7.2340     2.9457    -0.4598  N.ar    1  <O>11      -0.1750
   5 C2        8.4134     3.3437    -0.9933  C.ar    1  <O>11       0.0736
   6 C3        8.8350     4.7170    -0.6550  C.3     1  <O>11       0.0172
   7 C4        9.6503     4.6931     0.5874  C.ar    1  <O>11      -0.0394
   8 C5        9.0336     4.8271     1.8427  C.ar    1  <O>11      -0.0581
   9 C6        9.8036     4.8171     3.0113  C.ar    1  <O>11      -0.0593
  10 C7       11.1908     4.6691     2.9395  C.ar    1  <O>11      -0.0316
  11 C8       11.8053     4.5287     1.6881  C.ar    1  <O>11       0.1219
  12 N3       13.2348     4.3743     1.6181  N.4     1  <O>11       0.0060
  13 O2       13.6430     3.2663     2.4574  O.2     1  <O>11      -0.1300
  14 O3       13.8760     5.5911     2.0784  O.2     1  <O>11      -0.3961
  15 C9       11.0448     4.5366     0.5174  C.ar    1  <O>11      -0.0281
  16 C10       9.2100     2.5349    -1.8162  C.ar    1  <O>11       0.0106
  17 C11      10.4688     2.9255    -2.3277  C.ar    1  <O>11      -0.0521
  18 C12      11.1965     2.0826    -3.1684  C.ar    1  <O>11      -0.0611
  19 C13      10.6797     0.8410    -3.5204  C.ar    1  <O>11      -0.0610
  20 C14       9.4353     0.4418    -3.0314  C.ar    1  <O>11      -0.0487
  21 C15       8.6875     1.2787    -2.1714  C.ar    1  <O>11       0.0496
  22 H1        5.8603     1.4136    -0.4062  H       1  <O>11       0.1921
  23 H2        7.9533     5.3397    -0.4986  H       1  <O>11       0.0377
  24 H3        9.4290     5.1268    -1.4719  H       1  <O>11       0.0377
  25 H4        8.0088     4.9334     1.9033  H       1  <O>11       0.0620
  26 H5        9.3447     4.9195     3.9300  H       1  <O>11       0.0618
  27 H6       11.7585     4.6633     3.8012  H       1  <O>11       0.0640
  28 H7       13.7138     6.4017     1.6374  H       1  <O>11       0.3292
  29 H8       11.5068     4.4275    -0.3990  H       1  <O>11       0.0643
  30 H9       10.8555     3.8484    -2.0753  H       1  <O>11       0.0624
  31 H10      12.1168     2.3803    -3.5283  H       1  <O>11       0.0618
  32 H11      11.2155     0.2156    -4.1423  H       1  <O>11       0.0618
  33 H12       9.0548    -0.4786    -3.3016  H       1  <O>11       0.0625
@<TRIPOS>BOND
     1     1     2    2
     2     2     3   ar
     3     3     4   ar
     4     4     5   ar
     5     5     6    1
     6     6     7    1
     7     7     8   ar
     8     8     9   ar
     9     9    10   ar
    10    10    11   ar
    11    11    12    1
    12    12    13    2
    13    12    14    1
    14    11    15   ar
    15     7    15   ar
    16     5    16   ar
    17    16    17   ar
    18    17    18   ar
    19    18    19   ar
    20    19    20   ar
    21    20    21   ar
    22     2    21   ar
    23    16    21   ar
    24     3    22    1
    25     6    23    1
    26     6    24    1
    27     8    25    1
    28     9    26    1
    29    10    27    1
    30    14    28    1
    31    15    29    1
    32    17    30    1
    33    18    31    1
    34    19    32    1
    35    20    33    1
@<TRIPOS>MOLECULE
mol60_1_6
 33 35 0 0 0
SMALL
USER_CHARGES
****
VDW energy = 61.83
@<TRIPOS>ATOM
   1 O1        6.7938    -0.2446    -2.0599  O.2     1  <O>11      -0.2658
   2 C1        7.4213     0.9528    -1.6663  C.ar    1  <O>11       0.2725
   3 N1        6.7347     1.7343    -0.7968  N.ar    1  <O>11      -0.2425
   4 N2        7.2340     2.9457    -0.4598  N.ar    1  <O>11      -0.1750
   5 C2        8.4134     3.3437    -0.9933  C.ar    1  <O>11       0.0736
   6 C3        8.8350     4.7170    -0.6550  C.3     1  <O>11       0.0172
   7 C4        8.3028     5.6629    -1.6702  C.ar    1  <O>11      -0.0394
   8 C5        9.0545     5.9686    -2.8172  C.ar    1  <O>11      -0.0581
   9 C6        8.5578     6.8692    -3.7665  C.ar    1  <O>11      -0.0593
  10 C7        7.3090     7.4677    -3.5836  C.ar    1  <O>11      -0.0316
  11 C8        6.5563     7.1579    -2.4432  C.ar    1  <O>11       0.1219
  12 N3        5.2688     7.7750    -2.2593  N.4     1  <O>11       0.0060
  13 O2        4.6755     8.0503    -3.5518  O.2     1  <O>11      -0.1300
  14 O3        5.4276     9.0163    -1.5261  O.2     1  <O>11      -0.3961
  15 C9        7.0435     6.2599    -1.4917  C.ar    1  <O>11      -0.0281
  16 C10       9.2100     2.5349    -1.8162  C.ar    1  <O>11       0.0106
  17 C11      10.4688     2.9255    -2.3277  C.ar    1  <O>11      -0.0521
  18 C12      11.1965     2.0826    -3.1684  C.ar    1  <O>11      -0.0611
  19 C13      10.6797     0.8410    -3.5204  C.ar    1  <O>11      -0.0610
  20 C14       9.4353     0.4418    -3.0314  C.ar    1  <O>11      -0.0487
  21 C15       8.6875     1.2787    -2.1714  C.ar    1  <O>11       0.0496
  22 H1        5.8603     1.4136    -0.4062  H       1  <O>11       0.1921
  23 H2        9.9243     4.7707    -0.6448  H       1  <O>11       0.0377
  24 H3        8.4489     4.9842     0.3287  H       1  <O>11       0.0377
  25 H4        9.9764     5.5274    -2.9603  H       1  <O>11       0.0620
  26 H5        9.1166     7.0920    -4.6050  H       1  <O>11       0.0618
  27 H6        6.9436     8.1329    -4.2830  H       1  <O>11       0.0640
  28 H7        5.7999     9.0082    -0.6663  H       1  <O>11       0.3292
  29 H8        6.4789     6.0348    -0.6577  H       1  <O>11       0.0643
  30 H9       10.8555     3.8484    -2.0753  H       1  <O>11       0.0624
  31 H10      12.1168     2.3803    -3.5283  H       1  <O>11       0.0618
  32 H11      11.2155     0.2156    -4.1423  H       1  <O>11       0.0618
  33 H12       9.0548    -0.4786    -3.3016  H       1  <O>11       0.0625
@<TRIPOS>BOND
     1     1     2    2
     2     2     3   ar
     3     3     4   ar
     4     4     5   ar
     5     5     6    1
     6     6     7    1
     7     7     8   ar
     8     8     9   ar
     9     9    10   ar
    10    10    11   ar
    11    11    12    1
    12    12    13    2
    13    12    14    1
    14    11    15   ar
    15     7    15   ar
    16     5    16   ar
    17    16    17   ar
    18    17    18   ar
    19    18    19   ar
    20    19    20   ar
    21    20    21   ar
    22     2    21   ar
    23    16    21   ar
    24     3    22    1
    25     6    23    1
    26     6    24    1
    27     8    25    1
    28     9    26    1
    29    10    27    1
    30    14    28    1
    31    15    29    1
    32    17    30    1
    33    18    31    1
    34    19    32    1
    35    20    33    1
@<TRIPOS>MOLECULE
mol60_1_7
 33 35 0 0 0
SMALL
USER_CHARGES
****
VDW energy = 62.04
@<TRIPOS>ATOM
   1 O1        6.7938    -0.2446    -2.0599  O.2     1  <O>11      -0.2658
   2 C1        7.4213     0.9528    -1.6663  C.ar    1  <O>11       0.2725
   3 N1        6.7347     1.7343    -0.7968  N.ar    1  <O>11      -0.2425
   4 N2        7.2340     2.9457    -0.4598  N.ar    1  <O>11      -0.1750
   5 C2        8.4134     3.3437    -0.9933  C.ar    1  <O>11       0.0736
   6 C3        8.8350     4.7170    -0.6550  C.3     1  <O>11       0.0172
   7 C4        8.3028     5.6629    -1.6702  C.ar    1  <O>11      -0.0394
   8 C5        7.0433     6.2596    -1.4919  C.ar    1  <O>11      -0.0581
   9 C6        6.5376     7.1405    -2.4547  C.ar    1  <O>11      -0.0593
  10 C7        7.2827     7.4371    -3.5984  C.ar    1  <O>11      -0.0316
  11 C8        8.5416     6.8474    -3.7733  C.ar    1  <O>11       0.1219
  12 N3        9.3076     7.1572    -4.9521  N.4     1  <O>11       0.0060
  13 O2        8.9908     8.4994    -5.3956  O.2     1  <O>11      -0.1300
  14 O3        8.9824     6.2116    -6.0027  O.2     1  <O>11      -0.3961
  15 C9        9.0543     5.9684    -2.8175  C.ar    1  <O>11      -0.0281
  16 C10       9.2100     2.5349    -1.8162  C.ar    1  <O>11       0.0106
  17 C11      10.4688     2.9255    -2.3277  C.ar    1  <O>11      -0.0521
  18 C12      11.1965     2.0826    -3.1684  C.ar    1  <O>11      -0.0611
  19 C13      10.6797     0.8410    -3.5204  C.ar    1  <O>11      -0.0610
  20 C14       9.4353     0.4418    -3.0314  C.ar    1  <O>11      -0.0487
  21 C15       8.6875     1.2787    -2.1714  C.ar    1  <O>11       0.0496
  22 H1        5.8603     1.4136    -0.4062  H       1  <O>11       0.1921
  23 H2        9.9243     4.7707    -0.6448  H       1  <O>11       0.0377
  24 H3        8.4489     4.9842     0.3287  H       1  <O>11       0.0377
  25 H4        6.4890     6.0475    -0.6476  H       1  <O>11       0.0620
  26 H5        5.6102     7.5726    -2.3192  H       1  <O>11       0.0618
  27 H6        6.9090     8.0855    -4.3090  H       1  <O>11       0.0640
  28 H7        9.1299     5.2958    -5.8708  H       1  <O>11       0.3292
  29 H8        9.9848     5.5432    -2.9535  H       1  <O>11       0.0643
  30 H9       10.8555     3.8484    -2.0753  H       1  <O>11       0.0624
  31 H10      12.1168     2.3803    -3.5283  H       1  <O>11       0.0618
  32 H11      11.2155     0.2156    -4.1423  H       1  <O>11       0.0618
  33 H12       9.0548    -0.4786    -3.3016  H       1  <O>11       0.0625
@<TRIPOS>BOND
     1     1     2    2
     2     2     3   ar
     3     3     4   ar
     4     4     5   ar
     5     5     6    1
     6     6     7    1
     7     7     8   ar
     8     8     9   ar
     9     9    10   ar
    10    10    11   ar
    11    11    12    1
    12    12    13    2
    13    12    14    1
    14    11    15   ar
    15     7    15   ar
    16     5    16   ar
    17    16    17   ar
    18    17    18   ar
    19    18    19   ar
    20    19    20   ar
    21    20    21   ar
    22     2    21   ar
    23    16    21   ar
    24     3    22    1
    25     6    23    1
    26     6    24    1
    27     8    25    1
    28     9    26    1
    29    10    27    1
    30    14    28    1
    31    15    29    1
    32    17    30    1
    33    18    31    1
    34    19    32    1
    35    20    33    1
@<TRIPOS>MOLECULE
mol60_1_8
 33 35 0 0 0
SMALL
USER_CHARGES
****
VDW energy = 62.06
@<TRIPOS>ATOM
   1 O1        6.7938    -0.2446    -2.0599  O.2     1  <O>11      -0.2658
   2 C1        7.4213     0.9528    -1.6663  C.ar    1  <O>11       0.2725
   3 N1        6.7347     1.7343    -0.7968  N.ar    1  <O>11      -0.2425
   4 N2        7.2340     2.9457    -0.4598  N.ar    1  <O>11      -0.1750
   5 C2        8.4134     3.3437    -0.9933  C.ar    1  <O>11       0.0736
   6 C3        8.8350     4.7170    -0.6550  C.3     1  <O>11       0.0172
   7 C4        8.3028     5.6629    -1.6702  C.ar    1  <O>11      -0.0394
   8 C5        9.0545     5.9686    -2.8172  C.ar    1  <O>11      -0.0581
   9 C6        8.5578     6.8692    -3.7665  C.ar    1  <O>11      -0.0593
  10 C7        7.3090     7.4677    -3.5836  C.ar    1  <O>11      -0.0316
  11 C8        6.5563     7.1579    -2.4432  C.ar    1  <O>11       0.1219
  12 N3        5.2688     7.7750    -2.2593  N.4     1  <O>11       0.0060
  13 O2        4.9973     7.9141    -0.8431  O.2     1  <O>11      -0.1300
  14 O3        4.2446     6.9484    -2.8687  O.2     1  <O>11      -0.3961
  15 C9        7.0435     6.2599    -1.4917  C.ar    1  <O>11      -0.0281
  16 C10       9.2100     2.5349    -1.8162  C.ar    1  <O>11       0.0106
  17 C11      10.4688     2.9255    -2.3277  C.ar    1  <O>11      -0.0521
  18 C12      11.1965     2.0826    -3.1684  C.ar    1  <O>11      -0.0611
  19 C13      10.6797     0.8410    -3.5204  C.ar    1  <O>11      -0.0610
  20 C14       9.4353     0.4418    -3.0314  C.ar    1  <O>11      -0.0487
  21 C15       8.6875     1.2787    -2.1714  C.ar    1  <O>11       0.0496
  22 H1        5.8603     1.4136    -0.4062  H       1  <O>11       0.1921
  23 H2        9.9243     4.7707    -0.6448  H       1  <O>11       0.0377
  24 H3        8.4489     4.9842     0.3287  H       1  <O>11       0.0377
  25 H4        9.9764     5.5274    -2.9603  H       1  <O>11       0.0620
  26 H5        9.1166     7.0920    -4.6050  H       1  <O>11       0.0618
  27 H6        6.9436     8.1329    -4.2830  H       1  <O>11       0.0640
  28 H7        4.2776     6.7622    -3.7864  H       1  <O>11       0.3292
  29 H8        6.4789     6.0348    -0.6577  H       1  <O>11       0.0643
  30 H9       10.8555     3.8484    -2.0753  H       1  <O>11       0.0624
  31 H10      12.1168     2.3803    -3.5283  H       1  <O>11       0.0618
  32 H11      11.2155     0.2156    -4.1423  H       1  <O>11       0.0618
  33 H12       9.0548    -0.4786    -3.3016  H       1  <O>11       0.0625
@<TRIPOS>BOND
     1     1     2    2
     2     2     3   ar
     3     3     4   ar
     4     4     5   ar
     5     5     6    1
     6     6     7    1
     7     7     8   ar
     8     8     9   ar
     9     9    10   ar
    10    10    11   ar
    11    11    12    1
    12    12    13    2
    13    12    14    1
    14    11    15   ar
    15     7    15   ar
    16     5    16   ar
    17    16    17   ar
    18    17    18   ar
    19    18    19   ar
    20    19    20   ar
    21    20    21   ar
    22     2    21   ar
    23    16    21   ar
    24     3    22    1
    25     6    23    1
    26     6    24    1
    27     8    25    1
    28     9    26    1
    29    10    27    1
    30    14    28    1
    31    15    29    1
    32    17    30    1
    33    18    31    1
    34    19    32    1
    35    20    33    1
@<TRIPOS>MOLECULE
mol60_1_9
 33 35 0 0 0
SMALL
USER_CHARGES
****
VDW energy = 62.62
@<TRIPOS>ATOM
   1 O1        6.7938    -0.2446    -2.0599  O.2     1  <O>11      -0.2658
   2 C1        7.4213     0.9528    -1.6663  C.ar    1  <O>11       0.2725
   3 N1        6.7347     1.7343    -0.7968  N.ar    1  <O>11      -0.2425
   4 N2        7.2340     2.9457    -0.4598  N.ar    1  <O>11      -0.1750
   5 C2        8.4134     3.3437    -0.9933  C.ar    1  <O>11       0.0736
   6 C3        8.8350     4.7170    -0.6550  C.3     1  <O>11       0.0172
   7 C4        8.5865     4.9702     0.7882  C.ar    1  <O>11      -0.0394
   8 C5        7.3556     5.4972     1.2139  C.ar    1  <O>11      -0.0581
   9 C6        7.1273     5.7470     2.5719  C.ar    1  <O>11      -0.0593
  10 C7        8.1194     5.4701     3.5155  C.ar    1  <O>11      -0.0316
  11 C8        9.3445     4.9384     3.0920  C.ar    1  <O>11       0.1219
  12 N3       10.3638     4.6523     4.0674  N.4     1  <O>11       0.0060
  13 O2        9.8197     3.7899     5.0965  O.2     1  <O>11      -0.1300
  14 O3       10.8209     5.8913     4.6671  O.2     1  <O>11      -0.3961
  15 C9        9.5805     4.6851     1.7395  C.ar    1  <O>11      -0.0281
  16 C10       9.2100     2.5349    -1.8162  C.ar    1  <O>11       0.0106
  17 C11      10.4688     2.9255    -2.3277  C.ar    1  <O>11      -0.0521
  18 C12      11.1965     2.0826    -3.1684  C.ar    1  <O>11      -0.0611
  19 C13      10.6797     0.8410    -3.5204  C.ar    1  <O>11      -0.0610
  20 C14       9.4353     0.4418    -3.0314  C.ar    1  <O>11      -0.0487
  21 C15       8.6875     1.2787    -2.1714  C.ar    1  <O>11       0.0496
  22 H1        5.8603     1.4136    -0.4062  H       1  <O>11       0.1921
  23 H2        8.2646     5.4298    -1.2519  H       1  <O>11       0.0377
  24 H3        9.8978     4.8339    -0.8670  H       1  <O>11       0.0377
  25 H4        6.6170     5.7008     0.5225  H       1  <O>11       0.0620
  26 H5        6.2221     6.1374     2.8774  H       1  <O>11       0.0618
  27 H6        7.9513     5.6558     4.5166  H       1  <O>11       0.0640
  28 H7       11.2014     6.5588     4.1308  H       1  <O>11       0.3292
  29 H8       10.4846     4.2886     1.4386  H       1  <O>11       0.0643
  30 H9       10.8555     3.8484    -2.0753  H       1  <O>11       0.0624
  31 H10      12.1168     2.3803    -3.5283  H       1  <O>11       0.0618
  32 H11      11.2155     0.2156    -4.1423  H       1  <O>11       0.0618
  33 H12       9.0548    -0.4786    -3.3016  H       1  <O>11       0.0625
@<TRIPOS>BOND
     1     1     2    2
     2     2     3   ar
     3     3     4   ar
     4     4     5   ar
     5     5     6    1
     6     6     7    1
     7     7     8   ar
     8     8     9   ar
     9     9    10   ar
    10    10    11   ar
    11    11    12    1
    12    12    13    2
    13    12    14    1
    14    11    15   ar
    15     7    15   ar
    16     5    16   ar
    17    16    17   ar
    18    17    18   ar
    19    18    19   ar
    20    19    20   ar
    21    20    21   ar
    22     2    21   ar
    23    16    21   ar
    24     3    22    1
    25     6    23    1
    26     6    24    1
    27     8    25    1
    28     9    26    1
    29    10    27    1
    30    14    28    1
    31    15    29    1
    32    17    30    1
    33    18    31    1
    34    19    32    1
    35    20    33    1
@<TRIPOS>MOLECULE
mol60_1_10
 33 35 0 0 0
SMALL
USER_CHARGES
****
VDW energy = 62.93
@<TRIPOS>ATOM
   1 O1        6.7938    -0.2446    -2.0599  O.2     1  <O>11      -0.2658
   2 C1        7.4213     0.9528    -1.6663  C.ar    1  <O>11       0.2725
   3 N1        6.7347     1.7343    -0.7968  N.ar    1  <O>11      -0.2425
   4 N2        7.2340     2.9457    -0.4598  N.ar    1  <O>11      -0.1750
   5 C2        8.4134     3.3437    -0.9933  C.ar    1  <O>11       0.0736
   6 C3        8.8350     4.7170    -0.6550  C.3     1  <O>11       0.0172
   7 C4        8.9738     5.5139    -1.9017  C.ar    1  <O>11      -0.0394
   8 C5        7.8695     5.7013    -2.7500  C.ar    1  <O>11      -0.0581
   9 C6        8.0044     6.4414    -3.9302  C.ar    1  <O>11      -0.0593
  10 C7        9.2367     7.0035    -4.2720  C.ar    1  <O>11      -0.0316
  11 C8       10.3364     6.8224    -3.4229  C.ar    1  <O>11       0.1219
  12 N3       11.6042     7.4050    -3.7774  N.4     1  <O>11       0.0060
  13 O2       11.4349     8.8242    -4.0136  O.2     1  <O>11      -0.1300
  14 O3       12.1082     6.7715    -4.9808  O.2     1  <O>11      -0.3961
  15 C9       10.2106     6.0865    -2.2432  C.ar    1  <O>11      -0.0281
  16 C10       9.2100     2.5349    -1.8162  C.ar    1  <O>11       0.0106
  17 C11      10.4688     2.9255    -2.3277  C.ar    1  <O>11      -0.0521
  18 C12      11.1965     2.0826    -3.1684  C.ar    1  <O>11      -0.0611
  19 C13      10.6797     0.8410    -3.5204  C.ar    1  <O>11      -0.0610
  20 C14       9.4353     0.4418    -3.0314  C.ar    1  <O>11      -0.0487
  21 C15       8.6875     1.2787    -2.1714  C.ar    1  <O>11       0.0496
  22 H1        5.8603     1.4136    -0.4062  H       1  <O>11       0.1921
  23 H2        9.7937     4.6854    -0.1359  H       1  <O>11       0.0377
  24 H3        8.0875     5.1785    -0.0097  H       1  <O>11       0.0377
  25 H4        6.9553     5.2917    -2.5018  H       1  <O>11       0.0620
  26 H5        7.1901     6.5723    -4.5505  H       1  <O>11       0.0618
  27 H6        9.3363     7.5479    -5.1431  H       1  <O>11       0.0640
  28 H7       12.2719     5.8489    -4.9912  H       1  <O>11       0.3292
  29 H8       11.0257     5.9632    -1.6223  H       1  <O>11       0.0643
  30 H9       10.8555     3.8484    -2.0753  H       1  <O>11       0.0624
  31 H10      12.1168     2.3803    -3.5283  H       1  <O>11       0.0618
  32 H11      11.2155     0.2156    -4.1423  H       1  <O>11       0.0618
  33 H12       9.0548    -0.4786    -3.3016  H       1  <O>11       0.0625
@<TRIPOS>BOND
     1     1     2    2
     2     2     3   ar
     3     3     4   ar
     4     4     5   ar
     5     5     6    1
     6     6     7    1
     7     7     8   ar
     8     8     9   ar
     9     9    10   ar
    10    10    11   ar
    11    11    12    1
    12    12    13    2
    13    12    14    1
    14    11    15   ar
    15     7    15   ar
    16     5    16   ar
    17    16    17   ar
    18    17    18   ar
    19    18    19   ar
    20    19    20   ar
    21    20    21   ar
    22     2    21   ar
    23    16    21   ar
    24     3    22    1
    25     6    23    1
    26     6    24    1
    27     8    25    1
    28     9    26    1
    29    10    27    1
    30    14    28    1
    31    15    29    1
    32    17    30    1
    33    18    31    1
    34    19    32    1
    35    20    33    1
@<TRIPOS>MOLECULE
mol60_1_11
 33 35 0 0 0
SMALL
USER_CHARGES
****
VDW energy = 63.19
@<TRIPOS>ATOM
   1 O1        6.7938    -0.2446    -2.0599  O.2     1  <O>11      -0.2658
   2 C1        7.4213     0.9528    -1.6663  C.ar    1  <O>11       0.2725
   3 N1        6.7347     1.7343    -0.7968  N.ar    1  <O>11      -0.2425
   4 N2        7.2340     2.9457    -0.4598  N.ar    1  <O>11      -0.1750
   5 C2        8.4134     3.3437    -0.9933  C.ar    1  <O>11       0.0736
   6 C3        8.8350     4.7170    -0.6550  C.3     1  <O>11       0.0172
   7 C4        8.5865     4.9702     0.7882  C.ar    1  <O>11      -0.0394
   8 C5        9.2117     4.1770     1.7650  C.ar    1  <O>11      -0.0581
   9 C6        8.9672     4.4081     3.1236  C.ar    1  <O>11      -0.0593
  10 C7        8.1034     5.4321     3.5194  C.ar    1  <O>11      -0.0316
  11 C8        7.4850     6.2274     2.5457  C.ar    1  <O>11       0.1219
  12 N3        6.5971     7.2831     2.9575  N.4     1  <O>11       0.0060
  13 O2        5.2909     7.0741     2.3669  O.2     1  <O>11      -0.1300
  14 O3        7.1272     8.5598     2.5186  O.2     1  <O>11      -0.3961
  15 C9        7.7239     6.0046     1.1884  C.ar    1  <O>11      -0.0281
  16 C10       9.2100     2.5349    -1.8162  C.ar    1  <O>11       0.0106
  17 C11      10.4688     2.9255    -2.3277  C.ar    1  <O>11      -0.0521
  18 C12      11.1965     2.0826    -3.1684  C.ar    1  <O>11      -0.0611
  19 C13      10.6797     0.8410    -3.5204  C.ar    1  <O>11      -0.0610
  20 C14       9.4353     0.4418    -3.0314  C.ar    1  <O>11      -0.0487
  21 C15       8.6875     1.2787    -2.1714  C.ar    1  <O>11       0.0496
  22 H1        5.8603     1.4136    -0.4062  H       1  <O>11       0.1921
  23 H2        8.2646     5.4298    -1.2519  H       1  <O>11       0.0377
  24 H3        9.8978     4.8339    -0.8670  H       1  <O>11       0.0377
  25 H4        9.8537     3.4211     1.4797  H       1  <O>11       0.0620
  26 H5        9.4270     3.8196     3.8358  H       1  <O>11       0.0618
  27 H6        7.9221     5.6014     4.5211  H       1  <O>11       0.0640
  28 H7        7.9696     8.8439     2.8145  H       1  <O>11       0.3292
  29 H8        7.2672     6.5993     0.4793  H       1  <O>11       0.0643
  30 H9       10.8555     3.8484    -2.0753  H       1  <O>11       0.0624
  31 H10      12.1168     2.3803    -3.5283  H       1  <O>11       0.0618
  32 H11      11.2155     0.2156    -4.1423  H       1  <O>11       0.0618
  33 H12       9.0548    -0.4786    -3.3016  H       1  <O>11       0.0625
@<TRIPOS>BOND
     1     1     2    2
     2     2     3   ar
     3     3     4   ar
     4     4     5   ar
     5     5     6    1
     6     6     7    1
     7     7     8   ar
     8     8     9   ar
     9     9    10   ar
    10    10    11   ar
    11    11    12    1
    12    12    13    2
    13    12    14    1
    14    11    15   ar
    15     7    15   ar
    16     5    16   ar
    17    16    17   ar
    18    17    18   ar
    19    18    19   ar
    20    19    20   ar
    21    20    21   ar
    22     2    21   ar
    23    16    21   ar
    24     3    22    1
    25     6    23    1
    26     6    24    1
    27     8    25    1
    28     9    26    1
    29    10    27    1
    30    14    28    1
    31    15    29    1
    32    17    30    1
    33    18    31    1
    34    19    32    1
    35    20    33    1
@<TRIPOS>MOLECULE
mol60_1_12
 33 35 0 0 0
SMALL
USER_CHARGES
****
VDW energy = 63.81
@<TRIPOS>ATOM
   1 O1        6.7938    -0.2446    -2.0599  O.2     1  <O>11      -0.2658
   2 C1        7.4213     0.9528    -1.6663  C.ar    1  <O>11       0.2725
   3 N1        6.7347     1.7343    -0.7968  N.ar    1  <O>11      -0.2425
   4 N2        7.2340     2.9457    -0.4598  N.ar    1  <O>11      -0.1750
   5 C2        8.4134     3.3437    -0.9933  C.ar    1  <O>11       0.0736
   6 C3        8.8350     4.7170    -0.6550  C.3     1  <O>11       0.0172
   7 C4        9.6503     4.6931     0.5874  C.ar    1  <O>11      -0.0394
   8 C5       11.0447     4.5362     0.5173  C.ar    1  <O>11      -0.0581
   9 C6       11.8102     4.5011     1.6885  C.ar    1  <O>11      -0.0593
  10 C7       11.1945     4.6265     2.9362  C.ar    1  <O>11      -0.0316
  11 C8        9.8047     4.7896     3.0060  C.ar    1  <O>11       0.1219
  12 N3        9.1741     4.9206     4.2934  N.4     1  <O>11       0.0060
  13 O2       10.0946     5.5451     5.2214  O.2     1  <O>11      -0.1300
  14 O3        8.8059     3.6077     4.7876  O.2     1  <O>11      -0.3961
  15 C9        9.0336     4.8267     1.8428  C.ar    1  <O>11      -0.0281
  16 C10       9.2100     2.5349    -1.8162  C.ar    1  <O>11       0.0106
  17 C11      10.4688     2.9255    -2.3277  C.ar    1  <O>11      -0.0521
  18 C12      11.1965     2.0826    -3.1684  C.ar    1  <O>11      -0.0611
  19 C13      10.6797     0.8410    -3.5204  C.ar    1  <O>11      -0.0610
  20 C14       9.4353     0.4418    -3.0314  C.ar    1  <O>11      -0.0487
  21 C15       8.6875     1.2787    -2.1714  C.ar    1  <O>11       0.0496
  22 H1        5.8603     1.4136    -0.4062  H       1  <O>11       0.1921
  23 H2        7.9533     5.3397    -0.4986  H       1  <O>11       0.0377
  24 H3        9.4290     5.1268    -1.4719  H       1  <O>11       0.0377
  25 H4       11.5064     4.4464    -0.4013  H       1  <O>11       0.0620
  26 H5       12.8336     4.3821     1.6301  H       1  <O>11       0.0618
  27 H6       11.7590     4.5991     3.7997  H       1  <O>11       0.0640
  28 H7        8.2129     3.0722     4.2982  H       1  <O>11       0.3292
  29 H8        8.0111     4.9522     1.9050  H       1  <O>11       0.0643
  30 H9       10.8555     3.8484    -2.0753  H       1  <O>11       0.0624
  31 H10      12.1168     2.3803    -3.5283  H       1  <O>11       0.0618
  32 H11      11.2155     0.2156    -4.1423  H       1  <O>11       0.0618
  33 H12       9.0548    -0.4786    -3.3016  H       1  <O>11       0.0625
@<TRIPOS>BOND
     1     1     2    2
     2     2     3   ar
     3     3     4   ar
     4     4     5   ar
     5     5     6    1
     6     6     7    1
     7     7     8   ar
     8     8     9   ar
     9     9    10   ar
    10    10    11   ar
    11    11    12    1
    12    12    13    2
    13    12    14    1
    14    11    15   ar
    15     7    15   ar
    16     5    16   ar
    17    16    17   ar
    18    17    18   ar
    19    18    19   ar
    20    19    20   ar
    21    20    21   ar
    22     2    21   ar
    23    16    21   ar
    24     3    22    1
    25     6    23    1
    26     6    24    1
    27     8    25    1
    28     9    26    1
    29    10    27    1
    30    14    28    1
    31    15    29    1
    32    17    30    1
    33    18    31    1
    34    19    32    1
    35    20    33    1
@<TRIPOS>MOLECULE
mol60_1_13
 33 35 0 0 0
SMALL
USER_CHARGES
****
VDW energy = 64.18
@<TRIPOS>ATOM
   1 O1        6.7938    -0.2446    -2.0599  O.2     1  <O>11      -0.2658
   2 C1        7.4213     0.9528    -1.6663  C.ar    1  <O>11       0.2725
   3 N1        6.7347     1.7343    -0.7968  N.ar    1  <O>11      -0.2425
   4 N2        7.2340     2.9457    -0.4598  N.ar    1  <O>11      -0.1750
   5 C2        8.4134     3.3437    -0.9933  C.ar    1  <O>11       0.0736
   6 C3        8.8350     4.7170    -0.6550  C.3     1  <O>11       0.0172
   7 C4        8.5865     4.9702     0.7882  C.ar    1  <O>11      -0.0394
   8 C5        7.3556     5.4972     1.2139  C.ar    1  <O>11      -0.0581
   9 C6        7.1273     5.7470     2.5719  C.ar    1  <O>11      -0.0593
  10 C7        8.1194     5.4701     3.5155  C.ar    1  <O>11      -0.0316
  11 C8        9.3445     4.9384     3.0920  C.ar    1  <O>11       0.1219
  12 N3       10.3638     4.6523     4.0674  N.4     1  <O>11       0.0060
  13 O2        9.7419     4.3071     5.3294  O.2     1  <O>11      -0.1300
  14 O3       11.2039     5.8210     4.2463  O.2     1  <O>11      -0.3961
  15 C9        9.5805     4.6851     1.7395  C.ar    1  <O>11      -0.0281
  16 C10       9.2100     2.5349    -1.8162  C.ar    1  <O>11       0.0106
  17 C11      10.4688     2.9255    -2.3277  C.ar    1  <O>11      -0.0521
  18 C12      11.1965     2.0826    -3.1684  C.ar    1  <O>11      -0.0611
  19 C13      10.6797     0.8410    -3.5204  C.ar    1  <O>11      -0.0610
  20 C14       9.4353     0.4418    -3.0314  C.ar    1  <O>11      -0.0487
  21 C15       8.6875     1.2787    -2.1714  C.ar    1  <O>11       0.0496
  22 H1        5.8603     1.4136    -0.4062  H       1  <O>11       0.1921
  23 H2        8.2646     5.4298    -1.2519  H       1  <O>11       0.0377
  24 H3        9.8978     4.8339    -0.8670  H       1  <O>11       0.0377
  25 H4        6.6170     5.7008     0.5225  H       1  <O>11       0.0620
  26 H5        6.2221     6.1374     2.8774  H       1  <O>11       0.0618
  27 H6        7.9513     5.6558     4.5166  H       1  <O>11       0.0640
  28 H7       11.6786     6.1725     3.5190  H       1  <O>11       0.3292
  29 H8       10.4846     4.2886     1.4386  H       1  <O>11       0.0643
  30 H9       10.8555     3.8484    -2.0753  H       1  <O>11       0.0624
  31 H10      12.1168     2.3803    -3.5283  H       1  <O>11       0.0618
  32 H11      11.2155     0.2156    -4.1423  H       1  <O>11       0.0618
  33 H12       9.0548    -0.4786    -3.3016  H       1  <O>11       0.0625
@<TRIPOS>BOND
     1     1     2    2
     2     2     3   ar
     3     3     4   ar
     4     4     5   ar
     5     5     6    1
     6     6     7    1
     7     7     8   ar
     8     8     9   ar
     9     9    10   ar
    10    10    11   ar
    11    11    12    1
    12    12    13    2
    13    12    14    1
    14    11    15   ar
    15     7    15   ar
    16     5    16   ar
    17    16    17   ar
    18    17    18   ar
    19    18    19   ar
    20    19    20   ar
    21    20    21   ar
    22     2    21   ar
    23    16    21   ar
    24     3    22    1
    25     6    23    1
    26     6    24    1
    27     8    25    1
    28     9    26    1
    29    10    27    1
    30    14    28    1
    31    15    29    1
    32    17    30    1
    33    18    31    1
    34    19    32    1
    35    20    33    1
@<TRIPOS>MOLECULE
mol60_1_14
 33 35 0 0 0
SMALL
USER_CHARGES
****
VDW energy = 64.84
@<TRIPOS>ATOM
   1 O1        6.7938    -0.2446    -2.0599  O.2     1  <O>11      -0.2658
   2 C1        7.4213     0.9528    -1.6663  C.ar    1  <O>11       0.2725
   3 N1        6.7347     1.7343    -0.7968  N.ar    1  <O>11      -0.2425
   4 N2        7.2340     2.9457    -0.4598  N.ar    1  <O>11      -0.1750
   5 C2        8.4134     3.3437    -0.9933  C.ar    1  <O>11       0.0736
   6 C3        8.8350     4.7170    -0.6550  C.3     1  <O>11       0.0172
   7 C4        9.6503     4.6931     0.5874  C.ar    1  <O>11      -0.0394
   8 C5       10.1708     5.8859     1.1168  C.ar    1  <O>11      -0.0581
   9 C6       10.9490     5.8607     2.2798  C.ar    1  <O>11      -0.0593
  10 C7       11.2105     4.6503     2.9262  C.ar    1  <O>11      -0.0316
  11 C8       10.6859     3.4615     2.4021  C.ar    1  <O>11       0.1219
  12 N3       10.9557     2.2162     3.0721  N.4     1  <O>11       0.0060
  13 O2       10.5604     2.3196     4.4620  O.2     1  <O>11      -0.1300
  14 O3       12.3737     1.9219     2.9935  O.2     1  <O>11      -0.3961
  15 C9        9.9079     3.4774     1.2431  C.ar    1  <O>11      -0.0281
  16 C10       9.2100     2.5349    -1.8162  C.ar    1  <O>11       0.0106
  17 C11      10.4688     2.9255    -2.3277  C.ar    1  <O>11      -0.0521
  18 C12      11.1965     2.0826    -3.1684  C.ar    1  <O>11      -0.0611
  19 C13      10.6797     0.8410    -3.5204  C.ar    1  <O>11      -0.0610
  20 C14       9.4353     0.4418    -3.0314  C.ar    1  <O>11      -0.0487
  21 C15       8.6875     1.2787    -2.1714  C.ar    1  <O>11       0.0496
  22 H1        5.8603     1.4136    -0.4062  H       1  <O>11       0.1921
  23 H2        7.9533     5.3397    -0.4986  H       1  <O>11       0.0377
  24 H3        9.4290     5.1268    -1.4719  H       1  <O>11       0.0377
  25 H4        9.9787     6.7841     0.6462  H       1  <O>11       0.0620
  26 H5       11.3313     6.7401     2.6614  H       1  <O>11       0.0618
  27 H6       11.7856     4.6318     3.7829  H       1  <O>11       0.0640
  28 H7       12.7862     1.8236     2.1580  H       1  <O>11       0.3292
  29 H8        9.5221     2.5967     0.8681  H       1  <O>11       0.0643
  30 H9       10.8555     3.8484    -2.0753  H       1  <O>11       0.0624
  31 H10      12.1168     2.3803    -3.5283  H       1  <O>11       0.0618
  32 H11      11.2155     0.2156    -4.1423  H       1  <O>11       0.0618
  33 H12       9.0548    -0.4786    -3.3016  H       1  <O>11       0.0625
@<TRIPOS>BOND
     1     1     2    2
     2     2     3   ar
     3     3     4   ar
     4     4     5   ar
     5     5     6    1
     6     6     7    1
     7     7     8   ar
     8     8     9   ar
     9     9    10   ar
    10    10    11   ar
    11    11    12    1
    12    12    13    2
    13    12    14    1
    14    11    15   ar
    15     7    15   ar
    16     5    16   ar
    17    16    17   ar
    18    17    18   ar
    19    18    19   ar
    20    19    20   ar
    21    20    21   ar
    22     2    21   ar
    23    16    21   ar
    24     3    22    1
    25     6    23    1
    26     6    24    1
    27     8    25    1
    28     9    26    1
    29    10    27    1
    30    14    28    1
    31    15    29    1
    32    17    30    1
    33    18    31    1
    34    19    32    1
    35    20    33    1
@<TRIPOS>MOLECULE
mol60_1_15
 33 35 0 0 0
SMALL
USER_CHARGES
****
VDW energy = 64.85
@<TRIPOS>ATOM
   1 O1        6.7938    -0.2446    -2.0599  O.2     1  <O>11      -0.2658
   2 C1        7.4213     0.9528    -1.6663  C.ar    1  <O>11       0.2725
   3 N1        6.7347     1.7343    -0.7968  N.ar    1  <O>11      -0.2425
   4 N2        7.2340     2.9457    -0.4598  N.ar    1  <O>11      -0.1750
   5 C2        8.4134     3.3437    -0.9933  C.ar    1  <O>11       0.0736
   6 C3        8.8350     4.7170    -0.6550  C.3     1  <O>11       0.0172
   7 C4        9.6503     4.6931     0.5874  C.ar    1  <O>11      -0.0394
   8 C5       10.1708     5.8859     1.1168  C.ar    1  <O>11      -0.0581
   9 C6       10.9490     5.8607     2.2798  C.ar    1  <O>11      -0.0593
  10 C7       11.2105     4.6503     2.9262  C.ar    1  <O>11      -0.0316
  11 C8       10.6859     3.4615     2.4021  C.ar    1  <O>11       0.1219
  12 N3       10.9557     2.2162     3.0721  N.4     1  <O>11       0.0060
  13 O2       11.6130     1.3068     2.1559  O.2     1  <O>11      -0.1300
  14 O3        9.7084     1.6297     3.5237  O.2     1  <O>11      -0.3961
  15 C9        9.9079     3.4774     1.2431  C.ar    1  <O>11      -0.0281
  16 C10       9.2100     2.5349    -1.8162  C.ar    1  <O>11       0.0106
  17 C11      10.4688     2.9255    -2.3277  C.ar    1  <O>11      -0.0521
  18 C12      11.1965     2.0826    -3.1684  C.ar    1  <O>11      -0.0611
  19 C13      10.6797     0.8410    -3.5204  C.ar    1  <O>11      -0.0610
  20 C14       9.4353     0.4418    -3.0314  C.ar    1  <O>11      -0.0487
  21 C15       8.6875     1.2787    -2.1714  C.ar    1  <O>11       0.0496
  22 H1        5.8603     1.4136    -0.4062  H       1  <O>11       0.1921
  23 H2        7.9533     5.3397    -0.4986  H       1  <O>11       0.0377
  24 H3        9.4290     5.1268    -1.4719  H       1  <O>11       0.0377
  25 H4        9.9787     6.7841     0.6462  H       1  <O>11       0.0620
  26 H5       11.3313     6.7401     2.6614  H       1  <O>11       0.0618
  27 H6       11.7856     4.6318     3.7829  H       1  <O>11       0.0640
  28 H7        9.1617     2.0966     4.1246  H       1  <O>11       0.3292
  29 H8        9.5221     2.5967     0.8681  H       1  <O>11       0.0643
  30 H9       10.8555     3.8484    -2.0753  H       1  <O>11       0.0624
  31 H10      12.1168     2.3803    -3.5283  H       1  <O>11       0.0618
  32 H11      11.2155     0.2156    -4.1423  H       1  <O>11       0.0618
  33 H12       9.0548    -0.4786    -3.3016  H       1  <O>11       0.0625
@<TRIPOS>BOND
     1     1     2    2
     2     2     3   ar
     3     3     4   ar
     4     4     5   ar
     5     5     6    1
     6     6     7    1
     7     7     8   ar
     8     8     9   ar
     9     9    10   ar
    10    10    11   ar
    11    11    12    1
    12    12    13    2
    13    12    14    1
    14    11    15   ar
    15     7    15   ar
    16     5    16   ar
    17    16    17   ar
    18    17    18   ar
    19    18    19   ar
    20    19    20   ar
    21    20    21   ar
    22     2    21   ar
    23    16    21   ar
    24     3    22    1
    25     6    23    1
    26     6    24    1
    27     8    25    1
    28     9    26    1
    29    10    27    1
    30    14    28    1
    31    15    29    1
    32    17    30    1
    33    18    31    1
    34    19    32    1
    35    20    33    1
@<TRIPOS>MOLECULE
mol60_1_16
 33 35 0 0 0
SMALL
USER_CHARGES
****
VDW energy = 66.00
@<TRIPOS>ATOM
   1 O1        6.7938    -0.2446    -2.0599  O.2     1  <O>11      -0.2658
   2 C1        7.4213     0.9528    -1.6663  C.ar    1  <O>11       0.2725
   3 N1        6.7347     1.7343    -0.7968  N.ar    1  <O>11      -0.2425
   4 N2        7.2340     2.9457    -0.4598  N.ar    1  <O>11      -0.1750
   5 C2        8.4134     3.3437    -0.9933  C.ar    1  <O>11       0.0736
   6 C3        8.8350     4.7170    -0.6550  C.3     1  <O>11       0.0172
   7 C4        7.8150     5.3460     0.2240  C.ar    1  <O>11      -0.0394
   8 C5        7.5026     4.7746     1.4690  C.ar    1  <O>11      -0.0581
   9 C6        6.5328     5.3607     2.2905  C.ar    1  <O>11      -0.0593
  10 C7        5.8711     6.5209     1.8814  C.ar    1  <O>11      -0.0316
  11 C8        6.1872     7.0946     0.6428  C.ar    1  <O>11       0.1219
  12 N3        5.5047     8.2914     0.2255  N.4     1  <O>11       0.0060
  13 O2        5.6392     9.3068     1.2500  O.2     1  <O>11      -0.1300
  14 O3        4.0996     7.9991     0.0163  O.2     1  <O>11      -0.3961
  15 C9        7.1539     6.5173    -0.1825  C.ar    1  <O>11      -0.0281
  16 C10       9.2100     2.5349    -1.8162  C.ar    1  <O>11       0.0106
  17 C11      10.4688     2.9255    -2.3277  C.ar    1  <O>11      -0.0521
  18 C12      11.1965     2.0826    -3.1684  C.ar    1  <O>11      -0.0611
  19 C13      10.6797     0.8410    -3.5204  C.ar    1  <O>11      -0.0610
  20 C14       9.4353     0.4418    -3.0314  C.ar    1  <O>11      -0.0487
  21 C15       8.6875     1.2787    -2.1714  C.ar    1  <O>11       0.0496
  22 H1        5.8603     1.4136    -0.4062  H       1  <O>11       0.1921
  23 H2        8.9360     5.3020    -1.5700  H       1  <O>11       0.0377
  24 H3        9.7930     4.6860    -0.1360  H       1  <O>11       0.0377
  25 H4        7.9901     3.9194     1.7790  H       1  <O>11       0.0620
  26 H5        6.3057     4.9339     3.2023  H       1  <O>11       0.0618
  27 H6        5.1550     6.9520     2.4866  H       1  <O>11       0.0640
  28 H7        3.8437     7.3592    -0.6185  H       1  <O>11       0.3292
  29 H8        7.3828     6.9506    -1.0908  H       1  <O>11       0.0643
  30 H9       10.8555     3.8484    -2.0753  H       1  <O>11       0.0624
  31 H10      12.1168     2.3803    -3.5283  H       1  <O>11       0.0618
  32 H11      11.2155     0.2156    -4.1423  H       1  <O>11       0.0618
  33 H12       9.0548    -0.4786    -3.3016  H       1  <O>11       0.0625
@<TRIPOS>BOND
     1     1     2    2
     2     2     3   ar
     3     3     4   ar
     4     4     5   ar
     5     5     6    1
     6     6     7    1
     7     7     8   ar
     8     8     9   ar
     9     9    10   ar
    10    10    11   ar
    11    11    12    1
    12    12    13    2
    13    12    14    1
    14    11    15   ar
    15     7    15   ar
    16     5    16   ar
    17    16    17   ar
    18    17    18   ar
    19    18    19   ar
    20    19    20   ar
    21    20    21   ar
    22     2    21   ar
    23    16    21   ar
    24     3    22    1
    25     6    23    1
    26     6    24    1
    27     8    25    1
    28     9    26    1
    29    10    27    1
    30    14    28    1
    31    15    29    1
    32    17    30    1
    33    18    31    1
    34    19    32    1
    35    20    33    1
@<TRIPOS>MOLECULE
mol60_1_17
 33 35 0 0 0
SMALL
USER_CHARGES
****
VDW energy = 66.04
@<TRIPOS>ATOM
   1 O1        6.7938    -0.2446    -2.0599  O.2     1  <O>11      -0.2658
   2 C1        7.4213     0.9528    -1.6663  C.ar    1  <O>11       0.2725
   3 N1        6.7347     1.7343    -0.7968  N.ar    1  <O>11      -0.2425
   4 N2        7.2340     2.9457    -0.4598  N.ar    1  <O>11      -0.1750
   5 C2        8.4134     3.3437    -0.9933  C.ar    1  <O>11       0.0736
   6 C3        8.8350     4.7170    -0.6550  C.3     1  <O>11       0.0172
   7 C4        8.3028     5.6629    -1.6702  C.ar    1  <O>11      -0.0394
   8 C5        8.5706     7.0383    -1.5670  C.ar    1  <O>11      -0.0581
   9 C6        8.0584     7.9297    -2.5166  C.ar    1  <O>11      -0.0593
  10 C7        7.2807     7.4588    -3.5772  C.ar    1  <O>11      -0.0316
  11 C8        7.0190     6.0865    -3.6841  C.ar    1  <O>11       0.1219
  12 N3        6.2191     5.6046    -4.7795  N.4     1  <O>11       0.0060
  13 O2        5.0656     4.8977    -4.2615  O.2     1  <O>11      -0.1300
  14 O3        7.0101     4.7049    -5.5972  O.2     1  <O>11      -0.3961
  15 C9        7.5268     5.1900    -2.7419  C.ar    1  <O>11      -0.0281
  16 C10       9.2100     2.5349    -1.8162  C.ar    1  <O>11       0.0106
  17 C11      10.4688     2.9255    -2.3277  C.ar    1  <O>11      -0.0521
  18 C12      11.1965     2.0826    -3.1684  C.ar    1  <O>11      -0.0611
  19 C13      10.6797     0.8410    -3.5204  C.ar    1  <O>11      -0.0610
  20 C14       9.4353     0.4418    -3.0314  C.ar    1  <O>11      -0.0487
  21 C15       8.6875     1.2787    -2.1714  C.ar    1  <O>11       0.0496
  22 H1        5.8603     1.4136    -0.4062  H       1  <O>11       0.1921
  23 H2        9.9243     4.7707    -0.6448  H       1  <O>11       0.0377
  24 H3        8.4489     4.9842     0.3287  H       1  <O>11       0.0377
  25 H4        9.1473     7.3926    -0.7879  H       1  <O>11       0.0620
  26 H5        8.2560     8.9391    -2.4330  H       1  <O>11       0.0618
  27 H6        6.9019     8.1164    -4.2764  H       1  <O>11       0.0640
  28 H7        7.7945     5.0122    -6.0074  H       1  <O>11       0.3292
  29 H8        7.3323     4.1805    -2.8326  H       1  <O>11       0.0643
  30 H9       10.8555     3.8484    -2.0753  H       1  <O>11       0.0624
  31 H10      12.1168     2.3803    -3.5283  H       1  <O>11       0.0618
  32 H11      11.2155     0.2156    -4.1423  H       1  <O>11       0.0618
  33 H12       9.0548    -0.4786    -3.3016  H       1  <O>11       0.0625
@<TRIPOS>BOND
     1     1     2    2
     2     2     3   ar
     3     3     4   ar
     4     4     5   ar
     5     5     6    1
     6     6     7    1
     7     7     8   ar
     8     8     9   ar
     9     9    10   ar
    10    10    11   ar
    11    11    12    1
    12    12    13    2
    13    12    14    1
    14    11    15   ar
    15     7    15   ar
    16     5    16   ar
    17    16    17   ar
    18    17    18   ar
    19    18    19   ar
    20    19    20   ar
    21    20    21   ar
    22     2    21   ar
    23    16    21   ar
    24     3    22    1
    25     6    23    1
    26     6    24    1
    27     8    25    1
    28     9    26    1
    29    10    27    1
    30    14    28    1
    31    15    29    1
    32    17    30    1
    33    18    31    1
    34    19    32    1
    35    20    33    1
@<TRIPOS>MOLECULE
mol60_1_18
 33 35 0 0 0
SMALL
USER_CHARGES
****
VDW energy = 66.09
@<TRIPOS>ATOM
   1 O1        6.7938    -0.2446    -2.0599  O.2     1  <O>11      -0.2658
   2 C1        7.4213     0.9528    -1.6663  C.ar    1  <O>11       0.2725
   3 N1        6.7347     1.7343    -0.7968  N.ar    1  <O>11      -0.2425
   4 N2        7.2340     2.9457    -0.4598  N.ar    1  <O>11      -0.1750
   5 C2        8.4134     3.3437    -0.9933  C.ar    1  <O>11       0.0736
   6 C3        8.8350     4.7170    -0.6550  C.3     1  <O>11       0.0172
   7 C4        9.6503     4.6931     0.5874  C.ar    1  <O>11      -0.0394
   8 C5       10.8439     3.9536     0.6379  C.ar    1  <O>11      -0.0581
   9 C6       11.6044     3.9215     1.8124  C.ar    1  <O>11      -0.0593
  10 C7       11.1854     4.6281     2.9422  C.ar    1  <O>11      -0.0316
  11 C8        9.9986     5.3710     2.8900  C.ar    1  <O>11       0.1219
  12 N3        9.5710     6.0996     4.0556  N.4     1  <O>11       0.0060
  13 O2        8.2495     5.6534     4.4468  O.2     1  <O>11      -0.1300
  14 O3        9.5324     7.5174     3.7526  O.2     1  <O>11      -0.3961
  15 C9        9.2343     5.4094     1.7223  C.ar    1  <O>11      -0.0281
  16 C10       9.2100     2.5349    -1.8162  C.ar    1  <O>11       0.0106
  17 C11      10.4688     2.9255    -2.3277  C.ar    1  <O>11      -0.0521
  18 C12      11.1965     2.0826    -3.1684  C.ar    1  <O>11      -0.0611
  19 C13      10.6797     0.8410    -3.5204  C.ar    1  <O>11      -0.0610
  20 C14       9.4353     0.4418    -3.0314  C.ar    1  <O>11      -0.0487
  21 C15       8.6875     1.2787    -2.1714  C.ar    1  <O>11       0.0496
  22 H1        5.8603     1.4136    -0.4062  H       1  <O>11       0.1921
  23 H2        7.9533     5.3397    -0.4986  H       1  <O>11       0.0377
  24 H3        9.4290     5.1268    -1.4719  H       1  <O>11       0.0377
  25 H4       11.1611     3.4320    -0.1942  H       1  <O>11       0.0620
  26 H5       12.4783     3.3736     1.8439  H       1  <O>11       0.0618
  27 H6       11.7455     4.6031     3.8086  H       1  <O>11       0.0640
  28 H7       10.3127     7.9601     3.4822  H       1  <O>11       0.3292
  29 H8        8.3642     5.9636     1.6928  H       1  <O>11       0.0643
  30 H9       10.8555     3.8484    -2.0753  H       1  <O>11       0.0624
  31 H10      12.1168     2.3803    -3.5283  H       1  <O>11       0.0618
  32 H11      11.2155     0.2156    -4.1423  H       1  <O>11       0.0618
  33 H12       9.0548    -0.4786    -3.3016  H       1  <O>11       0.0625
@<TRIPOS>BOND
     1     1     2    2
     2     2     3   ar
     3     3     4   ar
     4     4     5   ar
     5     5     6    1
     6     6     7    1
     7     7     8   ar
     8     8     9   ar
     9     9    10   ar
    10    10    11   ar
    11    11    12    1
    12    12    13    2
    13    12    14    1
    14    11    15   ar
    15     7    15   ar
    16     5    16   ar
    17    16    17   ar
    18    17    18   ar
    19    18    19   ar
    20    19    20   ar
    21    20    21   ar
    22     2    21   ar
    23    16    21   ar
    24     3    22    1
    25     6    23    1
    26     6    24    1
    27     8    25    1
    28     9    26    1
    29    10    27    1
    30    14    28    1
    31    15    29    1
    32    17    30    1
    33    18    31    1
    34    19    32    1
    35    20    33    1
@<TRIPOS>MOLECULE
mol60_1_19
 33 35 0 0 0
SMALL
USER_CHARGES
****
VDW energy = 66.39
@<TRIPOS>ATOM
   1 O1        6.7938    -0.2446    -2.0599  O.2     1  <O>11      -0.2658
   2 C1        7.4213     0.9528    -1.6663  C.ar    1  <O>11       0.2725
   3 N1        6.7347     1.7343    -0.7968  N.ar    1  <O>11      -0.2425
   4 N2        7.2340     2.9457    -0.4598  N.ar    1  <O>11      -0.1750
   5 C2        8.4134     3.3437    -0.9933  C.ar    1  <O>11       0.0736
   6 C3        8.8350     4.7170    -0.6550  C.3     1  <O>11       0.0172
   7 C4        9.6503     4.6931     0.5874  C.ar    1  <O>11      -0.0394
   8 C5       10.8439     3.9536     0.6379  C.ar    1  <O>11      -0.0581
   9 C6       11.6044     3.9215     1.8124  C.ar    1  <O>11      -0.0593
  10 C7       11.1854     4.6281     2.9422  C.ar    1  <O>11      -0.0316
  11 C8        9.9986     5.3710     2.8900  C.ar    1  <O>11       0.1219
  12 N3        9.5710     6.0996     4.0556  N.4     1  <O>11       0.0060
  13 O2       10.6395     6.9712     4.4997  O.2     1  <O>11      -0.1300
  14 O3        9.2373     5.1660     5.1142  O.2     1  <O>11      -0.3961
  15 C9        9.2343     5.4094     1.7223  C.ar    1  <O>11      -0.0281
  16 C10       9.2100     2.5349    -1.8162  C.ar    1  <O>11       0.0106
  17 C11      10.4688     2.9255    -2.3277  C.ar    1  <O>11      -0.0521
  18 C12      11.1965     2.0826    -3.1684  C.ar    1  <O>11      -0.0611
  19 C13      10.6797     0.8410    -3.5204  C.ar    1  <O>11      -0.0610
  20 C14       9.4353     0.4418    -3.0314  C.ar    1  <O>11      -0.0487
  21 C15       8.6875     1.2787    -2.1714  C.ar    1  <O>11       0.0496
  22 H1        5.8603     1.4136    -0.4062  H       1  <O>11       0.1921
  23 H2        7.9533     5.3397    -0.4986  H       1  <O>11       0.0377
  24 H3        9.4290     5.1268    -1.4719  H       1  <O>11       0.0377
  25 H4       11.1611     3.4320    -0.1942  H       1  <O>11       0.0620
  26 H5       12.4783     3.3736     1.8439  H       1  <O>11       0.0618
  27 H6       11.7455     4.6031     3.8086  H       1  <O>11       0.0640
  28 H7        8.5607     4.5313     4.9830  H       1  <O>11       0.3292
  29 H8        8.3642     5.9636     1.6928  H       1  <O>11       0.0643
  30 H9       10.8555     3.8484    -2.0753  H       1  <O>11       0.0624
  31 H10      12.1168     2.3803    -3.5283  H       1  <O>11       0.0618
  32 H11      11.2155     0.2156    -4.1423  H       1  <O>11       0.0618
  33 H12       9.0548    -0.4786    -3.3016  H       1  <O>11       0.0625
@<TRIPOS>BOND
     1     1     2    2
     2     2     3   ar
     3     3     4   ar
     4     4     5   ar
     5     5     6    1
     6     6     7    1
     7     7     8   ar
     8     8     9   ar
     9     9    10   ar
    10    10    11   ar
    11    11    12    1
    12    12    13    2
    13    12    14    1
    14    11    15   ar
    15     7    15   ar
    16     5    16   ar
    17    16    17   ar
    18    17    18   ar
    19    18    19   ar
    20    19    20   ar
    21    20    21   ar
    22     2    21   ar
    23    16    21   ar
    24     3    22    1
    25     6    23    1
    26     6    24    1
    27     8    25    1
    28     9    26    1
    29    10    27    1
    30    14    28    1
    31    15    29    1
    32    17    30    1
    33    18    31    1
    34    19    32    1
    35    20    33    1
@<TRIPOS>MOLECULE
mol60_1_20
 33 35 0 0 0
SMALL
USER_CHARGES
****
VDW energy = 68.53
@<TRIPOS>ATOM
   1 O1        6.7938    -0.2446    -2.0599  O.2     1  <O>11      -0.2658
   2 C1        7.4213     0.9528    -1.6663  C.ar    1  <O>11       0.2725
   3 N1        6.7347     1.7343    -0.7968  N.ar    1  <O>11      -0.2425
   4 N2        7.2340     2.9457    -0.4598  N.ar    1  <O>11      -0.1750
   5 C2        8.4134     3.3437    -0.9933  C.ar    1  <O>11       0.0736
   6 C3        8.8350     4.7170    -0.6550  C.3     1  <O>11       0.0172
   7 C4        8.3028     5.6629    -1.6702  C.ar    1  <O>11      -0.0394
   8 C5        7.0433     6.2596    -1.4919  C.ar    1  <O>11      -0.0581
   9 C6        6.5376     7.1405    -2.4547  C.ar    1  <O>11      -0.0593
  10 C7        7.2827     7.4371    -3.5984  C.ar    1  <O>11      -0.0316
  11 C8        8.5416     6.8474    -3.7733  C.ar    1  <O>11       0.1219
  12 N3        9.3076     7.1572    -4.9521  N.4     1  <O>11       0.0060
  13 O2        8.5612     6.7658    -6.1303  O.2     1  <O>11      -0.1300
  14 O3       10.5654     6.4359    -4.9151  O.2     1  <O>11      -0.3961
  15 C9        9.0543     5.9684    -2.8175  C.ar    1  <O>11      -0.0281
  16 C10       9.2100     2.5349    -1.8162  C.ar    1  <O>11       0.0106
  17 C11      10.4688     2.9255    -2.3277  C.ar    1  <O>11      -0.0521
  18 C12      11.1965     2.0826    -3.1684  C.ar    1  <O>11      -0.0611
  19 C13      10.6797     0.8410    -3.5204  C.ar    1  <O>11      -0.0610
  20 C14       9.4353     0.4418    -3.0314  C.ar    1  <O>11      -0.0487
  21 C15       8.6875     1.2787    -2.1714  C.ar    1  <O>11       0.0496
  22 H1        5.8603     1.4136    -0.4062  H       1  <O>11       0.1921
  23 H2        9.9243     4.7707    -0.6448  H       1  <O>11       0.0377
  24 H3        8.4489     4.9842     0.3287  H       1  <O>11       0.0377
  25 H4        6.4890     6.0475    -0.6476  H       1  <O>11       0.0620
  26 H5        5.6102     7.5726    -2.3192  H       1  <O>11       0.0618
  27 H6        6.9090     8.0855    -4.3090  H       1  <O>11       0.0640
  28 H7       11.1664     6.5782    -4.2104  H       1  <O>11       0.3292
  29 H8        9.9848     5.5432    -2.9535  H       1  <O>11       0.0643
  30 H9       10.8555     3.8484    -2.0753  H       1  <O>11       0.0624
  31 H10      12.1168     2.3803    -3.5283  H       1  <O>11       0.0618
  32 H11      11.2155     0.2156    -4.1423  H       1  <O>11       0.0618
  33 H12       9.0548    -0.4786    -3.3016  H       1  <O>11       0.0625
@<TRIPOS>BOND
     1     1     2    2
     2     2     3   ar
     3     3     4   ar
     4     4     5   ar
     5     5     6    1
     6     6     7    1
     7     7     8   ar
     8     8     9   ar
     9     9    10   ar
    10    10    11   ar
    11    11    12    1
    12    12    13    2
    13    12    14    1
    14    11    15   ar
    15     7    15   ar
    16     5    16   ar
    17    16    17   ar
    18    17    18   ar
    19    18    19   ar
    20    19    20   ar
    21    20    21   ar
    22     2    21   ar
    23    16    21   ar
    24     3    22    1
    25     6    23    1
    26     6    24    1
    27     8    25    1
    28     9    26    1
    29    10    27    1
    30    14    28    1
    31    15    29    1
    32    17    30    1
    33    18    31    1
    34    19    32    1
    35    20    33    1
@<TRIPOS>MOLECULE
mol60_1_21
 33 35 0 0 0
SMALL
USER_CHARGES
****
VDW energy = 69.99
@<TRIPOS>ATOM
   1 O1        6.7938    -0.2446    -2.0599  O.2     1  <O>11      -0.2658
   2 C1        7.4213     0.9528    -1.6663  C.ar    1  <O>11       0.2725
   3 N1        6.7347     1.7343    -0.7968  N.ar    1  <O>11      -0.2425
   4 N2        7.2340     2.9457    -0.4598  N.ar    1  <O>11      -0.1750
   5 C2        8.4134     3.3437    -0.9933  C.ar    1  <O>11       0.0736
   6 C3        8.8350     4.7170    -0.6550  C.3     1  <O>11       0.0172
   7 C4        7.8150     5.3460     0.2240  C.ar    1  <O>11      -0.0394
   8 C5        7.9117     5.2262     1.6206  C.ar    1  <O>11      -0.0581
   9 C6        6.9437     5.8083     2.4470  C.ar    1  <O>11      -0.0593
  10 C7        5.8762     6.5168     1.8903  C.ar    1  <O>11      -0.0316
  11 C8        5.7832     6.6420     0.4979  C.ar    1  <O>11       0.1219
  12 N3        4.6830     7.3748    -0.0720  N.4     1  <O>11       0.0060
  13 O2        3.4342     6.7516     0.3164  O.2     1  <O>11      -0.1300
  14 O3        4.7961     7.3703    -1.5180  O.2     1  <O>11      -0.3961
  15 C9        6.7449     6.0655    -0.3339  C.ar    1  <O>11      -0.0281
  16 C10       9.2100     2.5349    -1.8162  C.ar    1  <O>11       0.0106
  17 C11      10.4688     2.9255    -2.3277  C.ar    1  <O>11      -0.0521
  18 C12      11.1965     2.0826    -3.1684  C.ar    1  <O>11      -0.0611
  19 C13      10.6797     0.8410    -3.5204  C.ar    1  <O>11      -0.0610
  20 C14       9.4353     0.4418    -3.0314  C.ar    1  <O>11      -0.0487
  21 C15       8.6875     1.2787    -2.1714  C.ar    1  <O>11       0.0496
  22 H1        5.8603     1.4136    -0.4062  H       1  <O>11       0.1921
  23 H2        8.9360     5.3020    -1.5700  H       1  <O>11       0.0377
  24 H3        9.7930     4.6860    -0.1360  H       1  <O>11       0.0377
  25 H4        8.6996     4.7071     2.0386  H       1  <O>11       0.0620
  26 H5        7.0188     5.7136     3.4719  H       1  <O>11       0.0618
  27 H6        5.1618     6.9446     2.4998  H       1  <O>11       0.0640
  28 H7        5.5522     7.7399    -1.9299  H       1  <O>11       0.3292
  29 H8        6.6697     6.1679    -1.3581  H       1  <O>11       0.0643
  30 H9       10.8555     3.8484    -2.0753  H       1  <O>11       0.0624
  31 H10      12.1168     2.3803    -3.5283  H       1  <O>11       0.0618
  32 H11      11.2155     0.2156    -4.1423  H       1  <O>11       0.0618
  33 H12       9.0548    -0.4786    -3.3016  H       1  <O>11       0.0625
@<TRIPOS>BOND
     1     1     2    2
     2     2     3   ar
     3     3     4   ar
     4     4     5   ar
     5     5     6    1
     6     6     7    1
     7     7     8   ar
     8     8     9   ar
     9     9    10   ar
    10    10    11   ar
    11    11    12    1
    12    12    13    2
    13    12    14    1
    14    11    15   ar
    15     7    15   ar
    16     5    16   ar
    17    16    17   ar
    18    17    18   ar
    19    18    19   ar
    20    19    20   ar
    21    20    21   ar
    22     2    21   ar
    23    16    21   ar
    24     3    22    1
    25     6    23    1
    26     6    24    1
    27     8    25    1
    28     9    26    1
    29    10    27    1
    30    14    28    1
    31    15    29    1
    32    17    30    1
    33    18    31    1
    34    19    32    1
    35    20    33    1
@<TRIPOS>MOLECULE
mol60_1_22
 33 35 0 0 0
SMALL
USER_CHARGES
****
VDW energy = 70.09
@<TRIPOS>ATOM
   1 O1        6.7938    -0.2446    -2.0599  O.2     1  <O>11      -0.2658
   2 C1        7.4213     0.9528    -1.6663  C.ar    1  <O>11       0.2725
   3 N1        6.7347     1.7343    -0.7968  N.ar    1  <O>11      -0.2425
   4 N2        7.2340     2.9457    -0.4598  N.ar    1  <O>11      -0.1750
   5 C2        8.4134     3.3437    -0.9933  C.ar    1  <O>11       0.0736
   6 C3        8.8350     4.7170    -0.6550  C.3     1  <O>11       0.0172
   7 C4        9.6503     4.6931     0.5874  C.ar    1  <O>11      -0.0394
   8 C5        9.0336     4.8271     1.8427  C.ar    1  <O>11      -0.0581
   9 C6        9.8036     4.8171     3.0113  C.ar    1  <O>11      -0.0593
  10 C7       11.1908     4.6691     2.9395  C.ar    1  <O>11      -0.0316
  11 C8       11.8053     4.5287     1.6881  C.ar    1  <O>11       0.1219
  12 N3       13.2348     4.3743     1.6181  N.4     1  <O>11       0.0060
  13 O2       13.8756     5.5336     2.2045  O.2     1  <O>11      -0.1300
  14 O3       13.6403     4.2476     0.2313  O.2     1  <O>11      -0.3961
  15 C9       11.0448     4.5366     0.5174  C.ar    1  <O>11      -0.0281
  16 C10       9.2100     2.5349    -1.8162  C.ar    1  <O>11       0.0106
  17 C11      10.4688     2.9255    -2.3277  C.ar    1  <O>11      -0.0521
  18 C12      11.1965     2.0826    -3.1684  C.ar    1  <O>11      -0.0611
  19 C13      10.6797     0.8410    -3.5204  C.ar    1  <O>11      -0.0610
  20 C14       9.4353     0.4418    -3.0314  C.ar    1  <O>11      -0.0487
  21 C15       8.6875     1.2787    -2.1714  C.ar    1  <O>11       0.0496
  22 H1        5.8603     1.4136    -0.4062  H       1  <O>11       0.1921
  23 H2        7.9533     5.3397    -0.4986  H       1  <O>11       0.0377
  24 H3        9.4290     5.1268    -1.4719  H       1  <O>11       0.0377
  25 H4        8.0088     4.9334     1.9033  H       1  <O>11       0.0620
  26 H5        9.3447     4.9195     3.9300  H       1  <O>11       0.0618
  27 H6       11.7585     4.6633     3.8012  H       1  <O>11       0.0640
  28 H7       13.3104     3.5430    -0.2907  H       1  <O>11       0.3292
  29 H8       11.5068     4.4275    -0.3990  H       1  <O>11       0.0643
  30 H9       10.8555     3.8484    -2.0753  H       1  <O>11       0.0624
  31 H10      12.1168     2.3803    -3.5283  H       1  <O>11       0.0618
  32 H11      11.2155     0.2156    -4.1423  H       1  <O>11       0.0618
  33 H12       9.0548    -0.4786    -3.3016  H       1  <O>11       0.0625
@<TRIPOS>BOND
     1     1     2    2
     2     2     3   ar
     3     3     4   ar
     4     4     5   ar
     5     5     6    1
     6     6     7    1
     7     7     8   ar
     8     8     9   ar
     9     9    10   ar
    10    10    11   ar
    11    11    12    1
    12    12    13    2
    13    12    14    1
    14    11    15   ar
    15     7    15   ar
    16     5    16   ar
    17    16    17   ar
    18    17    18   ar
    19    18    19   ar
    20    19    20   ar
    21    20    21   ar
    22     2    21   ar
    23    16    21   ar
    24     3    22    1
    25     6    23    1
    26     6    24    1
    27     8    25    1
    28     9    26    1
    29    10    27    1
    30    14    28    1
    31    15    29    1
    32    17    30    1
    33    18    31    1
    34    19    32    1
    35    20    33    1
@<TRIPOS>MOLECULE
mol60_1_23
 33 35 0 0 0
SMALL
USER_CHARGES
****
VDW energy = 70.88
@<TRIPOS>ATOM
   1 O1        6.7938    -0.2446    -2.0599  O.2     1  <O>11      -0.2658
   2 C1        7.4213     0.9528    -1.6663  C.ar    1  <O>11       0.2725
   3 N1        6.7347     1.7343    -0.7968  N.ar    1  <O>11      -0.2425
   4 N2        7.2340     2.9457    -0.4598  N.ar    1  <O>11      -0.1750
   5 C2        8.4134     3.3437    -0.9933  C.ar    1  <O>11       0.0736
   6 C3        8.8350     4.7170    -0.6550  C.3     1  <O>11       0.0172
   7 C4        8.9738     5.5139    -1.9017  C.ar    1  <O>11      -0.0394
   8 C5        7.8695     5.7013    -2.7500  C.ar    1  <O>11      -0.0581
   9 C6        8.0044     6.4414    -3.9302  C.ar    1  <O>11      -0.0593
  10 C7        9.2367     7.0035    -4.2720  C.ar    1  <O>11      -0.0316
  11 C8       10.3364     6.8224    -3.4229  C.ar    1  <O>11       0.1219
  12 N3       11.6042     7.4050    -3.7774  N.4     1  <O>11       0.0060
  13 O2       12.0424     6.8713    -5.0508  O.2     1  <O>11      -0.1300
  14 O3       12.5848     7.0872    -2.7570  O.2     1  <O>11      -0.3961
  15 C9       10.2106     6.0865    -2.2432  C.ar    1  <O>11      -0.0281
  16 C10       9.2100     2.5349    -1.8162  C.ar    1  <O>11       0.0106
  17 C11      10.4688     2.9255    -2.3277  C.ar    1  <O>11      -0.0521
  18 C12      11.1965     2.0826    -3.1684  C.ar    1  <O>11      -0.0611
  19 C13      10.6797     0.8410    -3.5204  C.ar    1  <O>11      -0.0610
  20 C14       9.4353     0.4418    -3.0314  C.ar    1  <O>11      -0.0487
  21 C15       8.6875     1.2787    -2.1714  C.ar    1  <O>11       0.0496
  22 H1        5.8603     1.4136    -0.4062  H       1  <O>11       0.1921
  23 H2        9.7937     4.6854    -0.1359  H       1  <O>11       0.0377
  24 H3        8.0875     5.1785    -0.0097  H       1  <O>11       0.0377
  25 H4        6.9553     5.2917    -2.5018  H       1  <O>11       0.0620
  26 H5        7.1901     6.5723    -4.5505  H       1  <O>11       0.0618
  27 H6        9.3363     7.5479    -5.1431  H       1  <O>11       0.0640
  28 H7       12.4473     7.3645    -1.8726  H       1  <O>11       0.3292
  29 H8       11.0257     5.9632    -1.6223  H       1  <O>11       0.0643
  30 H9       10.8555     3.8484    -2.0753  H       1  <O>11       0.0624
  31 H10      12.1168     2.3803    -3.5283  H       1  <O>11       0.0618
  32 H11      11.2155     0.2156    -4.1423  H       1  <O>11       0.0618
  33 H12       9.0548    -0.4786    -3.3016  H       1  <O>11       0.0625
@<TRIPOS>BOND
     1     1     2    2
     2     2     3   ar
     3     3     4   ar
     4     4     5   ar
     5     5     6    1
     6     6     7    1
     7     7     8   ar
     8     8     9   ar
     9     9    10   ar
    10    10    11   ar
    11    11    12    1
    12    12    13    2
    13    12    14    1
    14    11    15   ar
    15     7    15   ar
    16     5    16   ar
    17    16    17   ar
    18    17    18   ar
    19    18    19   ar
    20    19    20   ar
    21    20    21   ar
    22     2    21   ar
    23    16    21   ar
    24     3    22    1
    25     6    23    1
    26     6    24    1
    27     8    25    1
    28     9    26    1
    29    10    27    1
    30    14    28    1
    31    15    29    1
    32    17    30    1
    33    18    31    1
    34    19    32    1
    35    20    33    1
@<TRIPOS>MOLECULE
mol60_1_24
 33 35 0 0 0
SMALL
USER_CHARGES
****
VDW energy = 70.94
@<TRIPOS>ATOM
   1 O1        6.7938    -0.2446    -2.0599  O.2     1  <O>11      -0.2658
   2 C1        7.4213     0.9528    -1.6663  C.ar    1  <O>11       0.2725
   3 N1        6.7347     1.7343    -0.7968  N.ar    1  <O>11      -0.2425
   4 N2        7.2340     2.9457    -0.4598  N.ar    1  <O>11      -0.1750
   5 C2        8.4134     3.3437    -0.9933  C.ar    1  <O>11       0.0736
   6 C3        8.8350     4.7170    -0.6550  C.3     1  <O>11       0.0172
   7 C4        9.6503     4.6931     0.5874  C.ar    1  <O>11      -0.0394
   8 C5       10.8439     3.9536     0.6379  C.ar    1  <O>11      -0.0581
   9 C6       11.6044     3.9215     1.8124  C.ar    1  <O>11      -0.0593
  10 C7       11.1854     4.6281     2.9422  C.ar    1  <O>11      -0.0316
  11 C8        9.9986     5.3710     2.8900  C.ar    1  <O>11       0.1219
  12 N3        9.5710     6.0996     4.0556  N.4     1  <O>11       0.0060
  13 O2        8.2631     6.6736     3.8141  O.2     1  <O>11      -0.1300
  14 O3       10.5195     7.1599     4.3382  O.2     1  <O>11      -0.3961
  15 C9        9.2343     5.4094     1.7223  C.ar    1  <O>11      -0.0281
  16 C10       9.2100     2.5349    -1.8162  C.ar    1  <O>11       0.0106
  17 C11      10.4688     2.9255    -2.3277  C.ar    1  <O>11      -0.0521
  18 C12      11.1965     2.0826    -3.1684  C.ar    1  <O>11      -0.0611
  19 C13      10.6797     0.8410    -3.5204  C.ar    1  <O>11      -0.0610
  20 C14       9.4353     0.4418    -3.0314  C.ar    1  <O>11      -0.0487
  21 C15       8.6875     1.2787    -2.1714  C.ar    1  <O>11       0.0496
  22 H1        5.8603     1.4136    -0.4062  H       1  <O>11       0.1921
  23 H2        7.9533     5.3397    -0.4986  H       1  <O>11       0.0377
  24 H3        9.4290     5.1268    -1.4719  H       1  <O>11       0.0377
  25 H4       11.1611     3.4320    -0.1942  H       1  <O>11       0.0620
  26 H5       12.4783     3.3736     1.8439  H       1  <O>11       0.0618
  27 H6       11.7455     4.6031     3.8086  H       1  <O>11       0.0640
  28 H7       11.4154     6.9516     4.5170  H       1  <O>11       0.3292
  29 H8        8.3642     5.9636     1.6928  H       1  <O>11       0.0643
  30 H9       10.8555     3.8484    -2.0753  H       1  <O>11       0.0624
  31 H10      12.1168     2.3803    -3.5283  H       1  <O>11       0.0618
  32 H11      11.2155     0.2156    -4.1423  H       1  <O>11       0.0618
  33 H12       9.0548    -0.4786    -3.3016  H       1  <O>11       0.0625
@<TRIPOS>BOND
     1     1     2    2
     2     2     3   ar
     3     3     4   ar
     4     4     5   ar
     5     5     6    1
     6     6     7    1
     7     7     8   ar
     8     8     9   ar
     9     9    10   ar
    10    10    11   ar
    11    11    12    1
    12    12    13    2
    13    12    14    1
    14    11    15   ar
    15     7    15   ar
    16     5    16   ar
    17    16    17   ar
    18    17    18   ar
    19    18    19   ar
    20    19    20   ar
    21    20    21   ar
    22     2    21   ar
    23    16    21   ar
    24     3    22    1
    25     6    23    1
    26     6    24    1
    27     8    25    1
    28     9    26    1
    29    10    27    1
    30    14    28    1
    31    15    29    1
    32    17    30    1
    33    18    31    1
    34    19    32    1
    35    20    33    1
@<TRIPOS>MOLECULE
mol60_1_25
 33 35 0 0 0
SMALL
USER_CHARGES
****
VDW energy = 73.60
@<TRIPOS>ATOM
   1 O1        6.7938    -0.2446    -2.0599  O.2     1  <O>11      -0.2658
   2 C1        7.4213     0.9528    -1.6663  C.ar    1  <O>11       0.2725
   3 N1        6.7347     1.7343    -0.7968  N.ar    1  <O>11      -0.2425
   4 N2        7.2340     2.9457    -0.4598  N.ar    1  <O>11      -0.1750
   5 C2        8.4134     3.3437    -0.9933  C.ar    1  <O>11       0.0736
   6 C3        8.8350     4.7170    -0.6550  C.3     1  <O>11       0.0172
   7 C4        9.6503     4.6931     0.5874  C.ar    1  <O>11      -0.0394
   8 C5       10.1708     5.8859     1.1168  C.ar    1  <O>11      -0.0581
   9 C6       10.9490     5.8607     2.2798  C.ar    1  <O>11      -0.0593
  10 C7       11.2105     4.6503     2.9262  C.ar    1  <O>11      -0.0316
  11 C8       10.6859     3.4615     2.4021  C.ar    1  <O>11       0.1219
  12 N3       10.9557     2.2162     3.0721  N.4     1  <O>11       0.0060
  13 O2       12.3859     1.9896     3.1138  O.2     1  <O>11      -0.1300
  14 O3       10.3152     1.1314     2.3533  O.2     1  <O>11      -0.3961
  15 C9        9.9079     3.4774     1.2431  C.ar    1  <O>11      -0.0281
  16 C10       9.2100     2.5349    -1.8162  C.ar    1  <O>11       0.0106
  17 C11      10.4688     2.9255    -2.3277  C.ar    1  <O>11      -0.0521
  18 C12      11.1965     2.0826    -3.1684  C.ar    1  <O>11      -0.0611
  19 C13      10.6797     0.8410    -3.5204  C.ar    1  <O>11      -0.0610
  20 C14       9.4353     0.4418    -3.0314  C.ar    1  <O>11      -0.0487
  21 C15       8.6875     1.2787    -2.1714  C.ar    1  <O>11       0.0496
  22 H1        5.8603     1.4136    -0.4062  H       1  <O>11       0.1921
  23 H2        7.9533     5.3397    -0.4986  H       1  <O>11       0.0377
  24 H3        9.4290     5.1268    -1.4719  H       1  <O>11       0.0377
  25 H4        9.9787     6.7841     0.6462  H       1  <O>11       0.0620
  26 H5       11.3313     6.7401     2.6614  H       1  <O>11       0.0618
  27 H6       11.7856     4.6318     3.7829  H       1  <O>11       0.0640
  28 H7        9.3853     1.1302     2.2385  H       1  <O>11       0.3292
  29 H8        9.5221     2.5967     0.8681  H       1  <O>11       0.0643
  30 H9       10.8555     3.8484    -2.0753  H       1  <O>11       0.0624
  31 H10      12.1168     2.3803    -3.5283  H       1  <O>11       0.0618
  32 H11      11.2155     0.2156    -4.1423  H       1  <O>11       0.0618
  33 H12       9.0548    -0.4786    -3.3016  H       1  <O>11       0.0625
@<TRIPOS>BOND
     1     1     2    2
     2     2     3   ar
     3     3     4   ar
     4     4     5   ar
     5     5     6    1
     6     6     7    1
     7     7     8   ar
     8     8     9   ar
     9     9    10   ar
    10    10    11   ar
    11    11    12    1
    12    12    13    2
    13    12    14    1
    14    11    15   ar
    15     7    15   ar
    16     5    16   ar
    17    16    17   ar
    18    17    18   ar
    19    18    19   ar
    20    19    20   ar
    21    20    21   ar
    22     2    21   ar
    23    16    21   ar
    24     3    22    1
    25     6    23    1
    26     6    24    1
    27     8    25    1
    28     9    26    1
    29    10    27    1
    30    14    28    1
    31    15    29    1
    32    17    30    1
    33    18    31    1
    34    19    32    1
    35    20    33    1
@<TRIPOS>MOLECULE
mol60_1_26
 33 35 0 0 0
SMALL
USER_CHARGES
****
VDW energy = 73.63
@<TRIPOS>ATOM
   1 O1        6.7938    -0.2446    -2.0599  O.2     1  <O>11      -0.2658
   2 C1        7.4213     0.9528    -1.6663  C.ar    1  <O>11       0.2725
   3 N1        6.7347     1.7343    -0.7968  N.ar    1  <O>11      -0.2425
   4 N2        7.2340     2.9457    -0.4598  N.ar    1  <O>11      -0.1750
   5 C2        8.4134     3.3437    -0.9933  C.ar    1  <O>11       0.0736
   6 C3        8.8350     4.7170    -0.6550  C.3     1  <O>11       0.0172
   7 C4        9.6503     4.6931     0.5874  C.ar    1  <O>11      -0.0394
   8 C5       10.8439     3.9536     0.6379  C.ar    1  <O>11      -0.0581
   9 C6       11.6044     3.9215     1.8124  C.ar    1  <O>11      -0.0593
  10 C7       11.1854     4.6281     2.9422  C.ar    1  <O>11      -0.0316
  11 C8        9.9986     5.3710     2.8900  C.ar    1  <O>11       0.1219
  12 N3        9.5710     6.0996     4.0556  N.4     1  <O>11       0.0060
  13 O2        9.3693     5.1778     5.1548  O.2     1  <O>11      -0.1300
  14 O3        8.3270     6.7872     3.7669  O.2     1  <O>11      -0.3961
  15 C9        9.2343     5.4094     1.7223  C.ar    1  <O>11      -0.0281
  16 C10       9.2100     2.5349    -1.8162  C.ar    1  <O>11       0.0106
  17 C11      10.4688     2.9255    -2.3277  C.ar    1  <O>11      -0.0521
  18 C12      11.1965     2.0826    -3.1684  C.ar    1  <O>11      -0.0611
  19 C13      10.6797     0.8410    -3.5204  C.ar    1  <O>11      -0.0610
  20 C14       9.4353     0.4418    -3.0314  C.ar    1  <O>11      -0.0487
  21 C15       8.6875     1.2787    -2.1714  C.ar    1  <O>11       0.0496
  22 H1        5.8603     1.4136    -0.4062  H       1  <O>11       0.1921
  23 H2        7.9533     5.3397    -0.4986  H       1  <O>11       0.0377
  24 H3        9.4290     5.1268    -1.4719  H       1  <O>11       0.0377
  25 H4       11.1611     3.4320    -0.1942  H       1  <O>11       0.0620
  26 H5       12.4783     3.3736     1.8439  H       1  <O>11       0.0618
  27 H6       11.7455     4.6031     3.8086  H       1  <O>11       0.0640
  28 H7        8.2911     7.4210     3.0777  H       1  <O>11       0.3292
  29 H8        8.3642     5.9636     1.6928  H       1  <O>11       0.0643
  30 H9       10.8555     3.8484    -2.0753  H       1  <O>11       0.0624
  31 H10      12.1168     2.3803    -3.5283  H       1  <O>11       0.0618
  32 H11      11.2155     0.2156    -4.1423  H       1  <O>11       0.0618
  33 H12       9.0548    -0.4786    -3.3016  H       1  <O>11       0.0625
@<TRIPOS>BOND
     1     1     2    2
     2     2     3   ar
     3     3     4   ar
     4     4     5   ar
     5     5     6    1
     6     6     7    1
     7     7     8   ar
     8     8     9   ar
     9     9    10   ar
    10    10    11   ar
    11    11    12    1
    12    12    13    2
    13    12    14    1
    14    11    15   ar
    15     7    15   ar
    16     5    16   ar
    17    16    17   ar
    18    17    18   ar
    19    18    19   ar
    20    19    20   ar
    21    20    21   ar
    22     2    21   ar
    23    16    21   ar
    24     3    22    1
    25     6    23    1
    26     6    24    1
    27     8    25    1
    28     9    26    1
    29    10    27    1
    30    14    28    1
    31    15    29    1
    32    17    30    1
    33    18    31    1
    34    19    32    1
    35    20    33    1
@<TRIPOS>MOLECULE
mol60_1_27
 33 35 0 0 0
SMALL
USER_CHARGES
****
VDW energy = 79.72
@<TRIPOS>ATOM
   1 O1        6.7938    -0.2446    -2.0599  O.2     1  <O>11      -0.2658
   2 C1        7.4213     0.9528    -1.6663  C.ar    1  <O>11       0.2725
   3 N1        6.7347     1.7343    -0.7968  N.ar    1  <O>11      -0.2425
   4 N2        7.2340     2.9457    -0.4598  N.ar    1  <O>11      -0.1750
   5 C2        8.4134     3.3437    -0.9933  C.ar    1  <O>11       0.0736
   6 C3        8.8350     4.7170    -0.6550  C.3     1  <O>11       0.0172
   7 C4        8.9738     5.5139    -1.9017  C.ar    1  <O>11      -0.0394
   8 C5        9.3682     6.8611    -1.8418  C.ar    1  <O>11      -0.0581
   9 C6        9.4864     7.6142    -3.0155  C.ar    1  <O>11      -0.0593
  10 C7        9.2178     7.0314    -4.2563  C.ar    1  <O>11      -0.0316
  11 C8        8.8309     5.6861    -4.3168  C.ar    1  <O>11       0.1219
  12 N3        8.5570     5.0883    -5.5974  N.4     1  <O>11       0.0060
  13 O2        9.6950     5.2791    -6.4733  O.2     1  <O>11      -0.1300
  14 O3        7.3865     5.7134    -6.1828  O.2     1  <O>11      -0.3961
  15 C9        8.7115     4.9272    -3.1512  C.ar    1  <O>11      -0.0281
  16 C10       9.2100     2.5349    -1.8162  C.ar    1  <O>11       0.0106
  17 C11      10.4688     2.9255    -2.3277  C.ar    1  <O>11      -0.0521
  18 C12      11.1965     2.0826    -3.1684  C.ar    1  <O>11      -0.0611
  19 C13      10.6797     0.8410    -3.5204  C.ar    1  <O>11      -0.0610
  20 C14       9.4353     0.4418    -3.0314  C.ar    1  <O>11      -0.0487
  21 C15       8.6875     1.2787    -2.1714  C.ar    1  <O>11       0.0496
  22 H1        5.8603     1.4136    -0.4062  H       1  <O>11       0.1921
  23 H2        9.7937     4.6854    -0.1359  H       1  <O>11       0.0377
  24 H3        8.0875     5.1785    -0.0097  H       1  <O>11       0.0377
  25 H4        9.5715     7.2971    -0.9287  H       1  <O>11       0.0620
  26 H5        9.7731     8.6042    -2.9641  H       1  <O>11       0.0618
  27 H6        9.3035     7.5873    -5.1215  H       1  <O>11       0.0640
  28 H7        6.5638     5.6784    -5.7357  H       1  <O>11       0.3292
  29 H8        8.4306     3.9356    -3.2072  H       1  <O>11       0.0643
  30 H9       10.8555     3.8484    -2.0753  H       1  <O>11       0.0624
  31 H10      12.1168     2.3803    -3.5283  H       1  <O>11       0.0618
  32 H11      11.2155     0.2156    -4.1423  H       1  <O>11       0.0618
  33 H12       9.0548    -0.4786    -3.3016  H       1  <O>11       0.0625
@<TRIPOS>BOND
     1     1     2    2
     2     2     3   ar
     3     3     4   ar
     4     4     5   ar
     5     5     6    1
     6     6     7    1
     7     7     8   ar
     8     8     9   ar
     9     9    10   ar
    10    10    11   ar
    11    11    12    1
    12    12    13    2
    13    12    14    1
    14    11    15   ar
    15     7    15   ar
    16     5    16   ar
    17    16    17   ar
    18    17    18   ar
    19    18    19   ar
    20    19    20   ar
    21    20    21   ar
    22     2    21   ar
    23    16    21   ar
    24     3    22    1
    25     6    23    1
    26     6    24    1
    27     8    25    1
    28     9    26    1
    29    10    27    1
    30    14    28    1
    31    15    29    1
    32    17    30    1
    33    18    31    1
    34    19    32    1
    35    20    33    1
@<TRIPOS>MOLECULE
mol60_1_28
 33 35 0 0 0
SMALL
USER_CHARGES
****
VDW energy = 84.06
@<TRIPOS>ATOM
   1 O1        6.7938    -0.2446    -2.0599  O.2     1  <O>11      -0.2658
   2 C1        7.4213     0.9528    -1.6663  C.ar    1  <O>11       0.2725
   3 N1        6.7347     1.7343    -0.7968  N.ar    1  <O>11      -0.2425
   4 N2        7.2340     2.9457    -0.4598  N.ar    1  <O>11      -0.1750
   5 C2        8.4134     3.3437    -0.9933  C.ar    1  <O>11       0.0736
   6 C3        8.8350     4.7170    -0.6550  C.3     1  <O>11       0.0172
   7 C4       10.1408     4.6740     0.0534  C.ar    1  <O>11      -0.0394
   8 C5       10.7540     5.8631     0.4824  C.ar    1  <O>11      -0.0581
   9 C6       11.9898     5.8224     1.1383  C.ar    1  <O>11      -0.0593
  10 C7       12.6211     4.5992     1.3758  C.ar    1  <O>11      -0.0316
  11 C8       12.0065     3.4128     0.9539  C.ar    1  <O>11       0.1219
  12 N3       12.6591     2.1539     1.2023  N.4     1  <O>11       0.0060
  13 O2       12.9631     2.0372     2.6139  O.2     1  <O>11      -0.1300
  14 O3       13.8886     2.0868     0.4359  O.2     1  <O>11      -0.3961
  15 C9       10.7735     3.4440     0.2999  C.ar    1  <O>11      -0.0281
  16 C10       9.2100     2.5349    -1.8162  C.ar    1  <O>11       0.0106
  17 C11      10.4688     2.9255    -2.3277  C.ar    1  <O>11      -0.0521
  18 C12      11.1965     2.0826    -3.1684  C.ar    1  <O>11      -0.0611
  19 C13      10.6797     0.8410    -3.5204  C.ar    1  <O>11      -0.0610
  20 C14       9.4353     0.4418    -3.0314  C.ar    1  <O>11      -0.0487
  21 C15       8.6875     1.2787    -2.1714  C.ar    1  <O>11       0.0496
  22 H1        5.8603     1.4136    -0.4062  H       1  <O>11       0.1921
  23 H2        8.0868     5.1782    -0.0092  H       1  <O>11       0.0377
  24 H3        8.9363     5.3020    -1.5691  H       1  <O>11       0.0377
  25 H4       10.2915     6.7701     0.3133  H       1  <O>11       0.0620
  26 H5       12.4364     6.6998     1.4477  H       1  <O>11       0.0618
  27 H6       13.5329     4.5695     1.8581  H       1  <O>11       0.0640
  28 H7       13.8620     2.1478    -0.4987  H       1  <O>11       0.3292
  29 H8       10.3270     2.5640    -0.0023  H       1  <O>11       0.0643
  30 H9       10.8555     3.8484    -2.0753  H       1  <O>11       0.0624
  31 H10      12.1168     2.3803    -3.5283  H       1  <O>11       0.0618
  32 H11      11.2155     0.2156    -4.1423  H       1  <O>11       0.0618
  33 H12       9.0548    -0.4786    -3.3016  H       1  <O>11       0.0625
@<TRIPOS>BOND
     1     1     2    2
     2     2     3   ar
     3     3     4   ar
     4     4     5   ar
     5     5     6    1
     6     6     7    1
     7     7     8   ar
     8     8     9   ar
     9     9    10   ar
    10    10    11   ar
    11    11    12    1
    12    12    13    2
    13    12    14    1
    14    11    15   ar
    15     7    15   ar
    16     5    16   ar
    17    16    17   ar
    18    17    18   ar
    19    18    19   ar
    20    19    20   ar
    21    20    21   ar
    22     2    21   ar
    23    16    21   ar
    24     3    22    1
    25     6    23    1
    26     6    24    1
    27     8    25    1
    28     9    26    1
    29    10    27    1
    30    14    28    1
    31    15    29    1
    32    17    30    1
    33    18    31    1
    34    19    32    1
    35    20    33    1
@<TRIPOS>MOLECULE
mol60_1_29
 33 35 0 0 0
SMALL
USER_CHARGES
****
VDW energy = 94.19
@<TRIPOS>ATOM
   1 O1        6.7938    -0.2446    -2.0599  O.2     1  <O>11      -0.2658
   2 C1        7.4213     0.9528    -1.6663  C.ar    1  <O>11       0.2725
   3 N1        6.7347     1.7343    -0.7968  N.ar    1  <O>11      -0.2425
   4 N2        7.2340     2.9457    -0.4598  N.ar    1  <O>11      -0.1750
   5 C2        8.4134     3.3437    -0.9933  C.ar    1  <O>11       0.0736
   6 C3        8.8350     4.7170    -0.6550  C.3     1  <O>11       0.0172
   7 C4        8.5865     4.9702     0.7882  C.ar    1  <O>11      -0.0394
   8 C5        8.9066     6.2153     1.3549  C.ar    1  <O>11      -0.0581
   9 C6        8.6839     6.4484     2.7169  C.ar    1  <O>11      -0.0593
  10 C7        8.1374     5.4468     3.5227  C.ar    1  <O>11      -0.0316
  11 C8        7.8119     4.2072     2.9563  C.ar    1  <O>11       0.1219
  12 N3        7.2469     3.1781     3.7894  N.4     1  <O>11       0.0060
  13 O2        8.0873     1.9993     3.7385  O.2     1  <O>11      -0.1300
  14 O3        5.9181     2.8453     3.3128  O.2     1  <O>11      -0.3961
  15 C9        8.0298     3.9664     1.5986  C.ar    1  <O>11      -0.0281
  16 C10       9.2100     2.5349    -1.8162  C.ar    1  <O>11       0.0106
  17 C11      10.4688     2.9255    -2.3277  C.ar    1  <O>11      -0.0521
  18 C12      11.1965     2.0826    -3.1684  C.ar    1  <O>11      -0.0611
  19 C13      10.6797     0.8410    -3.5204  C.ar    1  <O>11      -0.0610
  20 C14       9.4353     0.4418    -3.0314  C.ar    1  <O>11      -0.0487
  21 C15       8.6875     1.2787    -2.1714  C.ar    1  <O>11       0.0496
  22 H1        5.8603     1.4136    -0.4062  H       1  <O>11       0.1921
  23 H2        8.2646     5.4298    -1.2519  H       1  <O>11       0.0377
  24 H3        9.8978     4.8339    -0.8670  H       1  <O>11       0.0377
  25 H4        9.3075     6.9610     0.7647  H       1  <O>11       0.0620
  26 H5        8.9245     7.3641     3.1275  H       1  <O>11       0.0618
  27 H6        7.9747     5.6184     4.5272  H       1  <O>11       0.0640
  28 H7        5.2523     3.5040     3.2834  H       1  <O>11       0.3292
  29 H8        7.7819     3.0515     1.1902  H       1  <O>11       0.0643
  30 H9       10.8555     3.8484    -2.0753  H       1  <O>11       0.0624
  31 H10      12.1168     2.3803    -3.5283  H       1  <O>11       0.0618
  32 H11      11.2155     0.2156    -4.1423  H       1  <O>11       0.0618
  33 H12       9.0548    -0.4786    -3.3016  H       1  <O>11       0.0625
@<TRIPOS>BOND
     1     1     2    2
     2     2     3   ar
     3     3     4   ar
     4     4     5   ar
     5     5     6    1
     6     6     7    1
     7     7     8   ar
     8     8     9   ar
     9     9    10   ar
    10    10    11   ar
    11    11    12    1
    12    12    13    2
    13    12    14    1
    14    11    15   ar
    15     7    15   ar
    16     5    16   ar
    17    16    17   ar
    18    17    18   ar
    19    18    19   ar
    20    19    20   ar
    21    20    21   ar
    22     2    21   ar
    23    16    21   ar
    24     3    22    1
    25     6    23    1
    26     6    24    1
    27     8    25    1
    28     9    26    1
    29    10    27    1
    30    14    28    1
    31    15    29    1
    32    17    30    1
    33    18    31    1
    34    19    32    1
    35    20    33    1
@<TRIPOS>MOLECULE
mol60_1_30
 33 35 0 0 0
SMALL
USER_CHARGES
****
VDW energy = 96.61
@<TRIPOS>ATOM
   1 O1        6.7938    -0.2446    -2.0599  O.2     1  <O>11      -0.2658
   2 C1        7.4213     0.9528    -1.6663  C.ar    1  <O>11       0.2725
   3 N1        6.7347     1.7343    -0.7968  N.ar    1  <O>11      -0.2425
   4 N2        7.2340     2.9457    -0.4598  N.ar    1  <O>11      -0.1750
   5 C2        8.4134     3.3437    -0.9933  C.ar    1  <O>11       0.0736
   6 C3        8.8350     4.7170    -0.6550  C.3     1  <O>11       0.0172
   7 C4        8.5865     4.9702     0.7882  C.ar    1  <O>11      -0.0394
   8 C5        8.9066     6.2153     1.3549  C.ar    1  <O>11      -0.0581
   9 C6        8.6839     6.4484     2.7169  C.ar    1  <O>11      -0.0593
  10 C7        8.1374     5.4468     3.5227  C.ar    1  <O>11      -0.0316
  11 C8        7.8119     4.2072     2.9563  C.ar    1  <O>11       0.1219
  12 N3        7.2469     3.1781     3.7894  N.4     1  <O>11       0.0060
  13 O2        6.0762     3.6945     4.4687  O.2     1  <O>11      -0.1300
  14 O3        8.2284     2.7567     4.7705  O.2     1  <O>11      -0.3961
  15 C9        8.0298     3.9664     1.5986  C.ar    1  <O>11      -0.0281
  16 C10       9.2100     2.5349    -1.8162  C.ar    1  <O>11       0.0106
  17 C11      10.4688     2.9255    -2.3277  C.ar    1  <O>11      -0.0521
  18 C12      11.1965     2.0826    -3.1684  C.ar    1  <O>11      -0.0611
  19 C13      10.6797     0.8410    -3.5204  C.ar    1  <O>11      -0.0610
  20 C14       9.4353     0.4418    -3.0314  C.ar    1  <O>11      -0.0487
  21 C15       8.6875     1.2787    -2.1714  C.ar    1  <O>11       0.0496
  22 H1        5.8603     1.4136    -0.4062  H       1  <O>11       0.1921
  23 H2        8.2646     5.4298    -1.2519  H       1  <O>11       0.0377
  24 H3        9.8978     4.8339    -0.8670  H       1  <O>11       0.0377
  25 H4        9.3075     6.9610     0.7647  H       1  <O>11       0.0620
  26 H5        8.9245     7.3641     3.1275  H       1  <O>11       0.0618
  27 H6        7.9747     5.6184     4.5272  H       1  <O>11       0.0640
  28 H7        9.0468     2.3971     4.4899  H       1  <O>11       0.3292
  29 H8        7.7819     3.0515     1.1902  H       1  <O>11       0.0643
  30 H9       10.8555     3.8484    -2.0753  H       1  <O>11       0.0624
  31 H10      12.1168     2.3803    -3.5283  H       1  <O>11       0.0618
  32 H11      11.2155     0.2156    -4.1423  H       1  <O>11       0.0618
  33 H12       9.0548    -0.4786    -3.3016  H       1  <O>11       0.0625
@<TRIPOS>BOND
     1     1     2    2
     2     2     3   ar
     3     3     4   ar
     4     4     5   ar
     5     5     6    1
     6     6     7    1
     7     7     8   ar
     8     8     9   ar
     9     9    10   ar
    10    10    11   ar
    11    11    12    1
    12    12    13    2
    13    12    14    1
    14    11    15   ar
    15     7    15   ar
    16     5    16   ar
    17    16    17   ar
    18    17    18   ar
    19    18    19   ar
    20    19    20   ar
    21    20    21   ar
    22     2    21   ar
    23    16    21   ar
    24     3    22    1
    25     6    23    1
    26     6    24    1
    27     8    25    1
    28     9    26    1
    29    10    27    1
    30    14    28    1
    31    15    29    1
    32    17    30    1
    33    18    31    1
    34    19    32    1
    35    20    33    1
