@<TRIPOS>MOLECULE
mol66_1_1
 38 40 0 0 0
SMALL
USER_CHARGES
****
VDW energy = -140.98
@<TRIPOS>ATOM
   1 O1        2.6902    -5.1277     2.8674  O.2     1  <O>11      -0.2738
   2 C1        2.8397    -4.0645     2.2839  C.2     1  <O>11       0.2364
   3 C2        2.4540    -2.7870     2.9510  C.3     1  <O>11       0.0835
   4 C3        1.9230    -3.0750     4.2970  C.ar    1  <O>11       0.1192
   5 N1        2.7546    -3.1143     5.3550  N.ar    1  <O>11      -0.2332
   6 C4        2.2301    -3.3808     6.5586  C.ar    1  <O>11       0.0782
   7 C5        3.0671    -3.4262     7.6670  C.ar    1  <O>11      -0.0355
   8 C6        2.5819    -3.7003     8.9499  C.ar    1  <O>11      -0.0597
   9 C7        1.2262    -3.9333     9.1427  C.ar    1  <O>11      -0.0609
  10 C8        0.3659    -3.8939     8.0497  C.ar    1  <O>11      -0.0474
  11 C9        0.8662    -3.6165     6.7529  C.ar    1  <O>11       0.0647
  12 C10       0.1003    -3.5522     5.5901  C.ar    1  <O>11       0.2592
  13 O2       -1.2788    -3.7870     5.7470  O.2     1  <O>11      -0.2672
  14 N2        0.6038    -3.2843     4.3694  N.ar    1  <O>11      -0.3100
  15 N3        3.3610    -4.0460     1.0180  N.am    1  <O>11      -0.2338
  16 N4        3.7160    -5.2220     0.4040  N.am    1  <O>11      -0.2304
  17 C11       4.2374    -5.2031    -0.8622  C.2     1  <O>11       0.2601
  18 O3        4.3859    -4.1391    -1.4455  O.2     1  <O>11      -0.2687
  19 C12       4.6154    -6.4510    -1.5122  C.ar    1  <O>11       0.0383
  20 C13       5.2427    -7.4705    -0.7759  C.ar    1  <O>11      -0.0469
  21 C14       5.6179    -8.6640    -1.4022  C.ar    1  <O>11      -0.0257
  22 C15       5.3690    -8.8518    -2.7655  C.ar    1  <O>11       0.1234
  23 F1        5.7357   -10.0181    -3.3863  F       1  <O>11      -0.2055
  24 C16       4.7386    -7.8382    -3.4962  C.ar    1  <O>11      -0.0257
  25 C17       4.3582    -6.6455    -2.8783  C.ar    1  <O>11      -0.0469
  26 H1        3.3300    -2.1430     3.0360  H       1  <O>11       0.0438
  27 H2        1.6900    -2.2840     2.3590  H       1  <O>11       0.0438
  28 H3        0.0575    -3.2326     3.5218  H       1  <O>11       0.1701
  29 H4        3.4860    -3.1580     0.5310  H       1  <O>11       0.1728
  30 H5        3.5925    -6.1100     0.8902  H       1  <O>11       0.1731
  31 H6        4.0765    -3.2526     7.5399  H       1  <O>11       0.0639
  32 H7        3.2303    -3.7294     9.7522  H       1  <O>11       0.0618
  33 H8        0.8608    -4.1335    10.0868  H       1  <O>11       0.0618
  34 H9       -0.6425    -4.0676     8.1841  H       1  <O>11       0.0626
  35 H10       5.4272    -7.3382     0.2309  H       1  <O>11       0.0626
  36 H11       6.0798    -9.4082    -0.8565  H       1  <O>11       0.0646
  37 H12       4.5529    -7.9739    -4.5022  H       1  <O>11       0.0646
  38 H13       3.8883    -5.9074    -3.4254  H       1  <O>11       0.0626
@<TRIPOS>BOND
     1     1     2    2
     2     2     3    1
     3     3     4    1
     4     4     5   ar
     5     5     6   ar
     6     6     7   ar
     7     7     8   ar
     8     8     9   ar
     9     9    10   ar
    10    10    11   ar
    11     6    11   ar
    12    11    12   ar
    13    12    13    2
    14    12    14   ar
    15     4    14   ar
    16     2    15   am
    17    15    16    1
    18    16    17   am
    19    17    18    2
    20    17    19    1
    21    19    20   ar
    22    20    21   ar
    23    21    22   ar
    24    22    23    1
    25    22    24   ar
    26    24    25   ar
    27    19    25   ar
    28     3    26    1
    29     3    27    1
    30    14    28    1
    31    15    29    1
    32    16    30    1
    33     7    31    1
    34     8    32    1
    35     9    33    1
    36    10    34    1
    37    20    35    1
    38    21    36    1
    39    24    37    1
    40    25    38    1
@<TRIPOS>MOLECULE
mol66_1_2
 38 40 0 0 0
SMALL
USER_CHARGES
****
VDW energy = -139.83
@<TRIPOS>ATOM
   1 O1        2.6902    -5.1277     2.8674  O.2     1  <O>11      -0.2738
   2 C1        2.8397    -4.0645     2.2839  C.2     1  <O>11       0.2364
   3 C2        2.4540    -2.7870     2.9510  C.3     1  <O>11       0.0835
   4 C3        1.9230    -3.0750     4.2970  C.ar    1  <O>11       0.1192
   5 N1        0.6065    -3.2987     4.4681  N.ar    1  <O>11      -0.2332
   6 C4        0.1673    -3.5549     5.7075  C.ar    1  <O>11       0.0782
   7 C5       -1.1873    -3.7902     5.9108  C.ar    1  <O>11      -0.0355
   8 C6       -1.7087    -4.0621     7.1798  C.ar    1  <O>11      -0.0597
   9 C7       -0.8636    -4.1061     8.2813  C.ar    1  <O>11      -0.0609
  10 C8        0.4971    -3.8741     8.1058  C.ar    1  <O>11      -0.0474
  11 C9        1.0171    -3.5980     6.8163  C.ar    1  <O>11       0.0647
  12 C10       2.3572    -3.3509     6.5236  C.ar    1  <O>11       0.2592
  13 O2        3.2430    -3.3837     7.6171  O.2     1  <O>11      -0.2672
  14 N2        2.8235    -3.0928     5.2861  N.ar    1  <O>11      -0.3100
  15 N3        3.3610    -4.0460     1.0180  N.am    1  <O>11      -0.2338
  16 N4        3.5291    -2.8514     0.3617  N.am    1  <O>11      -0.2304
  17 C11       4.0500    -2.8334    -0.9048  C.2     1  <O>11       0.2601
  18 O3        4.3656    -3.8809    -1.4500  O.2     1  <O>11      -0.2687
  19 C12       4.2264    -1.5658    -1.6011  C.ar    1  <O>11       0.0383
  20 C13       5.4308    -0.8524    -1.4776  C.ar    1  <O>11      -0.0469
  21 C14       5.5962     0.3714    -2.1353  C.ar    1  <O>11      -0.0257
  22 C15       4.5643     0.8922    -2.9224  C.ar    1  <O>11       0.1234
  23 F1        4.7186     2.0919    -3.5683  F       1  <O>11      -0.2055
  24 C16       3.3677     0.1777    -3.0496  C.ar    1  <O>11      -0.0257
  25 C17       3.1956    -1.0456    -2.3992  C.ar    1  <O>11      -0.0469
  26 H1        3.3300    -2.1430     3.0360  H       1  <O>11       0.0438
  27 H2        1.6900    -2.2840     2.3590  H       1  <O>11       0.0438
  28 H3        3.7921    -2.9154     5.0630  H       1  <O>11       0.1701
  29 H4        3.6243    -4.9202     0.5622  H       1  <O>11       0.1728
  30 H5        3.2658    -1.9772     0.8161  H       1  <O>11       0.1731
  31 H6       -1.8272    -3.7634     5.1016  H       1  <O>11       0.0639
  32 H7       -2.7202    -4.2299     7.2977  H       1  <O>11       0.0618
  33 H8       -1.2411    -4.3087     9.2201  H       1  <O>11       0.0618
  34 H9        1.1315    -3.9031     8.9192  H       1  <O>11       0.0626
  35 H10       6.1965    -1.2328    -0.8995  H       1  <O>11       0.0626
  36 H11       6.4824     0.8914    -2.0392  H       1  <O>11       0.0646
  37 H12       2.6045     0.5591    -3.6302  H       1  <O>11       0.0646
  38 H13       2.3113    -1.5669    -2.5051  H       1  <O>11       0.0626
@<TRIPOS>BOND
     1     1     2    2
     2     2     3    1
     3     3     4    1
     4     4     5   ar
     5     5     6   ar
     6     6     7   ar
     7     7     8   ar
     8     8     9   ar
     9     9    10   ar
    10    10    11   ar
    11     6    11   ar
    12    11    12   ar
    13    12    13    2
    14    12    14   ar
    15     4    14   ar
    16     2    15   am
    17    15    16    1
    18    16    17   am
    19    17    18    2
    20    17    19    1
    21    19    20   ar
    22    20    21   ar
    23    21    22   ar
    24    22    23    1
    25    22    24   ar
    26    24    25   ar
    27    19    25   ar
    28     3    26    1
    29     3    27    1
    30    14    28    1
    31    15    29    1
    32    16    30    1
    33     7    31    1
    34     8    32    1
    35     9    33    1
    36    10    34    1
    37    20    35    1
    38    21    36    1
    39    24    37    1
    40    25    38    1
@<TRIPOS>MOLECULE
mol66_1_3
 38 40 0 0 0
SMALL
USER_CHARGES
****
VDW energy = -139.81
@<TRIPOS>ATOM
   1 O1        2.6902    -5.1277     2.8674  O.2     1  <O>11      -0.2738
   2 C1        2.8397    -4.0645     2.2839  C.2     1  <O>11       0.2364
   3 C2        2.4540    -2.7870     2.9510  C.3     1  <O>11       0.0835
   4 C3        1.8189    -1.8897     1.9670  C.ar    1  <O>11       0.1192
   5 N1        0.4865    -1.9316     1.7788  N.ar    1  <O>11      -0.2332
   6 C4       -0.0481    -1.1004     0.8744  C.ar    1  <O>11       0.0782
   7 C5       -1.4213    -1.1234     0.6620  C.ar    1  <O>11      -0.0355
   8 C6       -2.0402    -0.2821    -0.2684  C.ar    1  <O>11      -0.0597
   9 C7       -1.2775     0.6119    -1.0089  C.ar    1  <O>11      -0.0609
  10 C8        0.0998     0.6554    -0.8160  C.ar    1  <O>11      -0.0474
  11 C9        0.7191    -0.2015     0.1281  C.ar    1  <O>11       0.0647
  12 C10       2.0848    -0.2446     0.4034  C.ar    1  <O>11       0.2592
  13 O2        2.8899     0.6459    -0.3318  O.2     1  <O>11      -0.2672
  14 N2        2.6458    -1.0696     1.3089  N.ar    1  <O>11      -0.3100
  15 N3        3.3610    -4.0460     1.0180  N.am    1  <O>11      -0.2338
  16 N4        3.7160    -5.2220     0.4040  N.am    1  <O>11      -0.2304
  17 C11       4.2374    -5.2031    -0.8622  C.2     1  <O>11       0.2601
  18 O3        4.3859    -4.1391    -1.4455  O.2     1  <O>11      -0.2687
  19 C12       4.6154    -6.4510    -1.5122  C.ar    1  <O>11       0.0383
  20 C13       5.2427    -7.4705    -0.7759  C.ar    1  <O>11      -0.0469
  21 C14       5.6179    -8.6640    -1.4022  C.ar    1  <O>11      -0.0257
  22 C15       5.3690    -8.8518    -2.7655  C.ar    1  <O>11       0.1234
  23 F1        5.7357   -10.0181    -3.3863  F       1  <O>11      -0.2055
  24 C16       4.7386    -7.8382    -3.4962  C.ar    1  <O>11      -0.0257
  25 C17       4.3582    -6.6455    -2.8783  C.ar    1  <O>11      -0.0469
  26 H1        1.7513    -2.9968     3.7582  H       1  <O>11       0.0438
  27 H2        3.3430    -2.3073     3.3594  H       1  <O>11       0.0438
  28 H3        3.6330    -1.1066     1.5178  H       1  <O>11       0.1701
  29 H4        3.4860    -3.1580     0.5310  H       1  <O>11       0.1728
  30 H5        3.5925    -6.1100     0.8902  H       1  <O>11       0.1731
  31 H6       -2.0014    -1.7805     1.2066  H       1  <O>11       0.0639
  32 H7       -3.0623    -0.3255    -0.4045  H       1  <O>11       0.0618
  33 H8       -1.7278     1.2375    -1.6952  H       1  <O>11       0.0618
  34 H9        0.6739     1.3155    -1.3635  H       1  <O>11       0.0626
  35 H10       5.4272    -7.3382     0.2309  H       1  <O>11       0.0626
  36 H11       6.0798    -9.4082    -0.8565  H       1  <O>11       0.0646
  37 H12       4.5529    -7.9739    -4.5022  H       1  <O>11       0.0646
  38 H13       3.8883    -5.9074    -3.4254  H       1  <O>11       0.0626
@<TRIPOS>BOND
     1     1     2    2
     2     2     3    1
     3     3     4    1
     4     4     5   ar
     5     5     6   ar
     6     6     7   ar
     7     7     8   ar
     8     8     9   ar
     9     9    10   ar
    10    10    11   ar
    11     6    11   ar
    12    11    12   ar
    13    12    13    2
    14    12    14   ar
    15     4    14   ar
    16     2    15   am
    17    15    16    1
    18    16    17   am
    19    17    18    2
    20    17    19    1
    21    19    20   ar
    22    20    21   ar
    23    21    22   ar
    24    22    23    1
    25    22    24   ar
    26    24    25   ar
    27    19    25   ar
    28     3    26    1
    29     3    27    1
    30    14    28    1
    31    15    29    1
    32    16    30    1
    33     7    31    1
    34     8    32    1
    35     9    33    1
    36    10    34    1
    37    20    35    1
    38    21    36    1
    39    24    37    1
    40    25    38    1
@<TRIPOS>MOLECULE
mol66_1_4
 38 40 0 0 0
SMALL
USER_CHARGES
****
VDW energy = -139.77
@<TRIPOS>ATOM
   1 O1        2.6902    -5.1277     2.8674  O.2     1  <O>11      -0.2738
   2 C1        2.8397    -4.0645     2.2839  C.2     1  <O>11       0.2364
   3 C2        2.4540    -2.7870     2.9510  C.3     1  <O>11       0.0835
   4 C3        3.4558    -1.7486     2.6432  C.ar    1  <O>11       0.1192
   5 N1        4.5231    -1.5829     3.4469  N.ar    1  <O>11      -0.2332
   6 C4        5.4071    -0.6273     3.1307  C.ar    1  <O>11       0.0782
   7 C5        6.5180    -0.4366     3.9437  C.ar    1  <O>11      -0.0355
   8 C6        7.4763     0.5444     3.6690  C.ar    1  <O>11      -0.0597
   9 C7        7.3331     1.3596     2.5535  C.ar    1  <O>11      -0.0609
  10 C8        6.2299     1.1900     1.7226  C.ar    1  <O>11      -0.0474
  11 C9        5.2627     0.1941     2.0091  C.ar    1  <O>11       0.0647
  12 C10       4.1226    -0.0642     1.2502  C.ar    1  <O>11       0.2592
  13 O2        3.9426     0.7460     0.1132  O.2     1  <O>11      -0.2672
  14 N2        3.2203    -1.0201     1.5462  N.ar    1  <O>11      -0.3100
  15 N3        3.3610    -4.0460     1.0180  N.am    1  <O>11      -0.2338
  16 N4        3.7160    -5.2220     0.4040  N.am    1  <O>11      -0.2304
  17 C11       4.2380    -5.2030    -0.8620  C.2     1  <O>11       0.2601
  18 O3        4.3870    -4.1390    -1.4450  O.2     1  <O>11      -0.2687
  19 C12       4.6160    -6.4510    -1.5120  C.ar    1  <O>11       0.0383
  20 C13       5.2426    -7.4707    -0.7755  C.ar    1  <O>11      -0.0469
  21 C14       5.6178    -8.6643    -1.4018  C.ar    1  <O>11      -0.0257
  22 C15       5.3695    -8.8517    -2.7653  C.ar    1  <O>11       0.1234
  23 F1        5.7362   -10.0181    -3.3860  F       1  <O>11      -0.2055
  24 C16       4.7397    -7.8379    -3.4961  C.ar    1  <O>11      -0.0257
  25 C17       4.3593    -6.6452    -2.8782  C.ar    1  <O>11      -0.0469
  26 H1        1.4766    -2.4682     2.5872  H       1  <O>11       0.0438
  27 H2        2.4080    -2.9392     4.0289  H       1  <O>11       0.0438
  28 H3        2.3931    -1.2171     1.0018  H       1  <O>11       0.1701
  29 H4        3.4860    -3.1580     0.5310  H       1  <O>11       0.1728
  30 H5        3.5920    -6.1100     0.8900  H       1  <O>11       0.1731
  31 H6        6.6393    -1.0365     4.7747  H       1  <O>11       0.0639
  32 H7        8.2888     0.6623     4.2942  H       1  <O>11       0.0618
  33 H8        8.0377     2.0838     2.3432  H       1  <O>11       0.0618
  34 H9        6.1151     1.7928     0.8929  H       1  <O>11       0.0626
  35 H10       5.4267    -7.3386     0.2313  H       1  <O>11       0.0626
  36 H11       6.0793    -9.4086    -0.8560  H       1  <O>11       0.0646
  37 H12       4.5545    -7.9734    -4.5022  H       1  <O>11       0.0646
  38 H13       3.8899    -5.9069    -3.4254  H       1  <O>11       0.0626
@<TRIPOS>BOND
     1     1     2    2
     2     2     3    1
     3     3     4    1
     4     4     5   ar
     5     5     6   ar
     6     6     7   ar
     7     7     8   ar
     8     8     9   ar
     9     9    10   ar
    10    10    11   ar
    11     6    11   ar
    12    11    12   ar
    13    12    13    2
    14    12    14   ar
    15     4    14   ar
    16     2    15   am
    17    15    16    1
    18    16    17   am
    19    17    18    2
    20    17    19    1
    21    19    20   ar
    22    20    21   ar
    23    21    22   ar
    24    22    23    1
    25    22    24   ar
    26    24    25   ar
    27    19    25   ar
    28     3    26    1
    29     3    27    1
    30    14    28    1
    31    15    29    1
    32    16    30    1
    33     7    31    1
    34     8    32    1
    35     9    33    1
    36    10    34    1
    37    20    35    1
    38    21    36    1
    39    24    37    1
    40    25    38    1
@<TRIPOS>MOLECULE
mol66_1_5
 38 40 0 0 0
SMALL
USER_CHARGES
****
VDW energy = -138.29
@<TRIPOS>ATOM
   1 O1        2.6902    -5.1277     2.8674  O.2     1  <O>11      -0.2738
   2 C1        2.8397    -4.0645     2.2839  C.2     1  <O>11       0.2364
   3 C2        2.4540    -2.7870     2.9510  C.3     1  <O>11       0.0835
   4 C3        1.9230    -3.0750     4.2970  C.ar    1  <O>11       0.1192
   5 N1        2.5254    -2.5569     5.3838  N.ar    1  <O>11      -0.2332
   6 C4        2.0106    -2.8454     6.5866  C.ar    1  <O>11       0.0782
   7 C5        2.6134    -2.3222     7.7243  C.ar    1  <O>11      -0.0355
   8 C6        2.1256    -2.5866     9.0081  C.ar    1  <O>11      -0.0597
   9 C7        1.0048    -3.3907     9.1714  C.ar    1  <O>11      -0.0609
  10 C8        0.3819    -3.9275     8.0489  C.ar    1  <O>11      -0.0474
  11 C9        0.8836    -3.6554     6.7514  C.ar    1  <O>11       0.0647
  12 C10       0.3429    -4.1375     5.5606  C.ar    1  <O>11       0.2592
  13 O2       -0.7927    -4.9596     5.6878  O.2     1  <O>11      -0.2672
  14 N2        0.8409    -3.8603     4.3397  N.ar    1  <O>11      -0.3100
  15 N3        3.3610    -4.0460     1.0180  N.am    1  <O>11      -0.2338
  16 N4        3.5291    -2.8514     0.3617  N.am    1  <O>11      -0.2304
  17 C11       4.0500    -2.8334    -0.9048  C.2     1  <O>11       0.2601
  18 O3        4.3656    -3.8809    -1.4500  O.2     1  <O>11      -0.2687
  19 C12       4.2264    -1.5658    -1.6011  C.ar    1  <O>11       0.0383
  20 C13       5.4308    -0.8524    -1.4776  C.ar    1  <O>11      -0.0469
  21 C14       5.5962     0.3714    -2.1353  C.ar    1  <O>11      -0.0257
  22 C15       4.5643     0.8922    -2.9224  C.ar    1  <O>11       0.1234
  23 F1        4.7186     2.0919    -3.5683  F       1  <O>11      -0.2055
  24 C16       3.3677     0.1777    -3.0496  C.ar    1  <O>11      -0.0257
  25 C17       3.1956    -1.0456    -2.3992  C.ar    1  <O>11      -0.0469
  26 H1        3.3300    -2.1430     3.0360  H       1  <O>11       0.0438
  27 H2        1.6900    -2.2840     2.3590  H       1  <O>11       0.0438
  28 H3        0.4552    -4.2019     3.4713  H       1  <O>11       0.1701
  29 H4        3.6243    -4.9202     0.5622  H       1  <O>11       0.1728
  30 H5        3.2658    -1.9772     0.8161  H       1  <O>11       0.1731
  31 H6        3.4455    -1.7209     7.6187  H       1  <O>11       0.0639
  32 H7        2.5977    -2.1849     9.8332  H       1  <O>11       0.0618
  33 H8        0.6377    -3.5878    10.1156  H       1  <O>11       0.0618
  34 H9       -0.4503    -4.5274     8.1616  H       1  <O>11       0.0626
  35 H10       6.1965    -1.2328    -0.8995  H       1  <O>11       0.0626
  36 H11       6.4824     0.8914    -2.0392  H       1  <O>11       0.0646
  37 H12       2.6045     0.5591    -3.6302  H       1  <O>11       0.0646
  38 H13       2.3113    -1.5669    -2.5051  H       1  <O>11       0.0626
@<TRIPOS>BOND
     1     1     2    2
     2     2     3    1
     3     3     4    1
     4     4     5   ar
     5     5     6   ar
     6     6     7   ar
     7     7     8   ar
     8     8     9   ar
     9     9    10   ar
    10    10    11   ar
    11     6    11   ar
    12    11    12   ar
    13    12    13    2
    14    12    14   ar
    15     4    14   ar
    16     2    15   am
    17    15    16    1
    18    16    17   am
    19    17    18    2
    20    17    19    1
    21    19    20   ar
    22    20    21   ar
    23    21    22   ar
    24    22    23    1
    25    22    24   ar
    26    24    25   ar
    27    19    25   ar
    28     3    26    1
    29     3    27    1
    30    14    28    1
    31    15    29    1
    32    16    30    1
    33     7    31    1
    34     8    32    1
    35     9    33    1
    36    10    34    1
    37    20    35    1
    38    21    36    1
    39    24    37    1
    40    25    38    1
@<TRIPOS>MOLECULE
mol66_1_6
 38 40 0 0 0
SMALL
USER_CHARGES
****
VDW energy = -136.14
@<TRIPOS>ATOM
   1 O1        2.6902    -5.1277     2.8674  O.2     1  <O>11      -0.2738
   2 C1        2.8397    -4.0645     2.2839  C.2     1  <O>11       0.2364
   3 C2        2.4540    -2.7870     2.9510  C.3     1  <O>11       0.0835
   4 C3        1.8189    -1.8897     1.9670  C.ar    1  <O>11       0.1192
   5 N1        1.6715    -2.2876     0.6893  N.ar    1  <O>11      -0.2332
   6 C4        1.0908    -1.4405    -0.1709  C.ar    1  <O>11       0.0782
   7 C5        0.9261    -1.8277    -1.4954  C.ar    1  <O>11      -0.0355
   8 C6        0.3287    -0.9894    -2.4424  C.ar    1  <O>11      -0.0597
   9 C7       -0.1226     0.2693    -2.0667  C.ar    1  <O>11      -0.0609
  10 C8        0.0300     0.6820    -0.7467  C.ar    1  <O>11      -0.0474
  11 C9        0.6376    -0.1733     0.2064  C.ar    1  <O>11       0.0647
  12 C10       0.8420     0.1338     1.5505  C.ar    1  <O>11       0.2592
  13 O2        0.4000     1.4039     1.9665  O.2     1  <O>11      -0.2672
  14 N2        1.4216    -0.7012     2.4351  N.ar    1  <O>11      -0.3100
  15 N3        3.3610    -4.0460     1.0180  N.am    1  <O>11      -0.2338
  16 N4        3.7160    -5.2220     0.4040  N.am    1  <O>11      -0.2304
  17 C11       4.2380    -5.2030    -0.8620  C.2     1  <O>11       0.2601
  18 O3        4.3870    -4.1390    -1.4450  O.2     1  <O>11      -0.2687
  19 C12       4.6160    -6.4510    -1.5120  C.ar    1  <O>11       0.0383
  20 C13       3.6811    -7.1548    -2.2902  C.ar    1  <O>11      -0.0469
  21 C14       4.0394    -8.3600    -2.9040  C.ar    1  <O>11      -0.0257
  22 C15       5.3316    -8.8716    -2.7491  C.ar    1  <O>11       0.1234
  23 F1        5.6891   -10.0531    -3.3461  F       1  <O>11      -0.2055
  24 C16       6.2635    -8.1665    -1.9790  C.ar    1  <O>11      -0.0257
  25 C17       5.9152    -6.9617    -1.3657  C.ar    1  <O>11      -0.0469
  26 H1        1.7513    -2.9968     3.7582  H       1  <O>11       0.0438
  27 H2        3.3430    -2.3073     3.3594  H       1  <O>11       0.0438
  28 H3        1.5717    -0.4896     3.4108  H       1  <O>11       0.1701
  29 H4        3.4860    -3.1580     0.5310  H       1  <O>11       0.1728
  30 H5        3.5920    -6.1100     0.8900  H       1  <O>11       0.1731
  31 H6        1.2541    -2.7611    -1.7889  H       1  <O>11       0.0639
  32 H7        0.2235    -1.3057    -3.4191  H       1  <O>11       0.0618
  33 H8       -0.5667     0.8921    -2.7596  H       1  <O>11       0.0618
  34 H9       -0.3010     1.6165    -0.4598  H       1  <O>11       0.0626
  35 H10       2.7266    -6.7811    -2.4095  H       1  <O>11       0.0626
  36 H11       3.3478    -8.8731    -3.4728  H       1  <O>11       0.0646
  37 H12       7.2181    -8.5410    -1.8633  H       1  <O>11       0.0646
  38 H13       6.6123    -6.4470    -0.8053  H       1  <O>11       0.0626
@<TRIPOS>BOND
     1     1     2    2
     2     2     3    1
     3     3     4    1
     4     4     5   ar
     5     5     6   ar
     6     6     7   ar
     7     7     8   ar
     8     8     9   ar
     9     9    10   ar
    10    10    11   ar
    11     6    11   ar
    12    11    12   ar
    13    12    13    2
    14    12    14   ar
    15     4    14   ar
    16     2    15   am
    17    15    16    1
    18    16    17   am
    19    17    18    2
    20    17    19    1
    21    19    20   ar
    22    20    21   ar
    23    21    22   ar
    24    22    23    1
    25    22    24   ar
    26    24    25   ar
    27    19    25   ar
    28     3    26    1
    29     3    27    1
    30    14    28    1
    31    15    29    1
    32    16    30    1
    33     7    31    1
    34     8    32    1
    35     9    33    1
    36    10    34    1
    37    20    35    1
    38    21    36    1
    39    24    37    1
    40    25    38    1
@<TRIPOS>MOLECULE
mol66_1_7
 38 40 0 0 0
SMALL
USER_CHARGES
****
VDW energy = -135.80
@<TRIPOS>ATOM
   1 O1        2.6902    -5.1277     2.8674  O.2     1  <O>11      -0.2738
   2 C1        2.8397    -4.0645     2.2839  C.2     1  <O>11       0.2364
   3 C2        2.4540    -2.7870     2.9510  C.3     1  <O>11       0.0835
   4 C3        1.9230    -3.0750     4.2970  C.ar    1  <O>11       0.1192
   5 N1        0.6651    -2.7166     4.6158  N.ar    1  <O>11      -0.2332
   6 C4        0.2242    -2.9962     5.8496  C.ar    1  <O>11       0.0782
   7 C5       -1.0710    -2.6374     6.2033  C.ar    1  <O>11      -0.0355
   8 C6       -1.5902    -2.9000     7.4752  C.ar    1  <O>11      -0.0597
   9 C7       -0.8051    -3.5403     8.4254  C.ar    1  <O>11      -0.0609
  10 C8        0.4956    -3.9104     8.0974  C.ar    1  <O>11      -0.0474
  11 C9        1.0143    -3.6394     6.8064  C.ar    1  <O>11       0.0647
  12 C10       2.2975    -3.9631     6.3690  C.ar    1  <O>11       0.2592
  13 O2        3.1234    -4.6103     7.3075  O.2     1  <O>11      -0.2672
  14 N2        2.7632    -3.6944     5.1336  N.ar    1  <O>11      -0.3100
  15 N3        3.3610    -4.0460     1.0180  N.am    1  <O>11      -0.2338
  16 N4        3.5291    -2.8514     0.3617  N.am    1  <O>11      -0.2304
  17 C11       4.0500    -2.8334    -0.9048  C.2     1  <O>11       0.2601
  18 O3        4.3656    -3.8809    -1.4500  O.2     1  <O>11      -0.2687
  19 C12       4.2264    -1.5658    -1.6011  C.ar    1  <O>11       0.0383
  20 C13       3.2524    -0.5584    -1.4941  C.ar    1  <O>11      -0.0469
  21 C14       3.4146     0.6543    -2.1730  C.ar    1  <O>11      -0.0257
  22 C15       4.5490     0.8732    -2.9610  C.ar    1  <O>11       0.1234
  23 F1        4.7136     2.0584    -3.6306  F       1  <O>11      -0.2055
  24 C16       5.5211    -0.1285    -3.0616  C.ar    1  <O>11      -0.0257
  25 C17       5.3685    -1.3402    -2.3851  C.ar    1  <O>11      -0.0469
  26 H1        3.3300    -2.1430     3.0360  H       1  <O>11       0.0438
  27 H2        1.6900    -2.2840     2.3590  H       1  <O>11       0.0438
  28 H3        3.6895    -3.9272     4.8061  H       1  <O>11       0.1701
  29 H4        3.6243    -4.9202     0.5622  H       1  <O>11       0.1728
  30 H5        3.2658    -1.9772     0.8161  H       1  <O>11       0.1731
  31 H6       -1.6672    -2.1633     5.5071  H       1  <O>11       0.0639
  32 H7       -2.5555    -2.6183     7.7075  H       1  <O>11       0.0618
  33 H8       -1.1826    -3.7396     9.3650  H       1  <O>11       0.0618
  34 H9        1.0861    -4.3849     8.7982  H       1  <O>11       0.0626
  35 H10       2.4141    -0.7137    -0.9124  H       1  <O>11       0.0626
  36 H11       2.6950     1.3895    -2.0918  H       1  <O>11       0.0646
  37 H12       6.3597     0.0302    -3.6419  H       1  <O>11       0.0646
  38 H13       6.0947    -2.0693    -2.4614  H       1  <O>11       0.0626
@<TRIPOS>BOND
     1     1     2    2
     2     2     3    1
     3     3     4    1
     4     4     5   ar
     5     5     6   ar
     6     6     7   ar
     7     7     8   ar
     8     8     9   ar
     9     9    10   ar
    10    10    11   ar
    11     6    11   ar
    12    11    12   ar
    13    12    13    2
    14    12    14   ar
    15     4    14   ar
    16     2    15   am
    17    15    16    1
    18    16    17   am
    19    17    18    2
    20    17    19    1
    21    19    20   ar
    22    20    21   ar
    23    21    22   ar
    24    22    23    1
    25    22    24   ar
    26    24    25   ar
    27    19    25   ar
    28     3    26    1
    29     3    27    1
    30    14    28    1
    31    15    29    1
    32    16    30    1
    33     7    31    1
    34     8    32    1
    35     9    33    1
    36    10    34    1
    37    20    35    1
    38    21    36    1
    39    24    37    1
    40    25    38    1
@<TRIPOS>MOLECULE
mol66_1_8
 38 40 0 0 0
SMALL
USER_CHARGES
****
VDW energy = -135.40
@<TRIPOS>ATOM
   1 O1        2.6902    -5.1277     2.8674  O.2     1  <O>11      -0.2738
   2 C1        2.8397    -4.0645     2.2839  C.2     1  <O>11       0.2364
   3 C2        2.4540    -2.7870     2.9510  C.3     1  <O>11       0.0835
   4 C3        3.4558    -1.7486     2.6432  C.ar    1  <O>11       0.1192
   5 N1        4.5231    -1.5829     3.4469  N.ar    1  <O>11      -0.2332
   6 C4        5.4071    -0.6273     3.1307  C.ar    1  <O>11       0.0782
   7 C5        6.5180    -0.4366     3.9437  C.ar    1  <O>11      -0.0355
   8 C6        7.4763     0.5444     3.6690  C.ar    1  <O>11      -0.0597
   9 C7        7.3331     1.3596     2.5535  C.ar    1  <O>11      -0.0609
  10 C8        6.2299     1.1900     1.7226  C.ar    1  <O>11      -0.0474
  11 C9        5.2627     0.1941     2.0091  C.ar    1  <O>11       0.0647
  12 C10       4.1226    -0.0642     1.2502  C.ar    1  <O>11       0.2592
  13 O2        3.9426     0.7460     0.1132  O.2     1  <O>11      -0.2672
  14 N2        3.2203    -1.0201     1.5462  N.ar    1  <O>11      -0.3100
  15 N3        3.3610    -4.0460     1.0180  N.am    1  <O>11      -0.2338
  16 N4        3.7160    -5.2220     0.4040  N.am    1  <O>11      -0.2304
  17 C11       4.2380    -5.2030    -0.8620  C.2     1  <O>11       0.2601
  18 O3        4.3870    -4.1390    -1.4450  O.2     1  <O>11      -0.2687
  19 C12       4.6160    -6.4510    -1.5120  C.ar    1  <O>11       0.0383
  20 C13       5.1520    -6.4380    -2.8110  C.ar    1  <O>11      -0.0469
  21 C14       5.5030    -7.6370    -3.4410  C.ar    1  <O>11      -0.0257
  22 C15       5.3250    -8.8570    -2.7810  C.ar    1  <O>11       0.1234
  23 F1        5.6650   -10.0360    -3.3930  F       1  <O>11      -0.2055
  24 C16       4.7970    -8.8680    -1.4850  C.ar    1  <O>11      -0.0257
  25 C17       4.4470    -7.6760    -0.8480  C.ar    1  <O>11      -0.0469
  26 H1        1.4766    -2.4682     2.5872  H       1  <O>11       0.0438
  27 H2        2.4080    -2.9392     4.0289  H       1  <O>11       0.0438
  28 H3        2.3931    -1.2171     1.0018  H       1  <O>11       0.1701
  29 H4        3.4860    -3.1580     0.5310  H       1  <O>11       0.1728
  30 H5        3.5920    -6.1100     0.8900  H       1  <O>11       0.1731
  31 H6        6.6393    -1.0365     4.7747  H       1  <O>11       0.0639
  32 H7        8.2888     0.6623     4.2942  H       1  <O>11       0.0618
  33 H8        8.0377     2.0838     2.3432  H       1  <O>11       0.0618
  34 H9        6.1151     1.7928     0.8929  H       1  <O>11       0.0626
  35 H10       5.2873    -5.5405    -3.3022  H       1  <O>11       0.0626
  36 H11       5.8945    -7.6210    -4.3957  H       1  <O>11       0.0646
  37 H12       4.6650    -9.7666    -0.9950  H       1  <O>11       0.0646
  38 H13       4.0644    -7.6955     0.1102  H       1  <O>11       0.0626
@<TRIPOS>BOND
     1     1     2    2
     2     2     3    1
     3     3     4    1
     4     4     5   ar
     5     5     6   ar
     6     6     7   ar
     7     7     8   ar
     8     8     9   ar
     9     9    10   ar
    10    10    11   ar
    11     6    11   ar
    12    11    12   ar
    13    12    13    2
    14    12    14   ar
    15     4    14   ar
    16     2    15   am
    17    15    16    1
    18    16    17   am
    19    17    18    2
    20    17    19    1
    21    19    20   ar
    22    20    21   ar
    23    21    22   ar
    24    22    23    1
    25    22    24   ar
    26    24    25   ar
    27    19    25   ar
    28     3    26    1
    29     3    27    1
    30    14    28    1
    31    15    29    1
    32    16    30    1
    33     7    31    1
    34     8    32    1
    35     9    33    1
    36    10    34    1
    37    20    35    1
    38    21    36    1
    39    24    37    1
    40    25    38    1
@<TRIPOS>MOLECULE
mol66_1_9
 38 40 0 0 0
SMALL
USER_CHARGES
****
VDW energy = -134.81
@<TRIPOS>ATOM
   1 O1        2.6902    -5.1277     2.8674  O.2     1  <O>11      -0.2738
   2 C1        2.8397    -4.0645     2.2839  C.2     1  <O>11       0.2364
   3 C2        2.4540    -2.7870     2.9510  C.3     1  <O>11       0.0835
   4 C3        1.9230    -3.0750     4.2970  C.ar    1  <O>11       0.1192
   5 N1        0.6651    -2.7166     4.6158  N.ar    1  <O>11      -0.2332
   6 C4        0.2242    -2.9962     5.8496  C.ar    1  <O>11       0.0782
   7 C5       -1.0710    -2.6374     6.2033  C.ar    1  <O>11      -0.0355
   8 C6       -1.5902    -2.9000     7.4752  C.ar    1  <O>11      -0.0597
   9 C7       -0.8051    -3.5403     8.4254  C.ar    1  <O>11      -0.0609
  10 C8        0.4956    -3.9104     8.0974  C.ar    1  <O>11      -0.0474
  11 C9        1.0143    -3.6394     6.8064  C.ar    1  <O>11       0.0647
  12 C10       2.2975    -3.9631     6.3690  C.ar    1  <O>11       0.2592
  13 O2        3.1234    -4.6103     7.3075  O.2     1  <O>11      -0.2672
  14 N2        2.7632    -3.6944     5.1336  N.ar    1  <O>11      -0.3100
  15 N3        3.3610    -4.0460     1.0180  N.am    1  <O>11      -0.2338
  16 N4        3.7160    -5.2220     0.4040  N.am    1  <O>11      -0.2304
  17 C11       4.2380    -5.2030    -0.8620  C.2     1  <O>11       0.2601
  18 O3        4.3870    -4.1390    -1.4450  O.2     1  <O>11      -0.2687
  19 C12       4.6160    -6.4510    -1.5120  C.ar    1  <O>11       0.0383
  20 C13       5.1520    -6.4380    -2.8110  C.ar    1  <O>11      -0.0469
  21 C14       5.5030    -7.6370    -3.4410  C.ar    1  <O>11      -0.0257
  22 C15       5.3250    -8.8570    -2.7810  C.ar    1  <O>11       0.1234
  23 F1        5.6650   -10.0360    -3.3930  F       1  <O>11      -0.2055
  24 C16       4.7970    -8.8680    -1.4850  C.ar    1  <O>11      -0.0257
  25 C17       4.4470    -7.6760    -0.8480  C.ar    1  <O>11      -0.0469
  26 H1        3.3300    -2.1430     3.0360  H       1  <O>11       0.0438
  27 H2        1.6900    -2.2840     2.3590  H       1  <O>11       0.0438
  28 H3        3.6895    -3.9272     4.8061  H       1  <O>11       0.1701
  29 H4        3.4860    -3.1580     0.5310  H       1  <O>11       0.1728
  30 H5        3.5920    -6.1100     0.8900  H       1  <O>11       0.1731
  31 H6       -1.6672    -2.1633     5.5071  H       1  <O>11       0.0639
  32 H7       -2.5555    -2.6183     7.7075  H       1  <O>11       0.0618
  33 H8       -1.1826    -3.7396     9.3650  H       1  <O>11       0.0618
  34 H9        1.0861    -4.3849     8.7982  H       1  <O>11       0.0626
  35 H10       5.2873    -5.5405    -3.3022  H       1  <O>11       0.0626
  36 H11       5.8945    -7.6210    -4.3957  H       1  <O>11       0.0646
  37 H12       4.6650    -9.7666    -0.9950  H       1  <O>11       0.0646
  38 H13       4.0644    -7.6955     0.1102  H       1  <O>11       0.0626
@<TRIPOS>BOND
     1     1     2    2
     2     2     3    1
     3     3     4    1
     4     4     5   ar
     5     5     6   ar
     6     6     7   ar
     7     7     8   ar
     8     8     9   ar
     9     9    10   ar
    10    10    11   ar
    11     6    11   ar
    12    11    12   ar
    13    12    13    2
    14    12    14   ar
    15     4    14   ar
    16     2    15   am
    17    15    16    1
    18    16    17   am
    19    17    18    2
    20    17    19    1
    21    19    20   ar
    22    20    21   ar
    23    21    22   ar
    24    22    23    1
    25    22    24   ar
    26    24    25   ar
    27    19    25   ar
    28     3    26    1
    29     3    27    1
    30    14    28    1
    31    15    29    1
    32    16    30    1
    33     7    31    1
    34     8    32    1
    35     9    33    1
    36    10    34    1
    37    20    35    1
    38    21    36    1
    39    24    37    1
    40    25    38    1
@<TRIPOS>MOLECULE
mol66_1_10
 38 40 0 0 0
SMALL
USER_CHARGES
****
VDW energy = -133.48
@<TRIPOS>ATOM
   1 O1        2.6902    -5.1277     2.8674  O.2     1  <O>11      -0.2738
   2 C1        2.8397    -4.0645     2.2839  C.2     1  <O>11       0.2364
   3 C2        2.4540    -2.7870     2.9510  C.3     1  <O>11       0.0835
   4 C3        1.8189    -1.8897     1.9670  C.ar    1  <O>11       0.1192
   5 N1        1.6715    -2.2876     0.6893  N.ar    1  <O>11      -0.2332
   6 C4        1.0908    -1.4405    -0.1709  C.ar    1  <O>11       0.0782
   7 C5        0.9261    -1.8277    -1.4954  C.ar    1  <O>11      -0.0355
   8 C6        0.3287    -0.9894    -2.4424  C.ar    1  <O>11      -0.0597
   9 C7       -0.1226     0.2693    -2.0667  C.ar    1  <O>11      -0.0609
  10 C8        0.0300     0.6820    -0.7467  C.ar    1  <O>11      -0.0474
  11 C9        0.6376    -0.1733     0.2064  C.ar    1  <O>11       0.0647
  12 C10       0.8420     0.1338     1.5505  C.ar    1  <O>11       0.2592
  13 O2        0.4000     1.4039     1.9665  O.2     1  <O>11      -0.2672
  14 N2        1.4216    -0.7012     2.4351  N.ar    1  <O>11      -0.3100
  15 N3        3.3610    -4.0460     1.0180  N.am    1  <O>11      -0.2338
  16 N4        3.7160    -5.2220     0.4040  N.am    1  <O>11      -0.2304
  17 C11       4.2380    -5.2030    -0.8620  C.2     1  <O>11       0.2601
  18 O3        4.3870    -4.1390    -1.4450  O.2     1  <O>11      -0.2687
  19 C12       4.6160    -6.4510    -1.5120  C.ar    1  <O>11       0.0383
  20 C13       5.2426    -7.4707    -0.7755  C.ar    1  <O>11      -0.0469
  21 C14       5.6178    -8.6643    -1.4018  C.ar    1  <O>11      -0.0257
  22 C15       5.3695    -8.8517    -2.7653  C.ar    1  <O>11       0.1234
  23 F1        5.7362   -10.0181    -3.3860  F       1  <O>11      -0.2055
  24 C16       4.7397    -7.8379    -3.4961  C.ar    1  <O>11      -0.0257
  25 C17       4.3593    -6.6452    -2.8782  C.ar    1  <O>11      -0.0469
  26 H1        1.7513    -2.9968     3.7582  H       1  <O>11       0.0438
  27 H2        3.3430    -2.3073     3.3594  H       1  <O>11       0.0438
  28 H3        1.5717    -0.4896     3.4108  H       1  <O>11       0.1701
  29 H4        3.4860    -3.1580     0.5310  H       1  <O>11       0.1728
  30 H5        3.5920    -6.1100     0.8900  H       1  <O>11       0.1731
  31 H6        1.2541    -2.7611    -1.7889  H       1  <O>11       0.0639
  32 H7        0.2235    -1.3057    -3.4191  H       1  <O>11       0.0618
  33 H8       -0.5667     0.8921    -2.7596  H       1  <O>11       0.0618
  34 H9       -0.3010     1.6165    -0.4598  H       1  <O>11       0.0626
  35 H10       5.4267    -7.3386     0.2313  H       1  <O>11       0.0626
  36 H11       6.0793    -9.4086    -0.8560  H       1  <O>11       0.0646
  37 H12       4.5545    -7.9734    -4.5022  H       1  <O>11       0.0646
  38 H13       3.8899    -5.9069    -3.4254  H       1  <O>11       0.0626
@<TRIPOS>BOND
     1     1     2    2
     2     2     3    1
     3     3     4    1
     4     4     5   ar
     5     5     6   ar
     6     6     7   ar
     7     7     8   ar
     8     8     9   ar
     9     9    10   ar
    10    10    11   ar
    11     6    11   ar
    12    11    12   ar
    13    12    13    2
    14    12    14   ar
    15     4    14   ar
    16     2    15   am
    17    15    16    1
    18    16    17   am
    19    17    18    2
    20    17    19    1
    21    19    20   ar
    22    20    21   ar
    23    21    22   ar
    24    22    23    1
    25    22    24   ar
    26    24    25   ar
    27    19    25   ar
    28     3    26    1
    29     3    27    1
    30    14    28    1
    31    15    29    1
    32    16    30    1
    33     7    31    1
    34     8    32    1
    35     9    33    1
    36    10    34    1
    37    20    35    1
    38    21    36    1
    39    24    37    1
    40    25    38    1
@<TRIPOS>MOLECULE
mol66_1_11
 38 40 0 0 0
SMALL
USER_CHARGES
****
VDW energy = -133.46
@<TRIPOS>ATOM
   1 O1        2.6902    -5.1277     2.8674  O.2     1  <O>11      -0.2738
   2 C1        2.8397    -4.0645     2.2839  C.2     1  <O>11       0.2364
   3 C2        2.4540    -2.7870     2.9510  C.3     1  <O>11       0.0835
   4 C3        3.4558    -1.7486     2.6432  C.ar    1  <O>11       0.1192
   5 N1        4.5136    -2.0430     1.8641  N.ar    1  <O>11      -0.2332
   6 C4        5.3995    -1.0703     1.6114  C.ar    1  <O>11       0.0782
   7 C5        6.4998    -1.3483     0.8092  C.ar    1  <O>11      -0.0355
   8 C6        7.4607    -0.3774     0.5091  C.ar    1  <O>11      -0.0597
   9 C7        7.3273     0.9092     1.0153  C.ar    1  <O>11      -0.0609
  10 C8        6.2350     1.2144     1.8214  C.ar    1  <O>11      -0.0474
  11 C9        5.2663     0.2240     2.1217  C.ar    1  <O>11       0.0647
  12 C10       4.1365     0.4159     2.9150  C.ar    1  <O>11       0.2592
  13 O2        3.9705     1.7079     3.4487  O.2     1  <O>11      -0.2672
  14 N2        3.2306    -0.5451     3.1821  N.ar    1  <O>11      -0.3100
  15 N3        3.3610    -4.0460     1.0180  N.am    1  <O>11      -0.2338
  16 N4        3.7160    -5.2220     0.4040  N.am    1  <O>11      -0.2304
  17 C11       4.2380    -5.2030    -0.8620  C.2     1  <O>11       0.2601
  18 O3        4.3870    -4.1390    -1.4450  O.2     1  <O>11      -0.2687
  19 C12       4.6160    -6.4510    -1.5120  C.ar    1  <O>11       0.0383
  20 C13       5.2426    -7.4707    -0.7755  C.ar    1  <O>11      -0.0469
  21 C14       5.6178    -8.6643    -1.4018  C.ar    1  <O>11      -0.0257
  22 C15       5.3695    -8.8517    -2.7653  C.ar    1  <O>11       0.1234
  23 F1        5.7362   -10.0181    -3.3860  F       1  <O>11      -0.2055
  24 C16       4.7397    -7.8379    -3.4961  C.ar    1  <O>11      -0.0257
  25 C17       4.3593    -6.6452    -2.8782  C.ar    1  <O>11      -0.0469
  26 H1        1.4766    -2.4682     2.5872  H       1  <O>11       0.0438
  27 H2        2.4080    -2.9392     4.0289  H       1  <O>11       0.0438
  28 H3        2.4079    -0.4158     3.7528  H       1  <O>11       0.1701
  29 H4        3.4860    -3.1580     0.5310  H       1  <O>11       0.1728
  30 H5        3.5920    -6.1100     0.8900  H       1  <O>11       0.1731
  31 H6        6.6111    -2.2991     0.4237  H       1  <O>11       0.0639
  32 H7        8.2679    -0.6165    -0.0878  H       1  <O>11       0.0618
  33 H8        8.0311     1.6314     0.7957  H       1  <O>11       0.0618
  34 H9        6.1294     2.1674     2.2030  H       1  <O>11       0.0626
  35 H10       5.4267    -7.3386     0.2313  H       1  <O>11       0.0626
  36 H11       6.0793    -9.4086    -0.8560  H       1  <O>11       0.0646
  37 H12       4.5545    -7.9734    -4.5022  H       1  <O>11       0.0646
  38 H13       3.8899    -5.9069    -3.4254  H       1  <O>11       0.0626
@<TRIPOS>BOND
     1     1     2    2
     2     2     3    1
     3     3     4    1
     4     4     5   ar
     5     5     6   ar
     6     6     7   ar
     7     7     8   ar
     8     8     9   ar
     9     9    10   ar
    10    10    11   ar
    11     6    11   ar
    12    11    12   ar
    13    12    13    2
    14    12    14   ar
    15     4    14   ar
    16     2    15   am
    17    15    16    1
    18    16    17   am
    19    17    18    2
    20    17    19    1
    21    19    20   ar
    22    20    21   ar
    23    21    22   ar
    24    22    23    1
    25    22    24   ar
    26    24    25   ar
    27    19    25   ar
    28     3    26    1
    29     3    27    1
    30    14    28    1
    31    15    29    1
    32    16    30    1
    33     7    31    1
    34     8    32    1
    35     9    33    1
    36    10    34    1
    37    20    35    1
    38    21    36    1
    39    24    37    1
    40    25    38    1
@<TRIPOS>MOLECULE
mol66_1_12
 38 40 0 0 0
SMALL
USER_CHARGES
****
VDW energy = -131.43
@<TRIPOS>ATOM
   1 O1        2.6902    -5.1277     2.8674  O.2     1  <O>11      -0.2738
   2 C1        2.8397    -4.0645     2.2839  C.2     1  <O>11       0.2364
   3 C2        2.4540    -2.7870     2.9510  C.3     1  <O>11       0.0835
   4 C3        3.4558    -1.7486     2.6432  C.ar    1  <O>11       0.1192
   5 N1        4.5231    -1.5829     3.4469  N.ar    1  <O>11      -0.2332
   6 C4        5.4071    -0.6273     3.1307  C.ar    1  <O>11       0.0782
   7 C5        6.5180    -0.4366     3.9437  C.ar    1  <O>11      -0.0355
   8 C6        7.4763     0.5444     3.6690  C.ar    1  <O>11      -0.0597
   9 C7        7.3331     1.3596     2.5535  C.ar    1  <O>11      -0.0609
  10 C8        6.2299     1.1900     1.7226  C.ar    1  <O>11      -0.0474
  11 C9        5.2627     0.1941     2.0091  C.ar    1  <O>11       0.0647
  12 C10       4.1226    -0.0642     1.2502  C.ar    1  <O>11       0.2592
  13 O2        3.9426     0.7460     0.1132  O.2     1  <O>11      -0.2672
  14 N2        3.2203    -1.0201     1.5462  N.ar    1  <O>11      -0.3100
  15 N3        3.3610    -4.0460     1.0180  N.am    1  <O>11      -0.2338
  16 N4        3.7160    -5.2220     0.4040  N.am    1  <O>11      -0.2304
  17 C11       2.7744    -6.1925     0.1870  C.2     1  <O>11       0.2601
  18 O3        1.6184    -6.0115     0.5408  O.2     1  <O>11      -0.2687
  19 C12       3.1515    -7.4392    -0.4660  C.ar    1  <O>11       0.0383
  20 C13       3.5898    -8.5339     0.2984  C.ar    1  <O>11      -0.0469
  21 C14       3.9647    -9.7270    -0.3288  C.ar    1  <O>11      -0.0257
  22 C15       3.9035    -9.8393    -1.7214  C.ar    1  <O>11       0.1234
  23 F1        4.2711   -11.0049    -2.3430  F       1  <O>11      -0.2055
  24 C16       3.4608    -8.7505    -2.4811  C.ar    1  <O>11      -0.0257
  25 C17       3.0820    -7.5573    -1.8629  C.ar    1  <O>11      -0.0469
  26 H1        1.4766    -2.4682     2.5872  H       1  <O>11       0.0438
  27 H2        2.4080    -2.9392     4.0289  H       1  <O>11       0.0438
  28 H3        2.3931    -1.2171     1.0018  H       1  <O>11       0.1701
  29 H4        3.4860    -3.1580     0.5310  H       1  <O>11       0.1728
  30 H5        4.6803    -5.3735     0.1086  H       1  <O>11       0.1731
  31 H6        6.6393    -1.0365     4.7747  H       1  <O>11       0.0639
  32 H7        8.2888     0.6623     4.2942  H       1  <O>11       0.0618
  33 H8        8.0377     2.0838     2.3432  H       1  <O>11       0.0618
  34 H9        6.1151     1.7928     0.8929  H       1  <O>11       0.0626
  35 H10       3.6354    -8.4574     1.3266  H       1  <O>11       0.0626
  36 H11       4.2874   -10.5268     0.2379  H       1  <O>11       0.0646
  37 H12       3.4138    -8.8303    -3.5089  H       1  <O>11       0.0646
  38 H13       2.7511    -6.7630    -2.4325  H       1  <O>11       0.0626
@<TRIPOS>BOND
     1     1     2    2
     2     2     3    1
     3     3     4    1
     4     4     5   ar
     5     5     6   ar
     6     6     7   ar
     7     7     8   ar
     8     8     9   ar
     9     9    10   ar
    10    10    11   ar
    11     6    11   ar
    12    11    12   ar
    13    12    13    2
    14    12    14   ar
    15     4    14   ar
    16     2    15   am
    17    15    16    1
    18    16    17   am
    19    17    18    2
    20    17    19    1
    21    19    20   ar
    22    20    21   ar
    23    21    22   ar
    24    22    23    1
    25    22    24   ar
    26    24    25   ar
    27    19    25   ar
    28     3    26    1
    29     3    27    1
    30    14    28    1
    31    15    29    1
    32    16    30    1
    33     7    31    1
    34     8    32    1
    35     9    33    1
    36    10    34    1
    37    20    35    1
    38    21    36    1
    39    24    37    1
    40    25    38    1
@<TRIPOS>MOLECULE
mol66_1_13
 38 40 0 0 0
SMALL
USER_CHARGES
****
VDW energy = -129.61
@<TRIPOS>ATOM
   1 O1        2.6902    -5.1277     2.8674  O.2     1  <O>11      -0.2738
   2 C1        2.8397    -4.0645     2.2839  C.2     1  <O>11       0.2364
   3 C2        2.4540    -2.7870     2.9510  C.3     1  <O>11       0.0835
   4 C3        1.9230    -3.0750     4.2970  C.ar    1  <O>11       0.1192
   5 N1        2.7546    -3.1143     5.3550  N.ar    1  <O>11      -0.2332
   6 C4        2.2301    -3.3808     6.5586  C.ar    1  <O>11       0.0782
   7 C5        3.0671    -3.4262     7.6670  C.ar    1  <O>11      -0.0355
   8 C6        2.5819    -3.7003     8.9499  C.ar    1  <O>11      -0.0597
   9 C7        1.2262    -3.9333     9.1427  C.ar    1  <O>11      -0.0609
  10 C8        0.3659    -3.8939     8.0497  C.ar    1  <O>11      -0.0474
  11 C9        0.8662    -3.6165     6.7529  C.ar    1  <O>11       0.0647
  12 C10       0.1003    -3.5522     5.5901  C.ar    1  <O>11       0.2592
  13 O2       -1.2788    -3.7870     5.7470  O.2     1  <O>11      -0.2672
  14 N2        0.6038    -3.2843     4.3694  N.ar    1  <O>11      -0.3100
  15 N3        3.3610    -4.0460     1.0180  N.am    1  <O>11      -0.2338
  16 N4        3.7160    -5.2220     0.4040  N.am    1  <O>11      -0.2304
  17 C11       2.7744    -6.1925     0.1870  C.2     1  <O>11       0.2601
  18 O3        1.6184    -6.0116     0.5408  O.2     1  <O>11      -0.2687
  19 C12       3.1516    -7.4392    -0.4660  C.ar    1  <O>11       0.0383
  20 C13       4.0525    -7.4285    -1.5445  C.ar    1  <O>11      -0.0469
  21 C14       4.4050    -8.6238    -2.1807  C.ar    1  <O>11      -0.0257
  22 C15       3.8649    -9.8382    -1.7458  C.ar    1  <O>11       0.1234
  23 F1        4.2044   -11.0132    -2.3658  F       1  <O>11      -0.2055
  24 C16       2.9727    -9.8481    -0.6676  C.ar    1  <O>11      -0.0257
  25 C17       2.6180    -8.6603    -0.0253  C.ar    1  <O>11      -0.0469
  26 H1        3.3300    -2.1430     3.0360  H       1  <O>11       0.0438
  27 H2        1.6900    -2.2840     2.3590  H       1  <O>11       0.0438
  28 H3        0.0575    -3.2326     3.5218  H       1  <O>11       0.1701
  29 H4        3.4860    -3.1580     0.5310  H       1  <O>11       0.1728
  30 H5        4.6803    -5.3735     0.1086  H       1  <O>11       0.1731
  31 H6        4.0765    -3.2526     7.5399  H       1  <O>11       0.0639
  32 H7        3.2303    -3.7294     9.7522  H       1  <O>11       0.0618
  33 H8        0.8608    -4.1335    10.0868  H       1  <O>11       0.0618
  34 H9       -0.6425    -4.0676     8.1841  H       1  <O>11       0.0626
  35 H10       4.4556    -6.5354    -1.8686  H       1  <O>11       0.0626
  36 H11       5.0657    -8.6091    -2.9733  H       1  <O>11       0.0646
  37 H12       2.5729   -10.7427    -0.3439  H       1  <O>11       0.0646
  38 H13       1.9641    -8.6801     0.7727  H       1  <O>11       0.0626
@<TRIPOS>BOND
     1     1     2    2
     2     2     3    1
     3     3     4    1
     4     4     5   ar
     5     5     6   ar
     6     6     7   ar
     7     7     8   ar
     8     8     9   ar
     9     9    10   ar
    10    10    11   ar
    11     6    11   ar
    12    11    12   ar
    13    12    13    2
    14    12    14   ar
    15     4    14   ar
    16     2    15   am
    17    15    16    1
    18    16    17   am
    19    17    18    2
    20    17    19    1
    21    19    20   ar
    22    20    21   ar
    23    21    22   ar
    24    22    23    1
    25    22    24   ar
    26    24    25   ar
    27    19    25   ar
    28     3    26    1
    29     3    27    1
    30    14    28    1
    31    15    29    1
    32    16    30    1
    33     7    31    1
    34     8    32    1
    35     9    33    1
    36    10    34    1
    37    20    35    1
    38    21    36    1
    39    24    37    1
    40    25    38    1
@<TRIPOS>MOLECULE
mol66_1_14
 38 40 0 0 0
SMALL
USER_CHARGES
****
VDW energy = -129.10
@<TRIPOS>ATOM
   1 O1        2.6902    -5.1277     2.8674  O.2     1  <O>11      -0.2738
   2 C1        2.8397    -4.0645     2.2839  C.2     1  <O>11       0.2364
   3 C2        2.4540    -2.7870     2.9510  C.3     1  <O>11       0.0835
   4 C3        3.4558    -1.7486     2.6432  C.ar    1  <O>11       0.1192
   5 N1        4.5136    -2.0430     1.8641  N.ar    1  <O>11      -0.2332
   6 C4        5.3995    -1.0703     1.6114  C.ar    1  <O>11       0.0782
   7 C5        6.4998    -1.3483     0.8092  C.ar    1  <O>11      -0.0355
   8 C6        7.4607    -0.3774     0.5091  C.ar    1  <O>11      -0.0597
   9 C7        7.3273     0.9092     1.0153  C.ar    1  <O>11      -0.0609
  10 C8        6.2350     1.2144     1.8214  C.ar    1  <O>11      -0.0474
  11 C9        5.2663     0.2240     2.1217  C.ar    1  <O>11       0.0647
  12 C10       4.1365     0.4159     2.9150  C.ar    1  <O>11       0.2592
  13 O2        3.9705     1.7079     3.4487  O.2     1  <O>11      -0.2672
  14 N2        3.2306    -0.5451     3.1821  N.ar    1  <O>11      -0.3100
  15 N3        3.3610    -4.0460     1.0180  N.am    1  <O>11      -0.2338
  16 N4        3.7160    -5.2220     0.4040  N.am    1  <O>11      -0.2304
  17 C11       4.2380    -5.2030    -0.8620  C.2     1  <O>11       0.2601
  18 O3        4.3870    -4.1390    -1.4450  O.2     1  <O>11      -0.2687
  19 C12       4.6160    -6.4510    -1.5120  C.ar    1  <O>11       0.0383
  20 C13       5.1520    -6.4380    -2.8110  C.ar    1  <O>11      -0.0469
  21 C14       5.5030    -7.6370    -3.4410  C.ar    1  <O>11      -0.0257
  22 C15       5.3250    -8.8570    -2.7810  C.ar    1  <O>11       0.1234
  23 F1        5.6650   -10.0360    -3.3930  F       1  <O>11      -0.2055
  24 C16       4.7970    -8.8680    -1.4850  C.ar    1  <O>11      -0.0257
  25 C17       4.4470    -7.6760    -0.8480  C.ar    1  <O>11      -0.0469
  26 H1        1.4766    -2.4682     2.5872  H       1  <O>11       0.0438
  27 H2        2.4080    -2.9392     4.0289  H       1  <O>11       0.0438
  28 H3        2.4079    -0.4158     3.7528  H       1  <O>11       0.1701
  29 H4        3.4860    -3.1580     0.5310  H       1  <O>11       0.1728
  30 H5        3.5920    -6.1100     0.8900  H       1  <O>11       0.1731
  31 H6        6.6111    -2.2991     0.4237  H       1  <O>11       0.0639
  32 H7        8.2679    -0.6165    -0.0878  H       1  <O>11       0.0618
  33 H8        8.0311     1.6314     0.7957  H       1  <O>11       0.0618
  34 H9        6.1294     2.1674     2.2030  H       1  <O>11       0.0626
  35 H10       5.2873    -5.5405    -3.3022  H       1  <O>11       0.0626
  36 H11       5.8945    -7.6210    -4.3957  H       1  <O>11       0.0646
  37 H12       4.6650    -9.7666    -0.9950  H       1  <O>11       0.0646
  38 H13       4.0644    -7.6955     0.1102  H       1  <O>11       0.0626
@<TRIPOS>BOND
     1     1     2    2
     2     2     3    1
     3     3     4    1
     4     4     5   ar
     5     5     6   ar
     6     6     7   ar
     7     7     8   ar
     8     8     9   ar
     9     9    10   ar
    10    10    11   ar
    11     6    11   ar
    12    11    12   ar
    13    12    13    2
    14    12    14   ar
    15     4    14   ar
    16     2    15   am
    17    15    16    1
    18    16    17   am
    19    17    18    2
    20    17    19    1
    21    19    20   ar
    22    20    21   ar
    23    21    22   ar
    24    22    23    1
    25    22    24   ar
    26    24    25   ar
    27    19    25   ar
    28     3    26    1
    29     3    27    1
    30    14    28    1
    31    15    29    1
    32    16    30    1
    33     7    31    1
    34     8    32    1
    35     9    33    1
    36    10    34    1
    37    20    35    1
    38    21    36    1
    39    24    37    1
    40    25    38    1
@<TRIPOS>MOLECULE
mol66_1_15
 38 40 0 0 0
SMALL
USER_CHARGES
****
VDW energy = -129.09
@<TRIPOS>ATOM
   1 O1        2.6902    -5.1277     2.8674  O.2     1  <O>11      -0.2738
   2 C1        2.8397    -4.0645     2.2839  C.2     1  <O>11       0.2364
   3 C2        2.4540    -2.7870     2.9510  C.3     1  <O>11       0.0835
   4 C3        1.8189    -1.8897     1.9670  C.ar    1  <O>11       0.1192
   5 N1        1.6715    -2.2876     0.6893  N.ar    1  <O>11      -0.2332
   6 C4        1.0908    -1.4405    -0.1709  C.ar    1  <O>11       0.0782
   7 C5        0.9261    -1.8277    -1.4954  C.ar    1  <O>11      -0.0355
   8 C6        0.3287    -0.9894    -2.4424  C.ar    1  <O>11      -0.0597
   9 C7       -0.1226     0.2693    -2.0667  C.ar    1  <O>11      -0.0609
  10 C8        0.0300     0.6820    -0.7467  C.ar    1  <O>11      -0.0474
  11 C9        0.6376    -0.1733     0.2064  C.ar    1  <O>11       0.0647
  12 C10       0.8420     0.1338     1.5505  C.ar    1  <O>11       0.2592
  13 O2        0.4000     1.4039     1.9665  O.2     1  <O>11      -0.2672
  14 N2        1.4216    -0.7012     2.4351  N.ar    1  <O>11      -0.3100
  15 N3        3.3610    -4.0460     1.0180  N.am    1  <O>11      -0.2338
  16 N4        3.7160    -5.2220     0.4040  N.am    1  <O>11      -0.2304
  17 C11       4.2380    -5.2030    -0.8620  C.2     1  <O>11       0.2601
  18 O3        4.3870    -4.1390    -1.4450  O.2     1  <O>11      -0.2687
  19 C12       4.6160    -6.4510    -1.5120  C.ar    1  <O>11       0.0383
  20 C13       5.1520    -6.4380    -2.8110  C.ar    1  <O>11      -0.0469
  21 C14       5.5030    -7.6370    -3.4410  C.ar    1  <O>11      -0.0257
  22 C15       5.3250    -8.8570    -2.7810  C.ar    1  <O>11       0.1234
  23 F1        5.6650   -10.0360    -3.3930  F       1  <O>11      -0.2055
  24 C16       4.7970    -8.8680    -1.4850  C.ar    1  <O>11      -0.0257
  25 C17       4.4470    -7.6760    -0.8480  C.ar    1  <O>11      -0.0469
  26 H1        1.7513    -2.9968     3.7582  H       1  <O>11       0.0438
  27 H2        3.3430    -2.3073     3.3594  H       1  <O>11       0.0438
  28 H3        1.5717    -0.4896     3.4108  H       1  <O>11       0.1701
  29 H4        3.4860    -3.1580     0.5310  H       1  <O>11       0.1728
  30 H5        3.5920    -6.1100     0.8900  H       1  <O>11       0.1731
  31 H6        1.2541    -2.7611    -1.7889  H       1  <O>11       0.0639
  32 H7        0.2235    -1.3057    -3.4191  H       1  <O>11       0.0618
  33 H8       -0.5667     0.8921    -2.7596  H       1  <O>11       0.0618
  34 H9       -0.3010     1.6165    -0.4598  H       1  <O>11       0.0626
  35 H10       5.2873    -5.5405    -3.3022  H       1  <O>11       0.0626
  36 H11       5.8945    -7.6210    -4.3957  H       1  <O>11       0.0646
  37 H12       4.6650    -9.7666    -0.9950  H       1  <O>11       0.0646
  38 H13       4.0644    -7.6955     0.1102  H       1  <O>11       0.0626
@<TRIPOS>BOND
     1     1     2    2
     2     2     3    1
     3     3     4    1
     4     4     5   ar
     5     5     6   ar
     6     6     7   ar
     7     7     8   ar
     8     8     9   ar
     9     9    10   ar
    10    10    11   ar
    11     6    11   ar
    12    11    12   ar
    13    12    13    2
    14    12    14   ar
    15     4    14   ar
    16     2    15   am
    17    15    16    1
    18    16    17   am
    19    17    18    2
    20    17    19    1
    21    19    20   ar
    22    20    21   ar
    23    21    22   ar
    24    22    23    1
    25    22    24   ar
    26    24    25   ar
    27    19    25   ar
    28     3    26    1
    29     3    27    1
    30    14    28    1
    31    15    29    1
    32    16    30    1
    33     7    31    1
    34     8    32    1
    35     9    33    1
    36    10    34    1
    37    20    35    1
    38    21    36    1
    39    24    37    1
    40    25    38    1
@<TRIPOS>MOLECULE
mol66_1_16
 38 40 0 0 0
SMALL
USER_CHARGES
****
VDW energy = -127.38
@<TRIPOS>ATOM
   1 O1        2.6902    -5.1277     2.8674  O.2     1  <O>11      -0.2738
   2 C1        2.8397    -4.0645     2.2839  C.2     1  <O>11       0.2364
   3 C2        2.4540    -2.7870     2.9510  C.3     1  <O>11       0.0835
   4 C3        3.4558    -1.7486     2.6432  C.ar    1  <O>11       0.1192
   5 N1        4.5231    -1.5829     3.4469  N.ar    1  <O>11      -0.2332
   6 C4        5.4071    -0.6273     3.1307  C.ar    1  <O>11       0.0782
   7 C5        6.5180    -0.4366     3.9437  C.ar    1  <O>11      -0.0355
   8 C6        7.4763     0.5444     3.6690  C.ar    1  <O>11      -0.0597
   9 C7        7.3331     1.3596     2.5535  C.ar    1  <O>11      -0.0609
  10 C8        6.2299     1.1900     1.7226  C.ar    1  <O>11      -0.0474
  11 C9        5.2627     0.1941     2.0091  C.ar    1  <O>11       0.0647
  12 C10       4.1226    -0.0642     1.2502  C.ar    1  <O>11       0.2592
  13 O2        3.9426     0.7460     0.1132  O.2     1  <O>11      -0.2672
  14 N2        3.2203    -1.0201     1.5462  N.ar    1  <O>11      -0.3100
  15 N3        3.3610    -4.0460     1.0180  N.am    1  <O>11      -0.2338
  16 N4        3.7160    -5.2220     0.4040  N.am    1  <O>11      -0.2304
  17 C11       4.6672    -6.0294     0.9689  C.2     1  <O>11       0.2601
  18 O3        5.2001    -5.7022     2.0192  O.2     1  <O>11      -0.2687
  19 C12       5.0419    -7.2777     0.3177  C.ar    1  <O>11       0.0383
  20 C13       4.0612    -8.0824    -0.2870  C.ar    1  <O>11      -0.0469
  21 C14       4.4185    -9.2878    -0.9010  C.ar    1  <O>11      -0.0257
  22 C15       5.7550    -9.6991    -0.9194  C.ar    1  <O>11       0.1234
  23 F1        6.1120   -10.8801    -1.5177  F       1  <O>11      -0.2055
  24 C16       6.7314    -8.8937    -0.3224  C.ar    1  <O>11      -0.0257
  25 C17       6.3839    -7.6880     0.2898  C.ar    1  <O>11      -0.0469
  26 H1        1.4766    -2.4682     2.5872  H       1  <O>11       0.0438
  27 H2        2.4080    -2.9392     4.0289  H       1  <O>11       0.0438
  28 H3        2.3931    -1.2171     1.0018  H       1  <O>11       0.1701
  29 H4        3.4860    -3.1580     0.5310  H       1  <O>11       0.1728
  30 H5        3.2716    -5.4955    -0.4723  H       1  <O>11       0.1731
  31 H6        6.6393    -1.0365     4.7747  H       1  <O>11       0.0639
  32 H7        8.2888     0.6623     4.2942  H       1  <O>11       0.0618
  33 H8        8.0377     2.0838     2.3432  H       1  <O>11       0.0618
  34 H9        6.1151     1.7928     0.8929  H       1  <O>11       0.0626
  35 H10       3.0736    -7.7830    -0.2781  H       1  <O>11       0.0626
  36 H11       3.6935    -9.8752    -1.3418  H       1  <O>11       0.0646
  37 H12       7.7186    -9.1941    -0.3348  H       1  <O>11       0.0646
  38 H13       7.1131    -7.0990     0.7214  H       1  <O>11       0.0626
@<TRIPOS>BOND
     1     1     2    2
     2     2     3    1
     3     3     4    1
     4     4     5   ar
     5     5     6   ar
     6     6     7   ar
     7     7     8   ar
     8     8     9   ar
     9     9    10   ar
    10    10    11   ar
    11     6    11   ar
    12    11    12   ar
    13    12    13    2
    14    12    14   ar
    15     4    14   ar
    16     2    15   am
    17    15    16    1
    18    16    17   am
    19    17    18    2
    20    17    19    1
    21    19    20   ar
    22    20    21   ar
    23    21    22   ar
    24    22    23    1
    25    22    24   ar
    26    24    25   ar
    27    19    25   ar
    28     3    26    1
    29     3    27    1
    30    14    28    1
    31    15    29    1
    32    16    30    1
    33     7    31    1
    34     8    32    1
    35     9    33    1
    36    10    34    1
    37    20    35    1
    38    21    36    1
    39    24    37    1
    40    25    38    1
@<TRIPOS>MOLECULE
mol66_1_17
 38 40 0 0 0
SMALL
USER_CHARGES
****
VDW energy = -124.85
@<TRIPOS>ATOM
   1 O1        2.6902    -5.1277     2.8674  O.2     1  <O>11      -0.2738
   2 C1        2.8397    -4.0645     2.2839  C.2     1  <O>11       0.2364
   3 C2        2.4540    -2.7870     2.9510  C.3     1  <O>11       0.0835
   4 C3        1.9229    -3.0750     4.2969  C.ar    1  <O>11       0.1192
   5 N1        1.8508    -4.3460     4.7349  N.ar    1  <O>11      -0.2332
   6 C4        1.3607    -4.5620     5.9629  C.ar    1  <O>11       0.0782
   7 C5        1.2766    -5.8650     6.4388  C.ar    1  <O>11      -0.0355
   8 C6        0.7734    -6.1570     7.7108  C.ar    1  <O>11      -0.0597
   9 C7        0.3434    -5.1280     8.5388  C.ar    1  <O>11      -0.0609
  10 C8        0.4165    -3.8140     8.0868  C.ar    1  <O>11      -0.0474
  11 C9        0.9266    -3.5270     6.7959  C.ar    1  <O>11       0.0647
  12 C10       1.0457    -2.2540     6.2409  C.ar    1  <O>11       0.2592
  13 O2        0.6157    -1.1860     7.0509  O.2     1  <O>11      -0.2672
  14 N2        1.5369    -2.0110     5.0099  N.ar    1  <O>11      -0.3100
  15 N3        3.3610    -4.0460     1.0180  N.am    1  <O>11      -0.2338
  16 N4        3.7160    -5.2220     0.4040  N.am    1  <O>11      -0.2304
  17 C11       4.2380    -5.2030    -0.8620  C.2     1  <O>11       0.2601
  18 O3        4.3870    -4.1390    -1.4450  O.2     1  <O>11      -0.2687
  19 C12       4.6160    -6.4510    -1.5120  C.ar    1  <O>11       0.0383
  20 C13       3.6811    -7.1548    -2.2902  C.ar    1  <O>11      -0.0469
  21 C14       4.0394    -8.3600    -2.9040  C.ar    1  <O>11      -0.0257
  22 C15       5.3316    -8.8716    -2.7491  C.ar    1  <O>11       0.1234
  23 F1        5.6891   -10.0531    -3.3461  F       1  <O>11      -0.2055
  24 C16       6.2635    -8.1665    -1.9790  C.ar    1  <O>11      -0.0257
  25 C17       5.9152    -6.9617    -1.3657  C.ar    1  <O>11      -0.0469
  26 H1        3.3300    -2.1430     3.0361  H       1  <O>11       0.0438
  27 H2        1.6901    -2.2840     2.3589  H       1  <O>11       0.0438
  28 H3        1.6299    -1.0930     4.6000  H       1  <O>11       0.1701
  29 H4        3.4860    -3.1580     0.5310  H       1  <O>11       0.1728
  30 H5        3.5920    -6.1100     0.8900  H       1  <O>11       0.1731
  31 H6        1.5947    -6.6399     5.8360  H       1  <O>11       0.0639
  32 H7        0.7218    -7.1359     8.0337  H       1  <O>11       0.0618
  33 H8       -0.0265    -5.3360     9.4795  H       1  <O>11       0.0618
  34 H9        0.0974    -3.0438     8.6951  H       1  <O>11       0.0626
  35 H10       2.7266    -6.7811    -2.4095  H       1  <O>11       0.0626
  36 H11       3.3478    -8.8731    -3.4728  H       1  <O>11       0.0646
  37 H12       7.2181    -8.5410    -1.8633  H       1  <O>11       0.0646
  38 H13       6.6123    -6.4470    -0.8053  H       1  <O>11       0.0626
@<TRIPOS>BOND
     1     1     2    2
     2     2     3    1
     3     3     4    1
     4     4     5   ar
     5     5     6   ar
     6     6     7   ar
     7     7     8   ar
     8     8     9   ar
     9     9    10   ar
    10    10    11   ar
    11     6    11   ar
    12    11    12   ar
    13    12    13    2
    14    12    14   ar
    15     4    14   ar
    16     2    15   am
    17    15    16    1
    18    16    17   am
    19    17    18    2
    20    17    19    1
    21    19    20   ar
    22    20    21   ar
    23    21    22   ar
    24    22    23    1
    25    22    24   ar
    26    24    25   ar
    27    19    25   ar
    28     3    26    1
    29     3    27    1
    30    14    28    1
    31    15    29    1
    32    16    30    1
    33     7    31    1
    34     8    32    1
    35     9    33    1
    36    10    34    1
    37    20    35    1
    38    21    36    1
    39    24    37    1
    40    25    38    1
@<TRIPOS>MOLECULE
mol66_1_18
 38 40 0 0 0
SMALL
USER_CHARGES
****
VDW energy = -124.74
@<TRIPOS>ATOM
   1 O1        2.6902    -5.1277     2.8674  O.2     1  <O>11      -0.2738
   2 C1        2.8397    -4.0645     2.2839  C.2     1  <O>11       0.2364
   3 C2        2.4540    -2.7870     2.9510  C.3     1  <O>11       0.0835
   4 C3        1.9230    -3.0750     4.2970  C.ar    1  <O>11       0.1192
   5 N1        2.5254    -2.5569     5.3838  N.ar    1  <O>11      -0.2332
   6 C4        2.0106    -2.8454     6.5866  C.ar    1  <O>11       0.0782
   7 C5        2.6134    -2.3222     7.7243  C.ar    1  <O>11      -0.0355
   8 C6        2.1256    -2.5866     9.0081  C.ar    1  <O>11      -0.0597
   9 C7        1.0048    -3.3907     9.1714  C.ar    1  <O>11      -0.0609
  10 C8        0.3819    -3.9275     8.0489  C.ar    1  <O>11      -0.0474
  11 C9        0.8836    -3.6554     6.7514  C.ar    1  <O>11       0.0647
  12 C10       0.3429    -4.1375     5.5606  C.ar    1  <O>11       0.2592
  13 O2       -0.7927    -4.9596     5.6878  O.2     1  <O>11      -0.2672
  14 N2        0.8409    -3.8603     4.3397  N.ar    1  <O>11      -0.3100
  15 N3        3.3610    -4.0460     1.0180  N.am    1  <O>11      -0.2338
  16 N4        3.5291    -2.8514     0.3617  N.am    1  <O>11      -0.2304
  17 C11       2.4477    -2.0487     0.1131  C.2     1  <O>11       0.2601
  18 O3        1.3332    -2.3965     0.4751  O.2     1  <O>11      -0.2687
  19 C12       2.6272    -0.7807    -0.5818  C.ar    1  <O>11       0.0383
  20 C13       1.5214     0.0473    -0.8399  C.ar    1  <O>11      -0.0469
  21 C14       1.6910     1.2589    -1.5187  C.ar    1  <O>11      -0.0257
  22 C15       2.9631     1.6557    -1.9430  C.ar    1  <O>11       0.1234
  23 F1        3.1365     2.8409    -2.6104  F       1  <O>11      -0.2055
  24 C16       4.0643     0.8332    -1.6797  C.ar    1  <O>11      -0.0257
  25 C17       3.9043    -0.3759    -1.0003  C.ar    1  <O>11      -0.0469
  26 H1        3.3300    -2.1430     3.0360  H       1  <O>11       0.0438
  27 H2        1.6900    -2.2840     2.3590  H       1  <O>11       0.0438
  28 H3        0.4552    -4.2019     3.4713  H       1  <O>11       0.1701
  29 H4        3.6243    -4.9202     0.5622  H       1  <O>11       0.1728
  30 H5        4.4588    -2.5607     0.0595  H       1  <O>11       0.1731
  31 H6        3.4455    -1.7209     7.6187  H       1  <O>11       0.0639
  32 H7        2.5977    -2.1849     9.8332  H       1  <O>11       0.0618
  33 H8        0.6377    -3.5878    10.1156  H       1  <O>11       0.0618
  34 H9       -0.4503    -4.5274     8.1616  H       1  <O>11       0.0626
  35 H10       0.5806    -0.2396    -0.5275  H       1  <O>11       0.0626
  36 H11       0.8748     1.8617    -1.7069  H       1  <O>11       0.0646
  37 H12       5.0045     1.1234    -1.9909  H       1  <O>11       0.0646
  38 H13       4.7243    -0.9716    -0.8060  H       1  <O>11       0.0626
@<TRIPOS>BOND
     1     1     2    2
     2     2     3    1
     3     3     4    1
     4     4     5   ar
     5     5     6   ar
     6     6     7   ar
     7     7     8   ar
     8     8     9   ar
     9     9    10   ar
    10    10    11   ar
    11     6    11   ar
    12    11    12   ar
    13    12    13    2
    14    12    14   ar
    15     4    14   ar
    16     2    15   am
    17    15    16    1
    18    16    17   am
    19    17    18    2
    20    17    19    1
    21    19    20   ar
    22    20    21   ar
    23    21    22   ar
    24    22    23    1
    25    22    24   ar
    26    24    25   ar
    27    19    25   ar
    28     3    26    1
    29     3    27    1
    30    14    28    1
    31    15    29    1
    32    16    30    1
    33     7    31    1
    34     8    32    1
    35     9    33    1
    36    10    34    1
    37    20    35    1
    38    21    36    1
    39    24    37    1
    40    25    38    1
@<TRIPOS>MOLECULE
mol66_1_19
 38 40 0 0 0
SMALL
USER_CHARGES
****
VDW energy = -124.62
@<TRIPOS>ATOM
   1 O1        2.6902    -5.1277     2.8674  O.2     1  <O>11      -0.2738
   2 C1        2.8397    -4.0645     2.2839  C.2     1  <O>11       0.2364
   3 C2        2.4540    -2.7870     2.9510  C.3     1  <O>11       0.0835
   4 C3        3.4558    -1.7486     2.6432  C.ar    1  <O>11       0.1192
   5 N1        4.5231    -1.5829     3.4469  N.ar    1  <O>11      -0.2332
   6 C4        5.4071    -0.6273     3.1307  C.ar    1  <O>11       0.0782
   7 C5        6.5180    -0.4366     3.9437  C.ar    1  <O>11      -0.0355
   8 C6        7.4763     0.5444     3.6690  C.ar    1  <O>11      -0.0597
   9 C7        7.3331     1.3596     2.5535  C.ar    1  <O>11      -0.0609
  10 C8        6.2299     1.1900     1.7226  C.ar    1  <O>11      -0.0474
  11 C9        5.2627     0.1941     2.0091  C.ar    1  <O>11       0.0647
  12 C10       4.1226    -0.0642     1.2502  C.ar    1  <O>11       0.2592
  13 O2        3.9426     0.7460     0.1132  O.2     1  <O>11      -0.2672
  14 N2        3.2203    -1.0201     1.5462  N.ar    1  <O>11      -0.3100
  15 N3        3.3610    -4.0460     1.0180  N.am    1  <O>11      -0.2338
  16 N4        3.7160    -5.2220     0.4040  N.am    1  <O>11      -0.2304
  17 C11       2.7744    -6.1925     0.1870  C.2     1  <O>11       0.2601
  18 O3        1.6184    -6.0115     0.5408  O.2     1  <O>11      -0.2687
  19 C12       3.1515    -7.4392    -0.4660  C.ar    1  <O>11       0.0383
  20 C13       2.1899    -8.4389    -0.6913  C.ar    1  <O>11      -0.0469
  21 C14       2.5540    -9.6417    -1.3065  C.ar    1  <O>11      -0.0257
  22 C15       3.8775    -9.8564    -1.7038  C.ar    1  <O>11       0.1234
  23 F1        4.2418   -11.0334    -2.3056  F       1  <O>11      -0.2055
  24 C16       4.8328    -8.8574    -1.4846  C.ar    1  <O>11      -0.0257
  25 C17       4.4773    -7.6532    -0.8742  C.ar    1  <O>11      -0.0469
  26 H1        1.4766    -2.4682     2.5872  H       1  <O>11       0.0438
  27 H2        2.4080    -2.9392     4.0289  H       1  <O>11       0.0438
  28 H3        2.3931    -1.2171     1.0018  H       1  <O>11       0.1701
  29 H4        3.4860    -3.1580     0.5310  H       1  <O>11       0.1728
  30 H5        4.6803    -5.3735     0.1086  H       1  <O>11       0.1731
  31 H6        6.6393    -1.0365     4.7747  H       1  <O>11       0.0639
  32 H7        8.2888     0.6623     4.2942  H       1  <O>11       0.0618
  33 H8        8.0377     2.0838     2.3432  H       1  <O>11       0.0618
  34 H9        6.1151     1.7928     0.8929  H       1  <O>11       0.0626
  35 H10       1.2113    -8.2852    -0.4018  H       1  <O>11       0.0626
  36 H11       1.8436   -10.3727    -1.4676  H       1  <O>11       0.0646
  37 H12       5.8102    -9.0125    -1.7772  H       1  <O>11       0.0646
  38 H13       5.1887    -6.9210    -0.7232  H       1  <O>11       0.0626
@<TRIPOS>BOND
     1     1     2    2
     2     2     3    1
     3     3     4    1
     4     4     5   ar
     5     5     6   ar
     6     6     7   ar
     7     7     8   ar
     8     8     9   ar
     9     9    10   ar
    10    10    11   ar
    11     6    11   ar
    12    11    12   ar
    13    12    13    2
    14    12    14   ar
    15     4    14   ar
    16     2    15   am
    17    15    16    1
    18    16    17   am
    19    17    18    2
    20    17    19    1
    21    19    20   ar
    22    20    21   ar
    23    21    22   ar
    24    22    23    1
    25    22    24   ar
    26    24    25   ar
    27    19    25   ar
    28     3    26    1
    29     3    27    1
    30    14    28    1
    31    15    29    1
    32    16    30    1
    33     7    31    1
    34     8    32    1
    35     9    33    1
    36    10    34    1
    37    20    35    1
    38    21    36    1
    39    24    37    1
    40    25    38    1
@<TRIPOS>MOLECULE
mol66_1_20
 38 40 0 0 0
SMALL
USER_CHARGES
****
VDW energy = -122.16
@<TRIPOS>ATOM
   1 O1        2.6902    -5.1277     2.8674  O.2     1  <O>11      -0.2738
   2 C1        2.8397    -4.0645     2.2839  C.2     1  <O>11       0.2364
   3 C2        2.4540    -2.7870     2.9510  C.3     1  <O>11       0.0835
   4 C3        1.9229    -3.0750     4.2969  C.ar    1  <O>11       0.1192
   5 N1        1.8508    -4.3460     4.7349  N.ar    1  <O>11      -0.2332
   6 C4        1.3607    -4.5620     5.9629  C.ar    1  <O>11       0.0782
   7 C5        1.2766    -5.8650     6.4388  C.ar    1  <O>11      -0.0355
   8 C6        0.7734    -6.1570     7.7108  C.ar    1  <O>11      -0.0597
   9 C7        0.3434    -5.1280     8.5388  C.ar    1  <O>11      -0.0609
  10 C8        0.4165    -3.8140     8.0868  C.ar    1  <O>11      -0.0474
  11 C9        0.9266    -3.5270     6.7959  C.ar    1  <O>11       0.0647
  12 C10       1.0457    -2.2540     6.2409  C.ar    1  <O>11       0.2592
  13 O2        0.6157    -1.1860     7.0509  O.2     1  <O>11      -0.2672
  14 N2        1.5369    -2.0110     5.0099  N.ar    1  <O>11      -0.3100
  15 N3        3.3610    -4.0460     1.0180  N.am    1  <O>11      -0.2338
  16 N4        3.7160    -5.2220     0.4040  N.am    1  <O>11      -0.2304
  17 C11       4.2380    -5.2030    -0.8620  C.2     1  <O>11       0.2601
  18 O3        4.3870    -4.1390    -1.4450  O.2     1  <O>11      -0.2687
  19 C12       4.6160    -6.4510    -1.5120  C.ar    1  <O>11       0.0383
  20 C13       5.2426    -7.4707    -0.7755  C.ar    1  <O>11      -0.0469
  21 C14       5.6178    -8.6643    -1.4018  C.ar    1  <O>11      -0.0257
  22 C15       5.3695    -8.8517    -2.7653  C.ar    1  <O>11       0.1234
  23 F1        5.7362   -10.0181    -3.3860  F       1  <O>11      -0.2055
  24 C16       4.7397    -7.8379    -3.4961  C.ar    1  <O>11      -0.0257
  25 C17       4.3593    -6.6452    -2.8782  C.ar    1  <O>11      -0.0469
  26 H1        3.3300    -2.1430     3.0361  H       1  <O>11       0.0438
  27 H2        1.6901    -2.2840     2.3589  H       1  <O>11       0.0438
  28 H3        1.6299    -1.0930     4.6000  H       1  <O>11       0.1701
  29 H4        3.4860    -3.1580     0.5310  H       1  <O>11       0.1728
  30 H5        3.5920    -6.1100     0.8900  H       1  <O>11       0.1731
  31 H6        1.5947    -6.6399     5.8360  H       1  <O>11       0.0639
  32 H7        0.7218    -7.1359     8.0337  H       1  <O>11       0.0618
  33 H8       -0.0265    -5.3360     9.4795  H       1  <O>11       0.0618
  34 H9        0.0974    -3.0438     8.6951  H       1  <O>11       0.0626
  35 H10       5.4267    -7.3386     0.2313  H       1  <O>11       0.0626
  36 H11       6.0793    -9.4086    -0.8560  H       1  <O>11       0.0646
  37 H12       4.5545    -7.9734    -4.5022  H       1  <O>11       0.0646
  38 H13       3.8899    -5.9069    -3.4254  H       1  <O>11       0.0626
@<TRIPOS>BOND
     1     1     2    2
     2     2     3    1
     3     3     4    1
     4     4     5   ar
     5     5     6   ar
     6     6     7   ar
     7     7     8   ar
     8     8     9   ar
     9     9    10   ar
    10    10    11   ar
    11     6    11   ar
    12    11    12   ar
    13    12    13    2
    14    12    14   ar
    15     4    14   ar
    16     2    15   am
    17    15    16    1
    18    16    17   am
    19    17    18    2
    20    17    19    1
    21    19    20   ar
    22    20    21   ar
    23    21    22   ar
    24    22    23    1
    25    22    24   ar
    26    24    25   ar
    27    19    25   ar
    28     3    26    1
    29     3    27    1
    30    14    28    1
    31    15    29    1
    32    16    30    1
    33     7    31    1
    34     8    32    1
    35     9    33    1
    36    10    34    1
    37    20    35    1
    38    21    36    1
    39    24    37    1
    40    25    38    1
@<TRIPOS>MOLECULE
mol66_1_21
 38 40 0 0 0
SMALL
USER_CHARGES
****
VDW energy = -120.17
@<TRIPOS>ATOM
   1 O1        2.6902    -5.1277     2.8674  O.2     1  <O>11      -0.2738
   2 C1        2.8397    -4.0645     2.2839  C.2     1  <O>11       0.2364
   3 C2        2.4540    -2.7870     2.9510  C.3     1  <O>11       0.0835
   4 C3        1.9230    -3.0750     4.2970  C.ar    1  <O>11       0.1192
   5 N1        1.8510    -4.3460     4.7350  N.ar    1  <O>11      -0.2332
   6 C4        1.3610    -4.5620     5.9630  C.ar    1  <O>11       0.0782
   7 C5        1.2770    -5.8650     6.4390  C.ar    1  <O>11      -0.0355
   8 C6        0.7740    -6.1570     7.7110  C.ar    1  <O>11      -0.0597
   9 C7        0.3440    -5.1280     8.5390  C.ar    1  <O>11      -0.0609
  10 C8        0.4170    -3.8140     8.0870  C.ar    1  <O>11      -0.0474
  11 C9        0.9270    -3.5270     6.7960  C.ar    1  <O>11       0.0647
  12 C10       1.0460    -2.2540     6.2410  C.ar    1  <O>11       0.2592
  13 O2        0.6160    -1.1860     7.0510  O.2     1  <O>11      -0.2672
  14 N2        1.5370    -2.0110     5.0100  N.ar    1  <O>11      -0.3100
  15 N3        3.3610    -4.0460     1.0180  N.am    1  <O>11      -0.2338
  16 N4        3.5291    -2.8514     0.3617  N.am    1  <O>11      -0.2304
  17 C11       4.0500    -2.8334    -0.9048  C.2     1  <O>11       0.2601
  18 O3        4.3656    -3.8809    -1.4500  O.2     1  <O>11      -0.2687
  19 C12       4.2264    -1.5658    -1.6011  C.ar    1  <O>11       0.0383
  20 C13       5.4308    -0.8524    -1.4776  C.ar    1  <O>11      -0.0469
  21 C14       5.5962     0.3714    -2.1353  C.ar    1  <O>11      -0.0257
  22 C15       4.5643     0.8922    -2.9224  C.ar    1  <O>11       0.1234
  23 F1        4.7186     2.0919    -3.5683  F       1  <O>11      -0.2055
  24 C16       3.3677     0.1777    -3.0496  C.ar    1  <O>11      -0.0257
  25 C17       3.1956    -1.0456    -2.3992  C.ar    1  <O>11      -0.0469
  26 H1        3.3300    -2.1430     3.0360  H       1  <O>11       0.0438
  27 H2        1.6900    -2.2840     2.3590  H       1  <O>11       0.0438
  28 H3        1.6300    -1.0930     4.6000  H       1  <O>11       0.1701
  29 H4        3.6243    -4.9202     0.5622  H       1  <O>11       0.1728
  30 H5        3.2658    -1.9772     0.8161  H       1  <O>11       0.1731
  31 H6        1.5951    -6.6399     5.8362  H       1  <O>11       0.0639
  32 H7        0.7224    -7.1358     8.0340  H       1  <O>11       0.0618
  33 H8       -0.0258    -5.3359     9.4798  H       1  <O>11       0.0618
  34 H9        0.0979    -3.0438     8.6953  H       1  <O>11       0.0626
  35 H10       6.1965    -1.2328    -0.8995  H       1  <O>11       0.0626
  36 H11       6.4824     0.8914    -2.0392  H       1  <O>11       0.0646
  37 H12       2.6045     0.5591    -3.6302  H       1  <O>11       0.0646
  38 H13       2.3113    -1.5669    -2.5051  H       1  <O>11       0.0626
@<TRIPOS>BOND
     1     1     2    2
     2     2     3    1
     3     3     4    1
     4     4     5   ar
     5     5     6   ar
     6     6     7   ar
     7     7     8   ar
     8     8     9   ar
     9     9    10   ar
    10    10    11   ar
    11     6    11   ar
    12    11    12   ar
    13    12    13    2
    14    12    14   ar
    15     4    14   ar
    16     2    15   am
    17    15    16    1
    18    16    17   am
    19    17    18    2
    20    17    19    1
    21    19    20   ar
    22    20    21   ar
    23    21    22   ar
    24    22    23    1
    25    22    24   ar
    26    24    25   ar
    27    19    25   ar
    28     3    26    1
    29     3    27    1
    30    14    28    1
    31    15    29    1
    32    16    30    1
    33     7    31    1
    34     8    32    1
    35     9    33    1
    36    10    34    1
    37    20    35    1
    38    21    36    1
    39    24    37    1
    40    25    38    1
@<TRIPOS>MOLECULE
mol66_1_22
 38 40 0 0 0
SMALL
USER_CHARGES
****
VDW energy = -117.77
@<TRIPOS>ATOM
   1 O1        2.6902    -5.1277     2.8674  O.2     1  <O>11      -0.2738
   2 C1        2.8397    -4.0645     2.2839  C.2     1  <O>11       0.2364
   3 C2        2.4540    -2.7870     2.9510  C.3     1  <O>11       0.0835
   4 C3        1.9230    -3.0750     4.2970  C.ar    1  <O>11       0.1192
   5 N1        1.8510    -4.3460     4.7350  N.ar    1  <O>11      -0.2332
   6 C4        1.3610    -4.5620     5.9630  C.ar    1  <O>11       0.0782
   7 C5        1.2770    -5.8650     6.4390  C.ar    1  <O>11      -0.0355
   8 C6        0.7740    -6.1570     7.7110  C.ar    1  <O>11      -0.0597
   9 C7        0.3440    -5.1280     8.5390  C.ar    1  <O>11      -0.0609
  10 C8        0.4170    -3.8140     8.0870  C.ar    1  <O>11      -0.0474
  11 C9        0.9270    -3.5270     6.7960  C.ar    1  <O>11       0.0647
  12 C10       1.0460    -2.2540     6.2410  C.ar    1  <O>11       0.2592
  13 O2        0.6160    -1.1860     7.0510  O.2     1  <O>11      -0.2672
  14 N2        1.5370    -2.0110     5.0100  N.ar    1  <O>11      -0.3100
  15 N3        3.3610    -4.0460     1.0180  N.am    1  <O>11      -0.2338
  16 N4        3.7160    -5.2220     0.4040  N.am    1  <O>11      -0.2304
  17 C11       4.2380    -5.2030    -0.8620  C.2     1  <O>11       0.2601
  18 O3        4.3870    -4.1390    -1.4450  O.2     1  <O>11      -0.2687
  19 C12       4.6160    -6.4510    -1.5120  C.ar    1  <O>11       0.0383
  20 C13       5.1520    -6.4380    -2.8110  C.ar    1  <O>11      -0.0469
  21 C14       5.5030    -7.6370    -3.4410  C.ar    1  <O>11      -0.0257
  22 C15       5.3250    -8.8570    -2.7810  C.ar    1  <O>11       0.1234
  23 F1        5.6650   -10.0360    -3.3930  F       1  <O>11      -0.2055
  24 C16       4.7970    -8.8680    -1.4850  C.ar    1  <O>11      -0.0257
  25 C17       4.4470    -7.6760    -0.8480  C.ar    1  <O>11      -0.0469
  26 H1        3.3300    -2.1430     3.0360  H       1  <O>11       0.0438
  27 H2        1.6900    -2.2840     2.3590  H       1  <O>11       0.0438
  28 H3        1.6300    -1.0930     4.6000  H       1  <O>11       0.1701
  29 H4        3.4860    -3.1580     0.5310  H       1  <O>11       0.1728
  30 H5        3.5920    -6.1100     0.8900  H       1  <O>11       0.1731
  31 H6        1.5951    -6.6399     5.8362  H       1  <O>11       0.0639
  32 H7        0.7224    -7.1358     8.0340  H       1  <O>11       0.0618
  33 H8       -0.0258    -5.3359     9.4798  H       1  <O>11       0.0618
  34 H9        0.0979    -3.0438     8.6953  H       1  <O>11       0.0626
  35 H10       5.2873    -5.5405    -3.3022  H       1  <O>11       0.0626
  36 H11       5.8945    -7.6210    -4.3957  H       1  <O>11       0.0646
  37 H12       4.6650    -9.7666    -0.9950  H       1  <O>11       0.0646
  38 H13       4.0644    -7.6955     0.1102  H       1  <O>11       0.0626
@<TRIPOS>BOND
     1     1     2    2
     2     2     3    1
     3     3     4    1
     4     4     5   ar
     5     5     6   ar
     6     6     7   ar
     7     7     8   ar
     8     8     9   ar
     9     9    10   ar
    10    10    11   ar
    11     6    11   ar
    12    11    12   ar
    13    12    13    2
    14    12    14   ar
    15     4    14   ar
    16     2    15   am
    17    15    16    1
    18    16    17   am
    19    17    18    2
    20    17    19    1
    21    19    20   ar
    22    20    21   ar
    23    21    22   ar
    24    22    23    1
    25    22    24   ar
    26    24    25   ar
    27    19    25   ar
    28     3    26    1
    29     3    27    1
    30    14    28    1
    31    15    29    1
    32    16    30    1
    33     7    31    1
    34     8    32    1
    35     9    33    1
    36    10    34    1
    37    20    35    1
    38    21    36    1
    39    24    37    1
    40    25    38    1
@<TRIPOS>MOLECULE
mol66_1_23
 38 40 0 0 0
SMALL
USER_CHARGES
****
VDW energy = -117.71
@<TRIPOS>ATOM
   1 O1        2.6902    -5.1277     2.8674  O.2     1  <O>11      -0.2738
   2 C1        2.8397    -4.0645     2.2839  C.2     1  <O>11       0.2364
   3 C2        2.4540    -2.7870     2.9510  C.3     1  <O>11       0.0835
   4 C3        1.9230    -3.0750     4.2970  C.ar    1  <O>11       0.1192
   5 N1        1.8510    -4.3460     4.7350  N.ar    1  <O>11      -0.2332
   6 C4        1.3610    -4.5620     5.9630  C.ar    1  <O>11       0.0782
   7 C5        1.2770    -5.8650     6.4390  C.ar    1  <O>11      -0.0355
   8 C6        0.7740    -6.1570     7.7110  C.ar    1  <O>11      -0.0597
   9 C7        0.3440    -5.1280     8.5390  C.ar    1  <O>11      -0.0609
  10 C8        0.4170    -3.8140     8.0870  C.ar    1  <O>11      -0.0474
  11 C9        0.9270    -3.5270     6.7960  C.ar    1  <O>11       0.0647
  12 C10       1.0460    -2.2540     6.2410  C.ar    1  <O>11       0.2592
  13 O2        0.6160    -1.1860     7.0510  O.2     1  <O>11      -0.2672
  14 N2        1.5370    -2.0110     5.0100  N.ar    1  <O>11      -0.3100
  15 N3        3.3610    -4.0460     1.0180  N.am    1  <O>11      -0.2338
  16 N4        3.5291    -2.8514     0.3617  N.am    1  <O>11      -0.2304
  17 C11       4.0500    -2.8334    -0.9048  C.2     1  <O>11       0.2601
  18 O3        4.3656    -3.8809    -1.4500  O.2     1  <O>11      -0.2687
  19 C12       4.2264    -1.5658    -1.6011  C.ar    1  <O>11       0.0383
  20 C13       3.2524    -0.5584    -1.4941  C.ar    1  <O>11      -0.0469
  21 C14       3.4146     0.6543    -2.1730  C.ar    1  <O>11      -0.0257
  22 C15       4.5490     0.8732    -2.9610  C.ar    1  <O>11       0.1234
  23 F1        4.7136     2.0584    -3.6306  F       1  <O>11      -0.2055
  24 C16       5.5211    -0.1285    -3.0616  C.ar    1  <O>11      -0.0257
  25 C17       5.3685    -1.3402    -2.3851  C.ar    1  <O>11      -0.0469
  26 H1        3.3300    -2.1430     3.0360  H       1  <O>11       0.0438
  27 H2        1.6900    -2.2840     2.3590  H       1  <O>11       0.0438
  28 H3        1.6300    -1.0930     4.6000  H       1  <O>11       0.1701
  29 H4        3.6243    -4.9202     0.5622  H       1  <O>11       0.1728
  30 H5        3.2658    -1.9772     0.8161  H       1  <O>11       0.1731
  31 H6        1.5951    -6.6399     5.8362  H       1  <O>11       0.0639
  32 H7        0.7224    -7.1358     8.0340  H       1  <O>11       0.0618
  33 H8       -0.0258    -5.3359     9.4798  H       1  <O>11       0.0618
  34 H9        0.0979    -3.0438     8.6953  H       1  <O>11       0.0626
  35 H10       2.4141    -0.7137    -0.9124  H       1  <O>11       0.0626
  36 H11       2.6950     1.3895    -2.0918  H       1  <O>11       0.0646
  37 H12       6.3597     0.0302    -3.6419  H       1  <O>11       0.0646
  38 H13       6.0947    -2.0693    -2.4614  H       1  <O>11       0.0626
@<TRIPOS>BOND
     1     1     2    2
     2     2     3    1
     3     3     4    1
     4     4     5   ar
     5     5     6   ar
     6     6     7   ar
     7     7     8   ar
     8     8     9   ar
     9     9    10   ar
    10    10    11   ar
    11     6    11   ar
    12    11    12   ar
    13    12    13    2
    14    12    14   ar
    15     4    14   ar
    16     2    15   am
    17    15    16    1
    18    16    17   am
    19    17    18    2
    20    17    19    1
    21    19    20   ar
    22    20    21   ar
    23    21    22   ar
    24    22    23    1
    25    22    24   ar
    26    24    25   ar
    27    19    25   ar
    28     3    26    1
    29     3    27    1
    30    14    28    1
    31    15    29    1
    32    16    30    1
    33     7    31    1
    34     8    32    1
    35     9    33    1
    36    10    34    1
    37    20    35    1
    38    21    36    1
    39    24    37    1
    40    25    38    1
@<TRIPOS>MOLECULE
mol66_1_24
 38 40 0 0 0
SMALL
USER_CHARGES
****
VDW energy = -113.50
@<TRIPOS>ATOM
   1 O1        2.6902    -5.1277     2.8674  O.2     1  <O>11      -0.2738
   2 C1        2.8397    -4.0645     2.2839  C.2     1  <O>11       0.2364
   3 C2        2.4540    -2.7870     2.9510  C.3     1  <O>11       0.0835
   4 C3        1.9230    -3.0750     4.2970  C.ar    1  <O>11       0.1192
   5 N1        1.8510    -4.3460     4.7350  N.ar    1  <O>11      -0.2332
   6 C4        1.3610    -4.5620     5.9630  C.ar    1  <O>11       0.0782
   7 C5        1.2770    -5.8650     6.4390  C.ar    1  <O>11      -0.0355
   8 C6        0.7740    -6.1570     7.7110  C.ar    1  <O>11      -0.0597
   9 C7        0.3440    -5.1280     8.5390  C.ar    1  <O>11      -0.0609
  10 C8        0.4170    -3.8140     8.0870  C.ar    1  <O>11      -0.0474
  11 C9        0.9270    -3.5270     6.7960  C.ar    1  <O>11       0.0647
  12 C10       1.0460    -2.2540     6.2410  C.ar    1  <O>11       0.2592
  13 O2        0.6160    -1.1860     7.0510  O.2     1  <O>11      -0.2672
  14 N2        1.5370    -2.0110     5.0100  N.ar    1  <O>11      -0.3100
  15 N3        3.3610    -4.0460     1.0180  N.am    1  <O>11      -0.2338
  16 N4        3.5291    -2.8514     0.3617  N.am    1  <O>11      -0.2304
  17 C11       4.0500    -2.8334    -0.9048  C.2     1  <O>11       0.2601
  18 O3        4.3656    -3.8809    -1.4500  O.2     1  <O>11      -0.2687
  19 C12       4.2264    -1.5658    -1.6011  C.ar    1  <O>11       0.0383
  20 C13       4.7605    -1.5408    -2.9007  C.ar    1  <O>11      -0.0469
  21 C14       4.9424    -0.3229    -3.5649  C.ar    1  <O>11      -0.0257
  22 C15       4.5916     0.8784    -2.9407  C.ar    1  <O>11       0.1234
  23 F1        4.7689     2.0757    -3.5850  F       1  <O>11      -0.2055
  24 C16       4.0539     0.8515    -1.6490  C.ar    1  <O>11      -0.0257
  25 C17       3.8663    -0.3595    -0.9802  C.ar    1  <O>11      -0.0469
  26 H1        3.3300    -2.1430     3.0360  H       1  <O>11       0.0438
  27 H2        1.6900    -2.2840     2.3590  H       1  <O>11       0.0438
  28 H3        1.6300    -1.0930     4.6000  H       1  <O>11       0.1701
  29 H4        3.6243    -4.9202     0.5622  H       1  <O>11       0.1728
  30 H5        3.2658    -1.9772     0.8161  H       1  <O>11       0.1731
  31 H6        1.5951    -6.6399     5.8362  H       1  <O>11       0.0639
  32 H7        0.7224    -7.1358     8.0340  H       1  <O>11       0.0618
  33 H8       -0.0258    -5.3359     9.4798  H       1  <O>11       0.0618
  34 H9        0.0979    -3.0438     8.6953  H       1  <O>11       0.0626
  35 H10       5.0195    -2.4243    -3.3669  H       1  <O>11       0.0626
  36 H11       5.3368    -0.3110    -4.5185  H       1  <O>11       0.0646
  37 H12       3.7934     1.7362    -1.1858  H       1  <O>11       0.0646
  38 H13       3.4631    -0.3679    -0.0303  H       1  <O>11       0.0626
@<TRIPOS>BOND
     1     1     2    2
     2     2     3    1
     3     3     4    1
     4     4     5   ar
     5     5     6   ar
     6     6     7   ar
     7     7     8   ar
     8     8     9   ar
     9     9    10   ar
    10    10    11   ar
    11     6    11   ar
    12    11    12   ar
    13    12    13    2
    14    12    14   ar
    15     4    14   ar
    16     2    15   am
    17    15    16    1
    18    16    17   am
    19    17    18    2
    20    17    19    1
    21    19    20   ar
    22    20    21   ar
    23    21    22   ar
    24    22    23    1
    25    22    24   ar
    26    24    25   ar
    27    19    25   ar
    28     3    26    1
    29     3    27    1
    30    14    28    1
    31    15    29    1
    32    16    30    1
    33     7    31    1
    34     8    32    1
    35     9    33    1
    36    10    34    1
    37    20    35    1
    38    21    36    1
    39    24    37    1
    40    25    38    1
@<TRIPOS>MOLECULE
mol66_1_25
 38 40 0 0 0
SMALL
USER_CHARGES
****
VDW energy = -110.14
@<TRIPOS>ATOM
   1 O1        2.6902    -5.1277     2.8674  O.2     1  <O>11      -0.2738
   2 C1        2.8397    -4.0645     2.2839  C.2     1  <O>11       0.2364
   3 C2        2.4540    -2.7870     2.9510  C.3     1  <O>11       0.0835
   4 C3        1.9230    -3.0750     4.2970  C.ar    1  <O>11       0.1192
   5 N1        1.8510    -4.3460     4.7350  N.ar    1  <O>11      -0.2332
   6 C4        1.3610    -4.5620     5.9630  C.ar    1  <O>11       0.0782
   7 C5        1.2770    -5.8650     6.4390  C.ar    1  <O>11      -0.0355
   8 C6        0.7740    -6.1570     7.7110  C.ar    1  <O>11      -0.0597
   9 C7        0.3440    -5.1280     8.5390  C.ar    1  <O>11      -0.0609
  10 C8        0.4170    -3.8140     8.0870  C.ar    1  <O>11      -0.0474
  11 C9        0.9270    -3.5270     6.7960  C.ar    1  <O>11       0.0647
  12 C10       1.0460    -2.2540     6.2410  C.ar    1  <O>11       0.2592
  13 O2        0.6160    -1.1860     7.0510  O.2     1  <O>11      -0.2672
  14 N2        1.5370    -2.0110     5.0100  N.ar    1  <O>11      -0.3100
  15 N3        3.3610    -4.0460     1.0180  N.am    1  <O>11      -0.2338
  16 N4        3.5291    -2.8514     0.3617  N.am    1  <O>11      -0.2304
  17 C11       4.3405    -1.8855     0.8949  C.2     1  <O>11       0.2601
  18 O3        4.9141    -2.0872     1.9553  O.2     1  <O>11      -0.2687
  19 C12       4.5196    -0.6191     0.1970  C.ar    1  <O>11       0.0383
  20 C13       4.6394    -0.5936    -1.2029  C.ar    1  <O>11      -0.0469
  21 C14       4.8247     0.6207    -1.8728  C.ar    1  <O>11      -0.0257
  22 C15       4.8895     1.8183    -1.1535  C.ar    1  <O>11       0.1234
  23 F1        5.0728     3.0118    -1.8032  F       1  <O>11      -0.2055
  24 C16       4.7638     1.7921     0.2400  C.ar    1  <O>11      -0.0257
  25 C17       4.5757     0.5851     0.9159  C.ar    1  <O>11      -0.0469
  26 H1        3.3300    -2.1430     3.0360  H       1  <O>11       0.0438
  27 H2        1.6900    -2.2840     2.3590  H       1  <O>11       0.0438
  28 H3        1.6300    -1.0930     4.6000  H       1  <O>11       0.1701
  29 H4        3.6243    -4.9202     0.5622  H       1  <O>11       0.1728
  30 H5        3.0508    -2.6827    -0.5231  H       1  <O>11       0.1731
  31 H6        1.5951    -6.6399     5.8362  H       1  <O>11       0.0639
  32 H7        0.7224    -7.1358     8.0340  H       1  <O>11       0.0618
  33 H8       -0.0258    -5.3359     9.4798  H       1  <O>11       0.0618
  34 H9        0.0979    -3.0438     8.6953  H       1  <O>11       0.0626
  35 H10       4.5904    -1.4741    -1.7391  H       1  <O>11       0.0626
  36 H11       4.9137     0.6327    -2.9008  H       1  <O>11       0.0646
  37 H12       4.8106     2.6742     0.7737  H       1  <O>11       0.0646
  38 H13       4.4779     0.5782     1.9432  H       1  <O>11       0.0626
@<TRIPOS>BOND
     1     1     2    2
     2     2     3    1
     3     3     4    1
     4     4     5   ar
     5     5     6   ar
     6     6     7   ar
     7     7     8   ar
     8     8     9   ar
     9     9    10   ar
    10    10    11   ar
    11     6    11   ar
    12    11    12   ar
    13    12    13    2
    14    12    14   ar
    15     4    14   ar
    16     2    15   am
    17    15    16    1
    18    16    17   am
    19    17    18    2
    20    17    19    1
    21    19    20   ar
    22    20    21   ar
    23    21    22   ar
    24    22    23    1
    25    22    24   ar
    26    24    25   ar
    27    19    25   ar
    28     3    26    1
    29     3    27    1
    30    14    28    1
    31    15    29    1
    32    16    30    1
    33     7    31    1
    34     8    32    1
    35     9    33    1
    36    10    34    1
    37    20    35    1
    38    21    36    1
    39    24    37    1
    40    25    38    1
@<TRIPOS>MOLECULE
mol66_1_26
 38 40 0 0 0
SMALL
USER_CHARGES
****
VDW energy = -108.79
@<TRIPOS>ATOM
   1 O1        2.6902    -5.1277     2.8674  O.2     1  <O>11      -0.2738
   2 C1        2.8397    -4.0645     2.2839  C.2     1  <O>11       0.2364
   3 C2        2.4540    -2.7870     2.9510  C.3     1  <O>11       0.0835
   4 C3        1.9230    -3.0750     4.2970  C.ar    1  <O>11       0.1192
   5 N1        1.8510    -4.3460     4.7350  N.ar    1  <O>11      -0.2332
   6 C4        1.3610    -4.5620     5.9630  C.ar    1  <O>11       0.0782
   7 C5        1.2770    -5.8650     6.4390  C.ar    1  <O>11      -0.0355
   8 C6        0.7740    -6.1570     7.7110  C.ar    1  <O>11      -0.0597
   9 C7        0.3440    -5.1280     8.5390  C.ar    1  <O>11      -0.0609
  10 C8        0.4170    -3.8140     8.0870  C.ar    1  <O>11      -0.0474
  11 C9        0.9270    -3.5270     6.7960  C.ar    1  <O>11       0.0647
  12 C10       1.0460    -2.2540     6.2410  C.ar    1  <O>11       0.2592
  13 O2        0.6160    -1.1860     7.0510  O.2     1  <O>11      -0.2672
  14 N2        1.5370    -2.0110     5.0100  N.ar    1  <O>11      -0.3100
  15 N3        3.3610    -4.0460     1.0180  N.am    1  <O>11      -0.2338
  16 N4        3.7160    -5.2220     0.4040  N.am    1  <O>11      -0.2304
  17 C11       2.7744    -6.1925     0.1870  C.2     1  <O>11       0.2601
  18 O3        1.6184    -6.0116     0.5408  O.2     1  <O>11      -0.2687
  19 C12       3.1516    -7.4392    -0.4660  C.ar    1  <O>11       0.0383
  20 C13       4.0525    -7.4285    -1.5445  C.ar    1  <O>11      -0.0469
  21 C14       4.4050    -8.6238    -2.1807  C.ar    1  <O>11      -0.0257
  22 C15       3.8649    -9.8382    -1.7458  C.ar    1  <O>11       0.1234
  23 F1        4.2044   -11.0132    -2.3658  F       1  <O>11      -0.2055
  24 C16       2.9727    -9.8481    -0.6676  C.ar    1  <O>11      -0.0257
  25 C17       2.6180    -8.6603    -0.0253  C.ar    1  <O>11      -0.0469
  26 H1        3.3300    -2.1430     3.0360  H       1  <O>11       0.0438
  27 H2        1.6900    -2.2840     2.3590  H       1  <O>11       0.0438
  28 H3        1.6300    -1.0930     4.6000  H       1  <O>11       0.1701
  29 H4        3.4860    -3.1580     0.5310  H       1  <O>11       0.1728
  30 H5        4.6803    -5.3735     0.1086  H       1  <O>11       0.1731
  31 H6        1.5951    -6.6399     5.8362  H       1  <O>11       0.0639
  32 H7        0.7224    -7.1358     8.0340  H       1  <O>11       0.0618
  33 H8       -0.0258    -5.3359     9.4798  H       1  <O>11       0.0618
  34 H9        0.0979    -3.0438     8.6953  H       1  <O>11       0.0626
  35 H10       4.4556    -6.5354    -1.8686  H       1  <O>11       0.0626
  36 H11       5.0657    -8.6091    -2.9733  H       1  <O>11       0.0646
  37 H12       2.5729   -10.7427    -0.3439  H       1  <O>11       0.0646
  38 H13       1.9641    -8.6801     0.7727  H       1  <O>11       0.0626
@<TRIPOS>BOND
     1     1     2    2
     2     2     3    1
     3     3     4    1
     4     4     5   ar
     5     5     6   ar
     6     6     7   ar
     7     7     8   ar
     8     8     9   ar
     9     9    10   ar
    10    10    11   ar
    11     6    11   ar
    12    11    12   ar
    13    12    13    2
    14    12    14   ar
    15     4    14   ar
    16     2    15   am
    17    15    16    1
    18    16    17   am
    19    17    18    2
    20    17    19    1
    21    19    20   ar
    22    20    21   ar
    23    21    22   ar
    24    22    23    1
    25    22    24   ar
    26    24    25   ar
    27    19    25   ar
    28     3    26    1
    29     3    27    1
    30    14    28    1
    31    15    29    1
    32    16    30    1
    33     7    31    1
    34     8    32    1
    35     9    33    1
    36    10    34    1
    37    20    35    1
    38    21    36    1
    39    24    37    1
    40    25    38    1
@<TRIPOS>MOLECULE
mol66_1_27
 38 40 0 0 0
SMALL
USER_CHARGES
****
VDW energy = -105.72
@<TRIPOS>ATOM
   1 O1        2.6902    -5.1277     2.8674  O.2     1  <O>11      -0.2738
   2 C1        2.8397    -4.0645     2.2839  C.2     1  <O>11       0.2364
   3 C2        2.4540    -2.7870     2.9510  C.3     1  <O>11       0.0835
   4 C3        1.9230    -3.0750     4.2970  C.ar    1  <O>11       0.1192
   5 N1        1.8510    -4.3460     4.7350  N.ar    1  <O>11      -0.2332
   6 C4        1.3610    -4.5620     5.9630  C.ar    1  <O>11       0.0782
   7 C5        1.2770    -5.8650     6.4390  C.ar    1  <O>11      -0.0355
   8 C6        0.7740    -6.1570     7.7110  C.ar    1  <O>11      -0.0597
   9 C7        0.3440    -5.1280     8.5390  C.ar    1  <O>11      -0.0609
  10 C8        0.4170    -3.8140     8.0870  C.ar    1  <O>11      -0.0474
  11 C9        0.9270    -3.5270     6.7960  C.ar    1  <O>11       0.0647
  12 C10       1.0460    -2.2540     6.2410  C.ar    1  <O>11       0.2592
  13 O2        0.6160    -1.1860     7.0510  O.2     1  <O>11      -0.2672
  14 N2        1.5370    -2.0110     5.0100  N.ar    1  <O>11      -0.3100
  15 N3        3.3610    -4.0460     1.0180  N.am    1  <O>11      -0.2338
  16 N4        3.5291    -2.8514     0.3617  N.am    1  <O>11      -0.2304
  17 C11       2.4477    -2.0487     0.1131  C.2     1  <O>11       0.2601
  18 O3        1.3332    -2.3965     0.4751  O.2     1  <O>11      -0.2687
  19 C12       2.6272    -0.7807    -0.5818  C.ar    1  <O>11       0.0383
  20 C13       1.5214     0.0473    -0.8399  C.ar    1  <O>11      -0.0469
  21 C14       1.6910     1.2589    -1.5187  C.ar    1  <O>11      -0.0257
  22 C15       2.9631     1.6557    -1.9430  C.ar    1  <O>11       0.1234
  23 F1        3.1365     2.8409    -2.6104  F       1  <O>11      -0.2055
  24 C16       4.0643     0.8332    -1.6797  C.ar    1  <O>11      -0.0257
  25 C17       3.9043    -0.3759    -1.0003  C.ar    1  <O>11      -0.0469
  26 H1        3.3300    -2.1430     3.0360  H       1  <O>11       0.0438
  27 H2        1.6900    -2.2840     2.3590  H       1  <O>11       0.0438
  28 H3        1.6300    -1.0930     4.6000  H       1  <O>11       0.1701
  29 H4        3.6243    -4.9202     0.5622  H       1  <O>11       0.1728
  30 H5        4.4588    -2.5607     0.0595  H       1  <O>11       0.1731
  31 H6        1.5951    -6.6399     5.8362  H       1  <O>11       0.0639
  32 H7        0.7224    -7.1358     8.0340  H       1  <O>11       0.0618
  33 H8       -0.0258    -5.3359     9.4798  H       1  <O>11       0.0618
  34 H9        0.0979    -3.0438     8.6953  H       1  <O>11       0.0626
  35 H10       0.5806    -0.2396    -0.5275  H       1  <O>11       0.0626
  36 H11       0.8748     1.8617    -1.7069  H       1  <O>11       0.0646
  37 H12       5.0045     1.1234    -1.9909  H       1  <O>11       0.0646
  38 H13       4.7243    -0.9716    -0.8060  H       1  <O>11       0.0626
@<TRIPOS>BOND
     1     1     2    2
     2     2     3    1
     3     3     4    1
     4     4     5   ar
     5     5     6   ar
     6     6     7   ar
     7     7     8   ar
     8     8     9   ar
     9     9    10   ar
    10    10    11   ar
    11     6    11   ar
    12    11    12   ar
    13    12    13    2
    14    12    14   ar
    15     4    14   ar
    16     2    15   am
    17    15    16    1
    18    16    17   am
    19    17    18    2
    20    17    19    1
    21    19    20   ar
    22    20    21   ar
    23    21    22   ar
    24    22    23    1
    25    22    24   ar
    26    24    25   ar
    27    19    25   ar
    28     3    26    1
    29     3    27    1
    30    14    28    1
    31    15    29    1
    32    16    30    1
    33     7    31    1
    34     8    32    1
    35     9    33    1
    36    10    34    1
    37    20    35    1
    38    21    36    1
    39    24    37    1
    40    25    38    1
@<TRIPOS>MOLECULE
mol66_1_28
 38 40 0 0 0
SMALL
USER_CHARGES
****
VDW energy = -105.66
@<TRIPOS>ATOM
   1 O1        2.6902    -5.1277     2.8674  O.2     1  <O>11      -0.2738
   2 C1        2.8397    -4.0645     2.2839  C.2     1  <O>11       0.2364
   3 C2        2.4540    -2.7870     2.9510  C.3     1  <O>11       0.0835
   4 C3        1.9230    -3.0750     4.2970  C.ar    1  <O>11       0.1192
   5 N1        1.8510    -4.3460     4.7350  N.ar    1  <O>11      -0.2332
   6 C4        1.3610    -4.5620     5.9630  C.ar    1  <O>11       0.0782
   7 C5        1.2770    -5.8650     6.4390  C.ar    1  <O>11      -0.0355
   8 C6        0.7740    -6.1570     7.7110  C.ar    1  <O>11      -0.0597
   9 C7        0.3440    -5.1280     8.5390  C.ar    1  <O>11      -0.0609
  10 C8        0.4170    -3.8140     8.0870  C.ar    1  <O>11      -0.0474
  11 C9        0.9270    -3.5270     6.7960  C.ar    1  <O>11       0.0647
  12 C10       1.0460    -2.2540     6.2410  C.ar    1  <O>11       0.2592
  13 O2        0.6160    -1.1860     7.0510  O.2     1  <O>11      -0.2672
  14 N2        1.5370    -2.0110     5.0100  N.ar    1  <O>11      -0.3100
  15 N3        3.3610    -4.0460     1.0180  N.am    1  <O>11      -0.2338
  16 N4        3.5291    -2.8514     0.3617  N.am    1  <O>11      -0.2304
  17 C11       4.3405    -1.8855     0.8949  C.2     1  <O>11       0.2601
  18 O3        4.9141    -2.0872     1.9553  O.2     1  <O>11      -0.2687
  19 C12       4.5196    -0.6191     0.1970  C.ar    1  <O>11       0.0383
  20 C13       5.3509     0.3759     0.7391  C.ar    1  <O>11      -0.0469
  21 C14       5.5131     1.5974     0.0762  C.ar    1  <O>11      -0.0257
  22 C15       4.8507     1.8356    -1.1322  C.ar    1  <O>11       0.1234
  23 F1        5.0036     3.0309    -1.7863  F       1  <O>11      -0.2055
  24 C16       4.0282     0.8414    -1.6740  C.ar    1  <O>11      -0.0257
  25 C17       3.8633    -0.3813    -1.0206  C.ar    1  <O>11      -0.0469
  26 H1        3.3300    -2.1430     3.0360  H       1  <O>11       0.0438
  27 H2        1.6900    -2.2840     2.3590  H       1  <O>11       0.0438
  28 H3        1.6300    -1.0930     4.6000  H       1  <O>11       0.1701
  29 H4        3.6243    -4.9202     0.5622  H       1  <O>11       0.1728
  30 H5        3.0508    -2.6827    -0.5231  H       1  <O>11       0.1731
  31 H6        1.5951    -6.6399     5.8362  H       1  <O>11       0.0639
  32 H7        0.7224    -7.1358     8.0340  H       1  <O>11       0.0618
  33 H8       -0.0258    -5.3359     9.4798  H       1  <O>11       0.0618
  34 H9        0.0979    -3.0438     8.6953  H       1  <O>11       0.0626
  35 H10       5.8436     0.2050     1.6296  H       1  <O>11       0.0626
  36 H11       6.1235     2.3248     0.4803  H       1  <O>11       0.0646
  37 H12       3.5385     1.0138    -2.5659  H       1  <O>11       0.0646
  38 H13       3.2593    -1.1096    -1.4325  H       1  <O>11       0.0626
@<TRIPOS>BOND
     1     1     2    2
     2     2     3    1
     3     3     4    1
     4     4     5   ar
     5     5     6   ar
     6     6     7   ar
     7     7     8   ar
     8     8     9   ar
     9     9    10   ar
    10    10    11   ar
    11     6    11   ar
    12    11    12   ar
    13    12    13    2
    14    12    14   ar
    15     4    14   ar
    16     2    15   am
    17    15    16    1
    18    16    17   am
    19    17    18    2
    20    17    19    1
    21    19    20   ar
    22    20    21   ar
    23    21    22   ar
    24    22    23    1
    25    22    24   ar
    26    24    25   ar
    27    19    25   ar
    28     3    26    1
    29     3    27    1
    30    14    28    1
    31    15    29    1
    32    16    30    1
    33     7    31    1
    34     8    32    1
    35     9    33    1
    36    10    34    1
    37    20    35    1
    38    21    36    1
    39    24    37    1
    40    25    38    1
@<TRIPOS>MOLECULE
mol66_1_29
 38 40 0 0 0
SMALL
USER_CHARGES
****
VDW energy = -104.54
@<TRIPOS>ATOM
   1 O1        2.6902    -5.1277     2.8674  O.2     1  <O>11      -0.2738
   2 C1        2.8397    -4.0645     2.2839  C.2     1  <O>11       0.2364
   3 C2        2.4540    -2.7870     2.9510  C.3     1  <O>11       0.0835
   4 C3        1.9230    -3.0750     4.2970  C.ar    1  <O>11       0.1192
   5 N1        1.8510    -4.3460     4.7350  N.ar    1  <O>11      -0.2332
   6 C4        1.3610    -4.5620     5.9630  C.ar    1  <O>11       0.0782
   7 C5        1.2770    -5.8650     6.4390  C.ar    1  <O>11      -0.0355
   8 C6        0.7740    -6.1570     7.7110  C.ar    1  <O>11      -0.0597
   9 C7        0.3440    -5.1280     8.5390  C.ar    1  <O>11      -0.0609
  10 C8        0.4170    -3.8140     8.0870  C.ar    1  <O>11      -0.0474
  11 C9        0.9270    -3.5270     6.7960  C.ar    1  <O>11       0.0647
  12 C10       1.0460    -2.2540     6.2410  C.ar    1  <O>11       0.2592
  13 O2        0.6160    -1.1860     7.0510  O.2     1  <O>11      -0.2672
  14 N2        1.5370    -2.0110     5.0100  N.ar    1  <O>11      -0.3100
  15 N3        3.3610    -4.0460     1.0180  N.am    1  <O>11      -0.2338
  16 N4        3.7160    -5.2220     0.4040  N.am    1  <O>11      -0.2304
  17 C11       4.6672    -6.0294     0.9689  C.2     1  <O>11       0.2601
  18 O3        5.2001    -5.7022     2.0192  O.2     1  <O>11      -0.2687
  19 C12       5.0419    -7.2777     0.3177  C.ar    1  <O>11       0.0383
  20 C13       6.0174    -8.1103     0.8923  C.ar    1  <O>11      -0.0469
  21 C14       6.3873    -9.3028     0.2609  C.ar    1  <O>11      -0.0257
  22 C15       5.7869    -9.6757    -0.9458  C.ar    1  <O>11       0.1234
  23 F1        6.1459   -10.8421    -1.5711  F       1  <O>11      -0.2055
  24 C16       4.8111    -8.8488    -1.5137  C.ar    1  <O>11      -0.0257
  25 C17       4.4339    -7.6587    -0.8887  C.ar    1  <O>11      -0.0469
  26 H1        3.3300    -2.1430     3.0360  H       1  <O>11       0.0438
  27 H2        1.6900    -2.2840     2.3590  H       1  <O>11       0.0438
  28 H3        1.6300    -1.0930     4.6000  H       1  <O>11       0.1701
  29 H4        3.4860    -3.1580     0.5310  H       1  <O>11       0.1728
  30 H5        3.2716    -5.4955    -0.4723  H       1  <O>11       0.1731
  31 H6        1.5951    -6.6399     5.8362  H       1  <O>11       0.0639
  32 H7        0.7224    -7.1358     8.0340  H       1  <O>11       0.0618
  33 H8       -0.0258    -5.3359     9.4798  H       1  <O>11       0.0618
  34 H9        0.0979    -3.0438     8.6953  H       1  <O>11       0.0626
  35 H10       6.4626    -7.8411     1.7836  H       1  <O>11       0.0626
  36 H11       7.1056    -9.9091     0.6869  H       1  <O>11       0.0646
  37 H12       4.3656    -9.1215    -2.4037  H       1  <O>11       0.0646
  38 H13       3.7087    -7.0597    -1.3132  H       1  <O>11       0.0626
@<TRIPOS>BOND
     1     1     2    2
     2     2     3    1
     3     3     4    1
     4     4     5   ar
     5     5     6   ar
     6     6     7   ar
     7     7     8   ar
     8     8     9   ar
     9     9    10   ar
    10    10    11   ar
    11     6    11   ar
    12    11    12   ar
    13    12    13    2
    14    12    14   ar
    15     4    14   ar
    16     2    15   am
    17    15    16    1
    18    16    17   am
    19    17    18    2
    20    17    19    1
    21    19    20   ar
    22    20    21   ar
    23    21    22   ar
    24    22    23    1
    25    22    24   ar
    26    24    25   ar
    27    19    25   ar
    28     3    26    1
    29     3    27    1
    30    14    28    1
    31    15    29    1
    32    16    30    1
    33     7    31    1
    34     8    32    1
    35     9    33    1
    36    10    34    1
    37    20    35    1
    38    21    36    1
    39    24    37    1
    40    25    38    1
@<TRIPOS>MOLECULE
mol66_1_30
 38 40 0 0 0
SMALL
USER_CHARGES
****
VDW energy = -104.51
@<TRIPOS>ATOM
   1 O1        2.6902    -5.1277     2.8674  O.2     1  <O>11      -0.2738
   2 C1        2.8397    -4.0645     2.2839  C.2     1  <O>11       0.2364
   3 C2        2.4540    -2.7870     2.9510  C.3     1  <O>11       0.0835
   4 C3        1.9230    -3.0750     4.2970  C.ar    1  <O>11       0.1192
   5 N1        1.8510    -4.3460     4.7350  N.ar    1  <O>11      -0.2332
   6 C4        1.3610    -4.5620     5.9630  C.ar    1  <O>11       0.0782
   7 C5        1.2770    -5.8650     6.4390  C.ar    1  <O>11      -0.0355
   8 C6        0.7740    -6.1570     7.7110  C.ar    1  <O>11      -0.0597
   9 C7        0.3440    -5.1280     8.5390  C.ar    1  <O>11      -0.0609
  10 C8        0.4170    -3.8140     8.0870  C.ar    1  <O>11      -0.0474
  11 C9        0.9270    -3.5270     6.7960  C.ar    1  <O>11       0.0647
  12 C10       1.0460    -2.2540     6.2410  C.ar    1  <O>11       0.2592
  13 O2        0.6160    -1.1860     7.0510  O.2     1  <O>11      -0.2672
  14 N2        1.5370    -2.0110     5.0100  N.ar    1  <O>11      -0.3100
  15 N3        3.3610    -4.0460     1.0180  N.am    1  <O>11      -0.2338
  16 N4        3.7160    -5.2220     0.4040  N.am    1  <O>11      -0.2304
  17 C11       2.7744    -6.1925     0.1870  C.2     1  <O>11       0.2601
  18 O3        1.6184    -6.0116     0.5408  O.2     1  <O>11      -0.2687
  19 C12       3.1516    -7.4392    -0.4660  C.ar    1  <O>11       0.0383
  20 C13       2.1899    -8.4388    -0.6914  C.ar    1  <O>11      -0.0469
  21 C14       2.5540    -9.6416    -1.3066  C.ar    1  <O>11      -0.0257
  22 C15       3.8775    -9.8564    -1.7038  C.ar    1  <O>11       0.1234
  23 F1        4.2419   -11.0334    -2.3055  F       1  <O>11      -0.2055
  24 C16       4.8329    -8.8575    -1.4844  C.ar    1  <O>11      -0.0257
  25 C17       4.4774    -7.6532    -0.8740  C.ar    1  <O>11      -0.0469
  26 H1        3.3300    -2.1430     3.0360  H       1  <O>11       0.0438
  27 H2        1.6900    -2.2840     2.3590  H       1  <O>11       0.0438
  28 H3        1.6300    -1.0930     4.6000  H       1  <O>11       0.1701
  29 H4        3.4860    -3.1580     0.5310  H       1  <O>11       0.1728
  30 H5        4.6803    -5.3735     0.1086  H       1  <O>11       0.1731
  31 H6        1.5951    -6.6399     5.8362  H       1  <O>11       0.0639
  32 H7        0.7224    -7.1358     8.0340  H       1  <O>11       0.0618
  33 H8       -0.0258    -5.3359     9.4798  H       1  <O>11       0.0618
  34 H9        0.0979    -3.0438     8.6953  H       1  <O>11       0.0626
  35 H10       1.2113    -8.2851    -0.4021  H       1  <O>11       0.0626
  36 H11       1.8436   -10.3726    -1.4678  H       1  <O>11       0.0646
  37 H12       5.8103    -9.0126    -1.7769  H       1  <O>11       0.0646
  38 H13       5.1888    -6.9211    -0.7229  H       1  <O>11       0.0626
@<TRIPOS>BOND
     1     1     2    2
     2     2     3    1
     3     3     4    1
     4     4     5   ar
     5     5     6   ar
     6     6     7   ar
     7     7     8   ar
     8     8     9   ar
     9     9    10   ar
    10    10    11   ar
    11     6    11   ar
    12    11    12   ar
    13    12    13    2
    14    12    14   ar
    15     4    14   ar
    16     2    15   am
    17    15    16    1
    18    16    17   am
    19    17    18    2
    20    17    19    1
    21    19    20   ar
    22    20    21   ar
    23    21    22   ar
    24    22    23    1
    25    22    24   ar
    26    24    25   ar
    27    19    25   ar
    28     3    26    1
    29     3    27    1
    30    14    28    1
    31    15    29    1
    32    16    30    1
    33     7    31    1
    34     8    32    1
    35     9    33    1
    36    10    34    1
    37    20    35    1
    38    21    36    1
    39    24    37    1
    40    25    38    1
