@<TRIPOS>MOLECULE
mol62_1_1
 40 43 0 0 0
SMALL
USER_CHARGES
****
VDW energy = -26.44
@<TRIPOS>ATOM
   1 O1        2.0963     1.8046    -0.3877  O.2     1  <O>11      -0.2446
   2 C1        0.7771     1.3854    -0.6455  C.ar    1  <O>11       0.3487
   3 N1        0.1614     1.0457    -1.7625  N.ar    1  <O>11      -0.2263
   4 N2       -1.1399     0.7478    -1.4694  N.ar    1  <O>11      -0.1561
   5 C2       -1.3077     0.8947    -0.1743  C.ar    1  <O>11       0.1384
   6 N3       -0.1140     1.2800     0.4106  N.ar    1  <O>11      -0.2473
   7 C3        0.0822     1.4986     1.7975  C.ar    1  <O>11       0.0560
   8 C4        1.2445     1.0283     2.4216  C.ar    1  <O>11      -0.0339
   9 C5        1.4116     1.1983     3.7962  C.ar    1  <O>11      -0.0180
  10 C6        0.4251     1.8308     4.5488  C.ar    1  <O>11       0.1214
  11 O2        0.5950     1.9890     5.8950  O.3     1  <O>11      -0.4874
  12 C7        1.2467     3.2223     6.1479  C.3     1  <O>11       0.1147
  13 C8        1.4314     3.3941     7.6119  C.ar    1  <O>11      -0.0077
  14 C9        2.5964     2.9219     8.2413  C.ar    1  <O>11      -0.0552
  15 C10       2.7634     3.0735     9.6215  C.ar    1  <O>11      -0.0587
  16 C11       1.7750     3.6987    10.3853  C.ar    1  <O>11      -0.0264
  17 C12       0.6180     4.1738     9.7585  C.ar    1  <O>11       0.1238
  18 F1       -0.3495     4.7860    10.5126  F       1  <O>11      -0.2055
  19 C13       0.4428     4.0299     8.3818  C.ar    1  <O>11      -0.0201
  20 C14      -0.7340     2.3017     3.9316  C.ar    1  <O>11      -0.0148
  21 C15      -0.9228     2.1457     2.5507  C.ar    1  <O>11      -0.0199
  22 C16      -2.1357     2.7679     1.8974  C.3     1  <O>11      -0.0252
  23 C17      -3.1369     1.7651     1.3230  C.3     1  <O>11      -0.0421
  24 C18      -2.5288     0.5635     0.6057  C.3     1  <O>11       0.0081
  25 H1        0.5118     0.9887    -2.7081  H       1  <O>11       0.1937
  26 H2        0.6393     4.0410     5.7605  H       1  <O>11       0.0748
  27 H3        2.2197     3.2276     5.6559  H       1  <O>11       0.0748
  28 H4       -2.6509     3.3721     2.6441  H       1  <O>11       0.0314
  29 H5       -1.7925     3.4083     1.0848  H       1  <O>11       0.0314
  30 H6       -3.7464     1.3912     2.1457  H       1  <O>11       0.0272
  31 H7       -3.7710     2.2944     0.6118  H       1  <O>11       0.0272
  32 H8       -2.2687    -0.1879     1.3512  H       1  <O>11       0.0344
  33 H9       -3.2742     0.1558    -0.0771  H       1  <O>11       0.0344
  34 H10       1.9755     0.5572     1.8660  H       1  <O>11       0.0639
  35 H11       2.2687     0.8544     4.2567  H       1  <O>11       0.0655
  36 H12       3.3316     2.4613     7.6824  H       1  <O>11       0.0621
  37 H13       3.6201     2.7222    10.0772  H       1  <O>11       0.0619
  38 H14       1.8973     3.8092    11.4041  H       1  <O>11       0.0646
  39 H15      -0.4120     4.3900     7.9294  H       1  <O>11       0.0650
  40 H16      -1.4598     2.7695     4.4968  H       1  <O>11       0.0657
@<TRIPOS>BOND
     1     1     2    2
     2     2     3   ar
     3     3     4   ar
     4     4     5   ar
     5     5     6   ar
     6     2     6   ar
     7     6     7    1
     8     7     8   ar
     9     8     9   ar
    10     9    10   ar
    11    10    11    1
    12    11    12    1
    13    12    13    1
    14    13    14   ar
    15    14    15   ar
    16    15    16   ar
    17    16    17   ar
    18    17    18    1
    19    17    19   ar
    20    13    19   ar
    21    10    20   ar
    22    20    21   ar
    23     7    21   ar
    24    21    22    1
    25    22    23    1
    26    23    24    1
    27     5    24    1
    28     3    25    1
    29    12    26    1
    30    12    27    1
    31    22    28    1
    32    22    29    1
    33    23    30    1
    34    23    31    1
    35    24    32    1
    36    24    33    1
    37     8    34    1
    38     9    35    1
    39    14    36    1
    40    15    37    1
    41    16    38    1
    42    19    39    1
    43    20    40    1
@<TRIPOS>MOLECULE
mol62_1_2
 40 43 0 0 0
SMALL
USER_CHARGES
****
VDW energy = -26.37
@<TRIPOS>ATOM
   1 O1        2.0963     1.8046    -0.3877  O.2     1  <O>11      -0.2446
   2 C1        0.7771     1.3854    -0.6455  C.ar    1  <O>11       0.3487
   3 N1        0.1614     1.0457    -1.7625  N.ar    1  <O>11      -0.2263
   4 N2       -1.1399     0.7478    -1.4694  N.ar    1  <O>11      -0.1561
   5 C2       -1.3077     0.8947    -0.1743  C.ar    1  <O>11       0.1384
   6 N3       -0.1140     1.2800     0.4106  N.ar    1  <O>11      -0.2473
   7 C3        0.0822     1.4986     1.7975  C.ar    1  <O>11       0.0560
   8 C4        1.2445     1.0283     2.4216  C.ar    1  <O>11      -0.0339
   9 C5        1.4116     1.1983     3.7962  C.ar    1  <O>11      -0.0180
  10 C6        0.4251     1.8308     4.5488  C.ar    1  <O>11       0.1214
  11 O2        0.5950     1.9890     5.8950  O.3     1  <O>11      -0.4874
  12 C7        1.2467     3.2223     6.1479  C.3     1  <O>11       0.1147
  13 C8        1.4314     3.3941     7.6119  C.ar    1  <O>11      -0.0077
  14 C9        0.4431     4.0307     8.3829  C.ar    1  <O>11      -0.0552
  15 C10       0.6239     4.2025     9.7589  C.ar    1  <O>11      -0.0587
  16 C11       1.7869     3.7398    10.3790  C.ar    1  <O>11      -0.0264
  17 C12       2.7682     3.1012     9.6131  C.ar    1  <O>11       0.1238
  18 F1        3.9082     2.6494    10.2262  F       1  <O>11      -0.2055
  19 C13       2.5965     2.9223     8.2400  C.ar    1  <O>11      -0.0201
  20 C14      -0.7340     2.3017     3.9316  C.ar    1  <O>11      -0.0148
  21 C15      -0.9228     2.1457     2.5507  C.ar    1  <O>11      -0.0199
  22 C16      -2.1357     2.7679     1.8974  C.3     1  <O>11      -0.0252
  23 C17      -3.1369     1.7651     1.3230  C.3     1  <O>11      -0.0421
  24 C18      -2.5288     0.5635     0.6057  C.3     1  <O>11       0.0081
  25 H1        0.5118     0.9887    -2.7081  H       1  <O>11       0.1937
  26 H2        0.6393     4.0410     5.7605  H       1  <O>11       0.0748
  27 H3        2.2197     3.2276     5.6559  H       1  <O>11       0.0748
  28 H4       -2.6509     3.3721     2.6441  H       1  <O>11       0.0314
  29 H5       -1.7925     3.4083     1.0848  H       1  <O>11       0.0314
  30 H6       -3.7464     1.3912     2.1457  H       1  <O>11       0.0272
  31 H7       -3.7710     2.2944     0.6118  H       1  <O>11       0.0272
  32 H8       -2.2687    -0.1879     1.3512  H       1  <O>11       0.0344
  33 H9       -3.2742     0.1558    -0.0771  H       1  <O>11       0.0344
  34 H10       1.9755     0.5572     1.8660  H       1  <O>11       0.0639
  35 H11       2.2687     0.8544     4.2567  H       1  <O>11       0.0655
  36 H12      -0.4195     4.3727     7.9314  H       1  <O>11       0.0621
  37 H13      -0.1047     4.6729    10.3183  H       1  <O>11       0.0619
  38 H14       1.9212     3.8679    11.3942  H       1  <O>11       0.0646
  39 H15       3.3243     2.4441     7.6863  H       1  <O>11       0.0650
  40 H16      -1.4598     2.7695     4.4968  H       1  <O>11       0.0657
@<TRIPOS>BOND
     1     1     2    2
     2     2     3   ar
     3     3     4   ar
     4     4     5   ar
     5     5     6   ar
     6     2     6   ar
     7     6     7    1
     8     7     8   ar
     9     8     9   ar
    10     9    10   ar
    11    10    11    1
    12    11    12    1
    13    12    13    1
    14    13    14   ar
    15    14    15   ar
    16    15    16   ar
    17    16    17   ar
    18    17    18    1
    19    17    19   ar
    20    13    19   ar
    21    10    20   ar
    22    20    21   ar
    23     7    21   ar
    24    21    22    1
    25    22    23    1
    26    23    24    1
    27     5    24    1
    28     3    25    1
    29    12    26    1
    30    12    27    1
    31    22    28    1
    32    22    29    1
    33    23    30    1
    34    23    31    1
    35    24    32    1
    36    24    33    1
    37     8    34    1
    38     9    35    1
    39    14    36    1
    40    15    37    1
    41    16    38    1
    42    19    39    1
    43    20    40    1
@<TRIPOS>MOLECULE
mol62_1_3
 40 43 0 0 0
SMALL
USER_CHARGES
****
VDW energy = -25.93
@<TRIPOS>ATOM
   1 O1        2.0963     1.8046    -0.3877  O.2     1  <O>11      -0.2446
   2 C1        0.7771     1.3854    -0.6455  C.ar    1  <O>11       0.3487
   3 N1        0.1614     1.0457    -1.7625  N.ar    1  <O>11      -0.2263
   4 N2       -1.1399     0.7478    -1.4694  N.ar    1  <O>11      -0.1561
   5 C2       -1.3077     0.8947    -0.1743  C.ar    1  <O>11       0.1384
   6 N3       -0.1140     1.2800     0.4106  N.ar    1  <O>11      -0.2473
   7 C3        0.0822     1.4986     1.7975  C.ar    1  <O>11       0.0560
   8 C4        1.2445     1.0283     2.4216  C.ar    1  <O>11      -0.0339
   9 C5        1.4116     1.1983     3.7962  C.ar    1  <O>11      -0.0180
  10 C6        0.4251     1.8308     4.5488  C.ar    1  <O>11       0.1214
  11 O2        0.5950     1.9890     5.8950  O.3     1  <O>11      -0.4874
  12 C7        0.0610     0.8653     6.5745  C.3     1  <O>11       0.1147
  13 C8        0.2458     1.0376     8.0385  C.ar    1  <O>11      -0.0077
  14 C9        1.4108     0.5655     8.6679  C.ar    1  <O>11      -0.0552
  15 C10       1.5779     0.7176    10.0480  C.ar    1  <O>11      -0.0587
  16 C11       0.5895     1.3430    10.8118  C.ar    1  <O>11      -0.0264
  17 C12      -0.5675     1.8179    10.1849  C.ar    1  <O>11       0.1238
  18 F1       -1.5350     2.4303    10.9389  F       1  <O>11      -0.2055
  19 C13      -0.7428     1.6736     8.8082  C.ar    1  <O>11      -0.0201
  20 C14      -0.7340     2.3017     3.9316  C.ar    1  <O>11      -0.0148
  21 C15      -0.9228     2.1457     2.5507  C.ar    1  <O>11      -0.0199
  22 C16      -2.1357     2.7679     1.8974  C.3     1  <O>11      -0.0252
  23 C17      -3.1369     1.7651     1.3230  C.3     1  <O>11      -0.0421
  24 C18      -2.5288     0.5635     0.6057  C.3     1  <O>11       0.0081
  25 H1        0.5118     0.9887    -2.7081  H       1  <O>11       0.1937
  26 H2        0.5782    -0.0374     6.2475  H       1  <O>11       0.0748
  27 H3       -1.0024     0.7758     6.3506  H       1  <O>11       0.0748
  28 H4       -2.6509     3.3721     2.6441  H       1  <O>11       0.0314
  29 H5       -1.7925     3.4083     1.0848  H       1  <O>11       0.0314
  30 H6       -3.7464     1.3912     2.1457  H       1  <O>11       0.0272
  31 H7       -3.7710     2.2944     0.6118  H       1  <O>11       0.0272
  32 H8       -2.2687    -0.1879     1.3512  H       1  <O>11       0.0344
  33 H9       -3.2742     0.1558    -0.0771  H       1  <O>11       0.0344
  34 H10       1.9755     0.5572     1.8660  H       1  <O>11       0.0639
  35 H11       2.2687     0.8544     4.2567  H       1  <O>11       0.0655
  36 H12       2.1460     0.1048     8.1092  H       1  <O>11       0.0621
  37 H13       2.4346     0.3665    10.5039  H       1  <O>11       0.0619
  38 H14       0.7119     1.4538    11.8305  H       1  <O>11       0.0646
  39 H15      -1.5976     2.0336     8.3558  H       1  <O>11       0.0650
  40 H16      -1.4598     2.7695     4.4968  H       1  <O>11       0.0657
@<TRIPOS>BOND
     1     1     2    2
     2     2     3   ar
     3     3     4   ar
     4     4     5   ar
     5     5     6   ar
     6     2     6   ar
     7     6     7    1
     8     7     8   ar
     9     8     9   ar
    10     9    10   ar
    11    10    11    1
    12    11    12    1
    13    12    13    1
    14    13    14   ar
    15    14    15   ar
    16    15    16   ar
    17    16    17   ar
    18    17    18    1
    19    17    19   ar
    20    13    19   ar
    21    10    20   ar
    22    20    21   ar
    23     7    21   ar
    24    21    22    1
    25    22    23    1
    26    23    24    1
    27     5    24    1
    28     3    25    1
    29    12    26    1
    30    12    27    1
    31    22    28    1
    32    22    29    1
    33    23    30    1
    34    23    31    1
    35    24    32    1
    36    24    33    1
    37     8    34    1
    38     9    35    1
    39    14    36    1
    40    15    37    1
    41    16    38    1
    42    19    39    1
    43    20    40    1
@<TRIPOS>MOLECULE
mol62_1_4
 40 43 0 0 0
SMALL
USER_CHARGES
****
VDW energy = -25.90
@<TRIPOS>ATOM
   1 O1        2.0963     1.8046    -0.3877  O.2     1  <O>11      -0.2446
   2 C1        0.7771     1.3854    -0.6455  C.ar    1  <O>11       0.3487
   3 N1        0.1614     1.0457    -1.7625  N.ar    1  <O>11      -0.2263
   4 N2       -1.1399     0.7478    -1.4694  N.ar    1  <O>11      -0.1561
   5 C2       -1.3077     0.8947    -0.1743  C.ar    1  <O>11       0.1384
   6 N3       -0.1140     1.2800     0.4106  N.ar    1  <O>11      -0.2473
   7 C3        0.0822     1.4986     1.7975  C.ar    1  <O>11       0.0560
   8 C4        1.2445     1.0283     2.4216  C.ar    1  <O>11      -0.0339
   9 C5        1.4116     1.1983     3.7962  C.ar    1  <O>11      -0.0180
  10 C6        0.4251     1.8308     4.5488  C.ar    1  <O>11       0.1214
  11 O2        0.5950     1.9890     5.8950  O.3     1  <O>11      -0.4874
  12 C7        1.2467     3.2223     6.1479  C.3     1  <O>11       0.1147
  13 C8        1.4314     3.3941     7.6119  C.ar    1  <O>11      -0.0077
  14 C9        2.1831     2.4612     8.3475  C.ar    1  <O>11      -0.0552
  15 C10       2.3459     2.6177     9.7276  C.ar    1  <O>11      -0.0587
  16 C11       1.7655     3.7045    10.3858  C.ar    1  <O>11      -0.0264
  17 C12       1.0221     4.6362     9.6532  C.ar    1  <O>11       0.1238
  18 F1        0.4538     5.7008    10.3039  F       1  <O>11      -0.2055
  19 C13       0.8558     4.4907     8.2756  C.ar    1  <O>11      -0.0201
  20 C14      -0.7340     2.3017     3.9316  C.ar    1  <O>11      -0.0148
  21 C15      -0.9228     2.1457     2.5507  C.ar    1  <O>11      -0.0199
  22 C16      -2.1357     2.7679     1.8974  C.3     1  <O>11      -0.0252
  23 C17      -3.1369     1.7651     1.3230  C.3     1  <O>11      -0.0421
  24 C18      -2.5288     0.5635     0.6057  C.3     1  <O>11       0.0081
  25 H1        0.5118     0.9887    -2.7081  H       1  <O>11       0.1937
  26 H2        0.6393     4.0410     5.7605  H       1  <O>11       0.0748
  27 H3        2.2197     3.2276     5.6559  H       1  <O>11       0.0748
  28 H4       -2.6509     3.3721     2.6441  H       1  <O>11       0.0314
  29 H5       -1.7925     3.4083     1.0848  H       1  <O>11       0.0314
  30 H6       -3.7464     1.3912     2.1457  H       1  <O>11       0.0272
  31 H7       -3.7710     2.2944     0.6118  H       1  <O>11       0.0272
  32 H8       -2.2687    -0.1879     1.3512  H       1  <O>11       0.0344
  33 H9       -3.2742     0.1558    -0.0771  H       1  <O>11       0.0344
  34 H10       1.9755     0.5572     1.8660  H       1  <O>11       0.0639
  35 H11       2.2687     0.8544     4.2567  H       1  <O>11       0.0655
  36 H12       2.6166     1.6574     7.8670  H       1  <O>11       0.0621
  37 H13       2.8969     1.9277    10.2617  H       1  <O>11       0.0619
  38 H14       1.8842     3.8193    11.4045  H       1  <O>11       0.0646
  39 H15       0.3107     5.1878     7.7446  H       1  <O>11       0.0650
  40 H16      -1.4598     2.7695     4.4968  H       1  <O>11       0.0657
@<TRIPOS>BOND
     1     1     2    2
     2     2     3   ar
     3     3     4   ar
     4     4     5   ar
     5     5     6   ar
     6     2     6   ar
     7     6     7    1
     8     7     8   ar
     9     8     9   ar
    10     9    10   ar
    11    10    11    1
    12    11    12    1
    13    12    13    1
    14    13    14   ar
    15    14    15   ar
    16    15    16   ar
    17    16    17   ar
    18    17    18    1
    19    17    19   ar
    20    13    19   ar
    21    10    20   ar
    22    20    21   ar
    23     7    21   ar
    24    21    22    1
    25    22    23    1
    26    23    24    1
    27     5    24    1
    28     3    25    1
    29    12    26    1
    30    12    27    1
    31    22    28    1
    32    22    29    1
    33    23    30    1
    34    23    31    1
    35    24    32    1
    36    24    33    1
    37     8    34    1
    38     9    35    1
    39    14    36    1
    40    15    37    1
    41    16    38    1
    42    19    39    1
    43    20    40    1
@<TRIPOS>MOLECULE
mol62_1_5
 40 43 0 0 0
SMALL
USER_CHARGES
****
VDW energy = -25.85
@<TRIPOS>ATOM
   1 O1        2.0963     1.8046    -0.3877  O.2     1  <O>11      -0.2446
   2 C1        0.7771     1.3854    -0.6455  C.ar    1  <O>11       0.3487
   3 N1        0.1614     1.0457    -1.7625  N.ar    1  <O>11      -0.2263
   4 N2       -1.1399     0.7478    -1.4694  N.ar    1  <O>11      -0.1561
   5 C2       -1.3077     0.8947    -0.1743  C.ar    1  <O>11       0.1384
   6 N3       -0.1140     1.2800     0.4106  N.ar    1  <O>11      -0.2473
   7 C3        0.0822     1.4986     1.7975  C.ar    1  <O>11       0.0560
   8 C4        1.2445     1.0283     2.4216  C.ar    1  <O>11      -0.0339
   9 C5        1.4116     1.1983     3.7962  C.ar    1  <O>11      -0.0180
  10 C6        0.4251     1.8308     4.5488  C.ar    1  <O>11       0.1214
  11 O2        0.5950     1.9890     5.8950  O.3     1  <O>11      -0.4874
  12 C7        0.0610     0.8653     6.5745  C.3     1  <O>11       0.1147
  13 C8        0.2458     1.0376     8.0385  C.ar    1  <O>11      -0.0077
  14 C9       -0.7425     1.6744     8.8093  C.ar    1  <O>11      -0.0552
  15 C10      -0.5617     1.8466    10.1853  C.ar    1  <O>11      -0.0587
  16 C11       0.6014     1.3841    10.8055  C.ar    1  <O>11      -0.0264
  17 C12       1.5827     0.7453    10.0396  C.ar    1  <O>11       0.1238
  18 F1        2.7228     0.2937    10.6528  F       1  <O>11      -0.2055
  19 C13       1.4109     0.5660     8.6666  C.ar    1  <O>11      -0.0201
  20 C14      -0.7340     2.3017     3.9316  C.ar    1  <O>11      -0.0148
  21 C15      -0.9228     2.1457     2.5507  C.ar    1  <O>11      -0.0199
  22 C16      -2.1357     2.7679     1.8974  C.3     1  <O>11      -0.0252
  23 C17      -3.1369     1.7651     1.3230  C.3     1  <O>11      -0.0421
  24 C18      -2.5288     0.5635     0.6057  C.3     1  <O>11       0.0081
  25 H1        0.5118     0.9887    -2.7081  H       1  <O>11       0.1937
  26 H2        0.5782    -0.0374     6.2475  H       1  <O>11       0.0748
  27 H3       -1.0024     0.7758     6.3506  H       1  <O>11       0.0748
  28 H4       -2.6509     3.3721     2.6441  H       1  <O>11       0.0314
  29 H5       -1.7925     3.4083     1.0848  H       1  <O>11       0.0314
  30 H6       -3.7464     1.3912     2.1457  H       1  <O>11       0.0272
  31 H7       -3.7710     2.2944     0.6118  H       1  <O>11       0.0272
  32 H8       -2.2687    -0.1879     1.3512  H       1  <O>11       0.0344
  33 H9       -3.2742     0.1558    -0.0771  H       1  <O>11       0.0344
  34 H10       1.9755     0.5572     1.8660  H       1  <O>11       0.0639
  35 H11       2.2687     0.8544     4.2567  H       1  <O>11       0.0655
  36 H12      -1.6052     2.0162     8.3578  H       1  <O>11       0.0621
  37 H13      -1.2902     2.3172    10.7445  H       1  <O>11       0.0619
  38 H14       0.7358     1.5126    11.8205  H       1  <O>11       0.0646
  39 H15       2.1387     0.0877     8.1131  H       1  <O>11       0.0650
  40 H16      -1.4598     2.7695     4.4968  H       1  <O>11       0.0657
@<TRIPOS>BOND
     1     1     2    2
     2     2     3   ar
     3     3     4   ar
     4     4     5   ar
     5     5     6   ar
     6     2     6   ar
     7     6     7    1
     8     7     8   ar
     9     8     9   ar
    10     9    10   ar
    11    10    11    1
    12    11    12    1
    13    12    13    1
    14    13    14   ar
    15    14    15   ar
    16    15    16   ar
    17    16    17   ar
    18    17    18    1
    19    17    19   ar
    20    13    19   ar
    21    10    20   ar
    22    20    21   ar
    23     7    21   ar
    24    21    22    1
    25    22    23    1
    26    23    24    1
    27     5    24    1
    28     3    25    1
    29    12    26    1
    30    12    27    1
    31    22    28    1
    32    22    29    1
    33    23    30    1
    34    23    31    1
    35    24    32    1
    36    24    33    1
    37     8    34    1
    38     9    35    1
    39    14    36    1
    40    15    37    1
    41    16    38    1
    42    19    39    1
    43    20    40    1
@<TRIPOS>MOLECULE
mol62_1_6
 40 43 0 0 0
SMALL
USER_CHARGES
****
VDW energy = -25.39
@<TRIPOS>ATOM
   1 O1        2.0963     1.8046    -0.3877  O.2     1  <O>11      -0.2446
   2 C1        0.7771     1.3854    -0.6455  C.ar    1  <O>11       0.3487
   3 N1        0.1614     1.0457    -1.7625  N.ar    1  <O>11      -0.2263
   4 N2       -1.1399     0.7478    -1.4694  N.ar    1  <O>11      -0.1561
   5 C2       -1.3077     0.8947    -0.1743  C.ar    1  <O>11       0.1384
   6 N3       -0.1140     1.2800     0.4106  N.ar    1  <O>11      -0.2473
   7 C3        0.0822     1.4986     1.7975  C.ar    1  <O>11       0.0560
   8 C4        1.2445     1.0283     2.4216  C.ar    1  <O>11      -0.0339
   9 C5        1.4116     1.1983     3.7962  C.ar    1  <O>11      -0.0180
  10 C6        0.4251     1.8308     4.5488  C.ar    1  <O>11       0.1214
  11 O2        0.5950     1.9890     5.8950  O.3     1  <O>11      -0.4874
  12 C7        0.0610     0.8653     6.5745  C.3     1  <O>11       0.1147
  13 C8        0.2458     1.0376     8.0385  C.ar    1  <O>11      -0.0077
  14 C9        1.5357     1.1747     8.5805  C.ar    1  <O>11      -0.0552
  15 C10       1.7088     1.3246     9.9601  C.ar    1  <O>11      -0.0587
  16 C11       0.6006     1.3426    10.8104  C.ar    1  <O>11      -0.0264
  17 C12      -0.6835     1.2118    10.2708  C.ar    1  <O>11       0.1238
  18 F1       -1.7679     1.2293    11.1096  F       1  <O>11      -0.2055
  19 C13      -0.8673     1.0644     8.8956  C.ar    1  <O>11      -0.0201
  20 C14      -0.7340     2.3017     3.9316  C.ar    1  <O>11      -0.0148
  21 C15      -0.9228     2.1457     2.5507  C.ar    1  <O>11      -0.0199
  22 C16      -2.1357     2.7679     1.8974  C.3     1  <O>11      -0.0252
  23 C17      -3.1369     1.7651     1.3230  C.3     1  <O>11      -0.0421
  24 C18      -2.5288     0.5635     0.6057  C.3     1  <O>11       0.0081
  25 H1        0.5118     0.9887    -2.7081  H       1  <O>11       0.1937
  26 H2        0.5782    -0.0374     6.2475  H       1  <O>11       0.0748
  27 H3       -1.0024     0.7758     6.3506  H       1  <O>11       0.0748
  28 H4       -2.6509     3.3721     2.6441  H       1  <O>11       0.0314
  29 H5       -1.7925     3.4083     1.0848  H       1  <O>11       0.0314
  30 H6       -3.7464     1.3912     2.1457  H       1  <O>11       0.0272
  31 H7       -3.7710     2.2944     0.6118  H       1  <O>11       0.0272
  32 H8       -2.2687    -0.1879     1.3512  H       1  <O>11       0.0344
  33 H9       -3.2742     0.1558    -0.0771  H       1  <O>11       0.0344
  34 H10       1.9755     0.5572     1.8660  H       1  <O>11       0.0639
  35 H11       2.2687     0.8544     4.2567  H       1  <O>11       0.0655
  36 H12       2.3584     1.1647     7.9576  H       1  <O>11       0.0621
  37 H13       2.6587     1.4223    10.3514  H       1  <O>11       0.0619
  38 H14       0.7283     1.4516    11.8287  H       1  <O>11       0.0646
  39 H15      -1.8197     0.9752     8.5084  H       1  <O>11       0.0650
  40 H16      -1.4598     2.7695     4.4968  H       1  <O>11       0.0657
@<TRIPOS>BOND
     1     1     2    2
     2     2     3   ar
     3     3     4   ar
     4     4     5   ar
     5     5     6   ar
     6     2     6   ar
     7     6     7    1
     8     7     8   ar
     9     8     9   ar
    10     9    10   ar
    11    10    11    1
    12    11    12    1
    13    12    13    1
    14    13    14   ar
    15    14    15   ar
    16    15    16   ar
    17    16    17   ar
    18    17    18    1
    19    17    19   ar
    20    13    19   ar
    21    10    20   ar
    22    20    21   ar
    23     7    21   ar
    24    21    22    1
    25    22    23    1
    26    23    24    1
    27     5    24    1
    28     3    25    1
    29    12    26    1
    30    12    27    1
    31    22    28    1
    32    22    29    1
    33    23    30    1
    34    23    31    1
    35    24    32    1
    36    24    33    1
    37     8    34    1
    38     9    35    1
    39    14    36    1
    40    15    37    1
    41    16    38    1
    42    19    39    1
    43    20    40    1
@<TRIPOS>MOLECULE
mol62_1_7
 40 43 0 0 0
SMALL
USER_CHARGES
****
VDW energy = -25.35
@<TRIPOS>ATOM
   1 O1        2.0963     1.8046    -0.3877  O.2     1  <O>11      -0.2446
   2 C1        0.7771     1.3854    -0.6455  C.ar    1  <O>11       0.3487
   3 N1        0.1614     1.0457    -1.7625  N.ar    1  <O>11      -0.2263
   4 N2       -1.1399     0.7478    -1.4694  N.ar    1  <O>11      -0.1561
   5 C2       -1.3077     0.8947    -0.1743  C.ar    1  <O>11       0.1384
   6 N3       -0.1140     1.2800     0.4106  N.ar    1  <O>11      -0.2473
   7 C3        0.0822     1.4986     1.7975  C.ar    1  <O>11       0.0560
   8 C4        1.2445     1.0283     2.4216  C.ar    1  <O>11      -0.0339
   9 C5        1.4116     1.1983     3.7962  C.ar    1  <O>11      -0.0180
  10 C6        0.4251     1.8308     4.5488  C.ar    1  <O>11       0.1214
  11 O2        0.5950     1.9890     5.8950  O.3     1  <O>11      -0.4874
  12 C7        0.0610     0.8653     6.5745  C.3     1  <O>11       0.1147
  13 C8        0.2458     1.0376     8.0385  C.ar    1  <O>11      -0.0077
  14 C9       -0.3292     2.1350     8.7029  C.ar    1  <O>11      -0.0552
  15 C10      -0.1442     2.3024    10.0789  C.ar    1  <O>11      -0.0587
  16 C11       0.6109     1.3782    10.8049  C.ar    1  <O>11      -0.0264
  17 C12       1.1786     0.2829    10.1451  C.ar    1  <O>11       0.1238
  18 F1        1.9195    -0.6210    10.8619  F       1  <O>11      -0.2055
  19 C13       0.9979     0.1052     8.7730  C.ar    1  <O>11      -0.0201
  20 C14      -0.7340     2.3017     3.9316  C.ar    1  <O>11      -0.0148
  21 C15      -0.9228     2.1457     2.5507  C.ar    1  <O>11      -0.0199
  22 C16      -2.1357     2.7679     1.8974  C.3     1  <O>11      -0.0252
  23 C17      -3.1369     1.7651     1.3230  C.3     1  <O>11      -0.0421
  24 C18      -2.5288     0.5635     0.6057  C.3     1  <O>11       0.0081
  25 H1        0.5118     0.9887    -2.7081  H       1  <O>11       0.1937
  26 H2        0.5782    -0.0374     6.2475  H       1  <O>11       0.0748
  27 H3       -1.0024     0.7758     6.3506  H       1  <O>11       0.0748
  28 H4       -2.6509     3.3721     2.6441  H       1  <O>11       0.0314
  29 H5       -1.7925     3.4083     1.0848  H       1  <O>11       0.0314
  30 H6       -3.7464     1.3912     2.1457  H       1  <O>11       0.0272
  31 H7       -3.7710     2.2944     0.6118  H       1  <O>11       0.0272
  32 H8       -2.2687    -0.1879     1.3512  H       1  <O>11       0.0344
  33 H9       -3.2742     0.1558    -0.0771  H       1  <O>11       0.0344
  34 H10       1.9755     0.5572     1.8660  H       1  <O>11       0.0639
  35 H11       2.2687     0.8544     4.2567  H       1  <O>11       0.0655
  36 H12      -0.8902     2.8200     8.1729  H       1  <O>11       0.0621
  37 H13      -0.5671     3.1116    10.5598  H       1  <O>11       0.0619
  38 H14       0.7490     1.5025    11.8201  H       1  <O>11       0.0646
  39 H15       1.4161    -0.7100     8.2982  H       1  <O>11       0.0650
  40 H16      -1.4598     2.7695     4.4968  H       1  <O>11       0.0657
@<TRIPOS>BOND
     1     1     2    2
     2     2     3   ar
     3     3     4   ar
     4     4     5   ar
     5     5     6   ar
     6     2     6   ar
     7     6     7    1
     8     7     8   ar
     9     8     9   ar
    10     9    10   ar
    11    10    11    1
    12    11    12    1
    13    12    13    1
    14    13    14   ar
    15    14    15   ar
    16    15    16   ar
    17    16    17   ar
    18    17    18    1
    19    17    19   ar
    20    13    19   ar
    21    10    20   ar
    22    20    21   ar
    23     7    21   ar
    24    21    22    1
    25    22    23    1
    26    23    24    1
    27     5    24    1
    28     3    25    1
    29    12    26    1
    30    12    27    1
    31    22    28    1
    32    22    29    1
    33    23    30    1
    34    23    31    1
    35    24    32    1
    36    24    33    1
    37     8    34    1
    38     9    35    1
    39    14    36    1
    40    15    37    1
    41    16    38    1
    42    19    39    1
    43    20    40    1
@<TRIPOS>MOLECULE
mol62_1_8
 40 43 0 0 0
SMALL
USER_CHARGES
****
VDW energy = -22.93
@<TRIPOS>ATOM
   1 O1        2.0963     1.8046    -0.3877  O.2     1  <O>11      -0.2446
   2 C1        0.7771     1.3854    -0.6455  C.ar    1  <O>11       0.3487
   3 N1        0.1614     1.0457    -1.7625  N.ar    1  <O>11      -0.2263
   4 N2       -1.1399     0.7478    -1.4694  N.ar    1  <O>11      -0.1561
   5 C2       -1.3077     0.8947    -0.1743  C.ar    1  <O>11       0.1384
   6 N3       -0.1140     1.2800     0.4106  N.ar    1  <O>11      -0.2473
   7 C3        0.0822     1.4986     1.7975  C.ar    1  <O>11       0.0560
   8 C4        1.2445     1.0283     2.4216  C.ar    1  <O>11      -0.0339
   9 C5        1.4116     1.1983     3.7962  C.ar    1  <O>11      -0.0180
  10 C6        0.4251     1.8308     4.5488  C.ar    1  <O>11       0.1214
  11 O2        0.5950     1.9890     5.8950  O.3     1  <O>11      -0.4874
  12 C7        1.2467     3.2223     6.1479  C.3     1  <O>11       0.1147
  13 C8        1.4314     3.3941     7.6119  C.ar    1  <O>11      -0.0077
  14 C9        2.0578     4.5461     8.1186  C.ar    1  <O>11      -0.0552
  15 C10       2.2419     4.7008     9.4963  C.ar    1  <O>11      -0.0587
  16 C11       1.8016     3.7130    10.3803  C.ar    1  <O>11      -0.0264
  17 C12       1.1731     2.5689     9.8768  C.ar    1  <O>11       0.1238
  18 F1        0.7433     1.6018    10.7484  F       1  <O>11      -0.2055
  19 C13       0.9822     2.4061     8.5043  C.ar    1  <O>11      -0.0201
  20 C14      -0.7340     2.3017     3.9316  C.ar    1  <O>11      -0.0148
  21 C15      -0.9228     2.1457     2.5507  C.ar    1  <O>11      -0.0199
  22 C16      -2.1357     2.7679     1.8974  C.3     1  <O>11      -0.0252
  23 C17      -3.1369     1.7651     1.3230  C.3     1  <O>11      -0.0421
  24 C18      -2.5288     0.5635     0.6057  C.3     1  <O>11       0.0081
  25 H1        0.5118     0.9887    -2.7081  H       1  <O>11       0.1937
  26 H2        0.6393     4.0410     5.7605  H       1  <O>11       0.0748
  27 H3        2.2197     3.2276     5.6559  H       1  <O>11       0.0748
  28 H4       -2.6509     3.3721     2.6441  H       1  <O>11       0.0314
  29 H5       -1.7925     3.4083     1.0848  H       1  <O>11       0.0314
  30 H6       -3.7464     1.3912     2.1457  H       1  <O>11       0.0272
  31 H7       -3.7710     2.2944     0.6118  H       1  <O>11       0.0272
  32 H8       -2.2687    -0.1879     1.3512  H       1  <O>11       0.0344
  33 H9       -3.2742     0.1558    -0.0771  H       1  <O>11       0.0344
  34 H10       1.9755     0.5572     1.8660  H       1  <O>11       0.0639
  35 H11       2.2687     0.8544     4.2567  H       1  <O>11       0.0655
  36 H12       2.3833     5.2808     7.4712  H       1  <O>11       0.0621
  37 H13       2.7048     5.5479     9.8611  H       1  <O>11       0.0619
  38 H14       1.9388     3.8262    11.3968  H       1  <O>11       0.0646
  39 H15       0.5115     1.5609     8.1449  H       1  <O>11       0.0650
  40 H16      -1.4598     2.7695     4.4968  H       1  <O>11       0.0657
@<TRIPOS>BOND
     1     1     2    2
     2     2     3   ar
     3     3     4   ar
     4     4     5   ar
     5     5     6   ar
     6     2     6   ar
     7     6     7    1
     8     7     8   ar
     9     8     9   ar
    10     9    10   ar
    11    10    11    1
    12    11    12    1
    13    12    13    1
    14    13    14   ar
    15    14    15   ar
    16    15    16   ar
    17    16    17   ar
    18    17    18    1
    19    17    19   ar
    20    13    19   ar
    21    10    20   ar
    22    20    21   ar
    23     7    21   ar
    24    21    22    1
    25    22    23    1
    26    23    24    1
    27     5    24    1
    28     3    25    1
    29    12    26    1
    30    12    27    1
    31    22    28    1
    32    22    29    1
    33    23    30    1
    34    23    31    1
    35    24    32    1
    36    24    33    1
    37     8    34    1
    38     9    35    1
    39    14    36    1
    40    15    37    1
    41    16    38    1
    42    19    39    1
    43    20    40    1
@<TRIPOS>MOLECULE
mol62_1_9
 40 43 0 0 0
SMALL
USER_CHARGES
****
VDW energy = -22.91
@<TRIPOS>ATOM
   1 O1        2.0963     1.8046    -0.3877  O.2     1  <O>11      -0.2446
   2 C1        0.7771     1.3854    -0.6455  C.ar    1  <O>11       0.3487
   3 N1        0.1614     1.0457    -1.7625  N.ar    1  <O>11      -0.2263
   4 N2       -1.1399     0.7478    -1.4694  N.ar    1  <O>11      -0.1561
   5 C2       -1.3077     0.8947    -0.1743  C.ar    1  <O>11       0.1384
   6 N3       -0.1140     1.2800     0.4106  N.ar    1  <O>11      -0.2473
   7 C3        0.0822     1.4986     1.7975  C.ar    1  <O>11       0.0560
   8 C4        1.2445     1.0283     2.4216  C.ar    1  <O>11      -0.0339
   9 C5        1.4116     1.1983     3.7962  C.ar    1  <O>11      -0.0180
  10 C6        0.4251     1.8308     4.5488  C.ar    1  <O>11       0.1214
  11 O2        0.5950     1.9890     5.8950  O.3     1  <O>11      -0.4874
  12 C7        0.7334     0.7178     6.5069  C.3     1  <O>11       0.1147
  13 C8        0.9181     0.8901     7.9710  C.ar    1  <O>11      -0.0077
  14 C9        2.2079     1.0272     8.5131  C.ar    1  <O>11      -0.0552
  15 C10       2.3809     1.1771     9.8927  C.ar    1  <O>11      -0.0587
  16 C11       1.2728     1.1951    10.7429  C.ar    1  <O>11      -0.0264
  17 C12      -0.0114     1.0643    10.2032  C.ar    1  <O>11       0.1238
  18 F1       -1.0958     1.0818    11.0419  F       1  <O>11      -0.2055
  19 C13      -0.1951     0.9169     8.8280  C.ar    1  <O>11      -0.0201
  20 C14      -0.7340     2.3017     3.9316  C.ar    1  <O>11      -0.0148
  21 C15      -0.9228     2.1457     2.5507  C.ar    1  <O>11      -0.0199
  22 C16      -2.1357     2.7679     1.8974  C.3     1  <O>11      -0.0252
  23 C17      -3.1369     1.7651     1.3230  C.3     1  <O>11      -0.0421
  24 C18      -2.5288     0.5635     0.6057  C.3     1  <O>11       0.0081
  25 H1        0.5118     0.9887    -2.7081  H       1  <O>11       0.1937
  26 H2        1.6012     0.2056     6.0898  H       1  <O>11       0.0748
  27 H3       -0.1624     0.1247     6.3211  H       1  <O>11       0.0748
  28 H4       -2.6509     3.3721     2.6441  H       1  <O>11       0.0314
  29 H5       -1.7925     3.4083     1.0848  H       1  <O>11       0.0314
  30 H6       -3.7464     1.3912     2.1457  H       1  <O>11       0.0272
  31 H7       -3.7710     2.2944     0.6118  H       1  <O>11       0.0272
  32 H8       -2.2687    -0.1879     1.3512  H       1  <O>11       0.0344
  33 H9       -3.2742     0.1558    -0.0771  H       1  <O>11       0.0344
  34 H10       1.9755     0.5572     1.8660  H       1  <O>11       0.0639
  35 H11       2.2687     0.8544     4.2567  H       1  <O>11       0.0655
  36 H12       3.0307     1.0172     7.8903  H       1  <O>11       0.0621
  37 H13       3.3308     1.2748    10.2840  H       1  <O>11       0.0619
  38 H14       1.4003     1.3040    11.7612  H       1  <O>11       0.0646
  39 H15      -1.1474     0.8277     8.4407  H       1  <O>11       0.0650
  40 H16      -1.4598     2.7695     4.4968  H       1  <O>11       0.0657
@<TRIPOS>BOND
     1     1     2    2
     2     2     3   ar
     3     3     4   ar
     4     4     5   ar
     5     5     6   ar
     6     2     6   ar
     7     6     7    1
     8     7     8   ar
     9     8     9   ar
    10     9    10   ar
    11    10    11    1
    12    11    12    1
    13    12    13    1
    14    13    14   ar
    15    14    15   ar
    16    15    16   ar
    17    16    17   ar
    18    17    18    1
    19    17    19   ar
    20    13    19   ar
    21    10    20   ar
    22    20    21   ar
    23     7    21   ar
    24    21    22    1
    25    22    23    1
    26    23    24    1
    27     5    24    1
    28     3    25    1
    29    12    26    1
    30    12    27    1
    31    22    28    1
    32    22    29    1
    33    23    30    1
    34    23    31    1
    35    24    32    1
    36    24    33    1
    37     8    34    1
    38     9    35    1
    39    14    36    1
    40    15    37    1
    41    16    38    1
    42    19    39    1
    43    20    40    1
@<TRIPOS>MOLECULE
mol62_1_10
 40 43 0 0 0
SMALL
USER_CHARGES
****
VDW energy = -22.82
@<TRIPOS>ATOM
   1 O1        2.0963     1.8046    -0.3877  O.2     1  <O>11      -0.2446
   2 C1        0.7771     1.3854    -0.6455  C.ar    1  <O>11       0.3487
   3 N1        0.1614     1.0457    -1.7625  N.ar    1  <O>11      -0.2263
   4 N2       -1.1399     0.7478    -1.4694  N.ar    1  <O>11      -0.1561
   5 C2       -1.3077     0.8947    -0.1743  C.ar    1  <O>11       0.1384
   6 N3       -0.1140     1.2800     0.4106  N.ar    1  <O>11      -0.2473
   7 C3        0.0822     1.4986     1.7975  C.ar    1  <O>11       0.0560
   8 C4        1.2445     1.0283     2.4216  C.ar    1  <O>11      -0.0339
   9 C5        1.4116     1.1983     3.7962  C.ar    1  <O>11      -0.0180
  10 C6        0.4251     1.8308     4.5488  C.ar    1  <O>11       0.1214
  11 O2        0.5950     1.9890     5.8950  O.3     1  <O>11      -0.4874
  12 C7        0.7334     0.7178     6.5069  C.3     1  <O>11       0.1147
  13 C8        0.9181     0.8901     7.9710  C.ar    1  <O>11      -0.0077
  14 C9       -0.1950     0.9177     8.8291  C.ar    1  <O>11      -0.0552
  15 C10      -0.0204     1.0921    10.2056  C.ar    1  <O>11      -0.0587
  16 C11       1.2624     1.2369    10.7393  C.ar    1  <O>11      -0.0264
  17 C12       2.3709     1.2039     9.8863  C.ar    1  <O>11       0.1238
  18 F1        3.6278     1.3472    10.4148  F       1  <O>11      -0.2055
  19 C13       2.2077     1.0277     8.5118  C.ar    1  <O>11      -0.0201
  20 C14      -0.7340     2.3017     3.9316  C.ar    1  <O>11      -0.0148
  21 C15      -0.9228     2.1457     2.5507  C.ar    1  <O>11      -0.0199
  22 C16      -2.1357     2.7679     1.8974  C.3     1  <O>11      -0.0252
  23 C17      -3.1369     1.7651     1.3230  C.3     1  <O>11      -0.0421
  24 C18      -2.5288     0.5635     0.6057  C.3     1  <O>11       0.0081
  25 H1        0.5118     0.9887    -2.7081  H       1  <O>11       0.1937
  26 H2        1.6012     0.2056     6.0898  H       1  <O>11       0.0748
  27 H3       -0.1624     0.1247     6.3211  H       1  <O>11       0.0748
  28 H4       -2.6509     3.3721     2.6441  H       1  <O>11       0.0314
  29 H5       -1.7925     3.4083     1.0848  H       1  <O>11       0.0314
  30 H6       -3.7464     1.3912     2.1457  H       1  <O>11       0.0272
  31 H7       -3.7710     2.2944     0.6118  H       1  <O>11       0.0272
  32 H8       -2.2687    -0.1879     1.3512  H       1  <O>11       0.0344
  33 H9       -3.2742     0.1558    -0.0771  H       1  <O>11       0.0344
  34 H10       1.9755     0.5572     1.8660  H       1  <O>11       0.0639
  35 H11       2.2687     0.8544     4.2567  H       1  <O>11       0.0655
  36 H12      -1.1453     0.8088     8.4416  H       1  <O>11       0.0621
  37 H13      -0.8421     1.1138    10.8294  H       1  <O>11       0.0619
  38 H14       1.3915     1.3673    11.7549  H       1  <O>11       0.0646
  39 H15       3.0331     0.9986     7.8932  H       1  <O>11       0.0650
  40 H16      -1.4598     2.7695     4.4968  H       1  <O>11       0.0657
@<TRIPOS>BOND
     1     1     2    2
     2     2     3   ar
     3     3     4   ar
     4     4     5   ar
     5     5     6   ar
     6     2     6   ar
     7     6     7    1
     8     7     8   ar
     9     8     9   ar
    10     9    10   ar
    11    10    11    1
    12    11    12    1
    13    12    13    1
    14    13    14   ar
    15    14    15   ar
    16    15    16   ar
    17    16    17   ar
    18    17    18    1
    19    17    19   ar
    20    13    19   ar
    21    10    20   ar
    22    20    21   ar
    23     7    21   ar
    24    21    22    1
    25    22    23    1
    26    23    24    1
    27     5    24    1
    28     3    25    1
    29    12    26    1
    30    12    27    1
    31    22    28    1
    32    22    29    1
    33    23    30    1
    34    23    31    1
    35    24    32    1
    36    24    33    1
    37     8    34    1
    38     9    35    1
    39    14    36    1
    40    15    37    1
    41    16    38    1
    42    19    39    1
    43    20    40    1
@<TRIPOS>MOLECULE
mol62_1_11
 40 43 0 0 0
SMALL
USER_CHARGES
****
VDW energy = -22.79
@<TRIPOS>ATOM
   1 O1        2.0963     1.8046    -0.3877  O.2     1  <O>11      -0.2446
   2 C1        0.7771     1.3854    -0.6455  C.ar    1  <O>11       0.3487
   3 N1        0.1614     1.0457    -1.7625  N.ar    1  <O>11      -0.2263
   4 N2       -1.1399     0.7478    -1.4694  N.ar    1  <O>11      -0.1561
   5 C2       -1.3077     0.8947    -0.1743  C.ar    1  <O>11       0.1384
   6 N3       -0.1140     1.2800     0.4106  N.ar    1  <O>11      -0.2473
   7 C3        0.0822     1.4986     1.7975  C.ar    1  <O>11       0.0560
   8 C4        1.2445     1.0283     2.4216  C.ar    1  <O>11      -0.0339
   9 C5        1.4116     1.1983     3.7962  C.ar    1  <O>11      -0.0180
  10 C6        0.4251     1.8308     4.5488  C.ar    1  <O>11       0.1214
  11 O2        0.5950     1.9890     5.8950  O.3     1  <O>11      -0.4874
  12 C7        1.7603     2.7590     6.1375  C.3     1  <O>11       0.1147
  13 C8        1.9449     2.9309     7.6015  C.ar    1  <O>11      -0.0077
  14 C9        2.1055     1.8094     8.4339  C.ar    1  <O>11      -0.0552
  15 C10       2.2670     1.9722     9.8134  C.ar    1  <O>11      -0.0587
  16 C11       2.2734     3.2512    10.3750  C.ar    1  <O>11      -0.0264
  17 C12       2.1193     4.3679     9.5463  C.ar    1  <O>11       0.1238
  18 F1        2.1256     5.6211    10.1023  F       1  <O>11      -0.2055
  19 C13       1.9602     4.2165     8.1684  C.ar    1  <O>11      -0.0201
  20 C14      -0.7340     2.3017     3.9316  C.ar    1  <O>11      -0.0148
  21 C15      -0.9228     2.1457     2.5507  C.ar    1  <O>11      -0.0199
  22 C16      -2.1357     2.7679     1.8974  C.3     1  <O>11      -0.0252
  23 C17      -3.1369     1.7651     1.3230  C.3     1  <O>11      -0.0421
  24 C18      -2.5288     0.5635     0.6057  C.3     1  <O>11       0.0081
  25 H1        0.5118     0.9887    -2.7081  H       1  <O>11       0.1937
  26 H2        1.6541     3.7376     5.6681  H       1  <O>11       0.0748
  27 H3        2.6280     2.2480     5.7194  H       1  <O>11       0.0748
  28 H4       -2.6509     3.3721     2.6441  H       1  <O>11       0.0314
  29 H5       -1.7925     3.4083     1.0848  H       1  <O>11       0.0314
  30 H6       -3.7464     1.3912     2.1457  H       1  <O>11       0.0272
  31 H7       -3.7710     2.2944     0.6118  H       1  <O>11       0.0272
  32 H8       -2.2687    -0.1879     1.3512  H       1  <O>11       0.0344
  33 H9       -3.2742     0.1558    -0.0771  H       1  <O>11       0.0344
  34 H10       1.9755     0.5572     1.8660  H       1  <O>11       0.0639
  35 H11       2.2687     0.8544     4.2567  H       1  <O>11       0.0655
  36 H12       2.1041     0.8618     8.0251  H       1  <O>11       0.0621
  37 H13       2.3818     1.1444    10.4188  H       1  <O>11       0.0619
  38 H14       2.3909     3.3715    11.3932  H       1  <O>11       0.0646
  39 H15       1.8537     5.0478     7.5663  H       1  <O>11       0.0650
  40 H16      -1.4598     2.7695     4.4968  H       1  <O>11       0.0657
@<TRIPOS>BOND
     1     1     2    2
     2     2     3   ar
     3     3     4   ar
     4     4     5   ar
     5     5     6   ar
     6     2     6   ar
     7     6     7    1
     8     7     8   ar
     9     8     9   ar
    10     9    10   ar
    11    10    11    1
    12    11    12    1
    13    12    13    1
    14    13    14   ar
    15    14    15   ar
    16    15    16   ar
    17    16    17   ar
    18    17    18    1
    19    17    19   ar
    20    13    19   ar
    21    10    20   ar
    22    20    21   ar
    23     7    21   ar
    24    21    22    1
    25    22    23    1
    26    23    24    1
    27     5    24    1
    28     3    25    1
    29    12    26    1
    30    12    27    1
    31    22    28    1
    32    22    29    1
    33    23    30    1
    34    23    31    1
    35    24    32    1
    36    24    33    1
    37     8    34    1
    38     9    35    1
    39    14    36    1
    40    15    37    1
    41    16    38    1
    42    19    39    1
    43    20    40    1
@<TRIPOS>MOLECULE
mol62_1_12
 40 43 0 0 0
SMALL
USER_CHARGES
****
VDW energy = -22.76
@<TRIPOS>ATOM
   1 O1        2.0963     1.8046    -0.3877  O.2     1  <O>11      -0.2446
   2 C1        0.7771     1.3854    -0.6455  C.ar    1  <O>11       0.3487
   3 N1        0.1614     1.0457    -1.7625  N.ar    1  <O>11      -0.2263
   4 N2       -1.1399     0.7478    -1.4694  N.ar    1  <O>11      -0.1561
   5 C2       -1.3077     0.8947    -0.1743  C.ar    1  <O>11       0.1384
   6 N3       -0.1140     1.2800     0.4106  N.ar    1  <O>11      -0.2473
   7 C3        0.0822     1.4986     1.7975  C.ar    1  <O>11       0.0560
   8 C4        1.2445     1.0283     2.4216  C.ar    1  <O>11      -0.0339
   9 C5        1.4116     1.1983     3.7962  C.ar    1  <O>11      -0.0180
  10 C6        0.4251     1.8308     4.5488  C.ar    1  <O>11       0.1214
  11 O2        0.5950     1.9890     5.8950  O.3     1  <O>11      -0.4874
  12 C7        1.7603     2.7590     6.1375  C.3     1  <O>11       0.1147
  13 C8        1.9449     2.9309     7.6015  C.ar    1  <O>11      -0.0077
  14 C9        0.9565     3.5675     8.3724  C.ar    1  <O>11      -0.0552
  15 C10       1.1372     3.7394     9.7485  C.ar    1  <O>11      -0.0587
  16 C11       2.3002     3.2766    10.3687  C.ar    1  <O>11      -0.0264
  17 C12       3.2816     2.6380     9.6028  C.ar    1  <O>11       0.1238
  18 F1        4.4216     2.1863    10.2160  F       1  <O>11      -0.2055
  19 C13       3.1099     2.4592     8.2297  C.ar    1  <O>11      -0.0201
  20 C14      -0.7340     2.3017     3.9316  C.ar    1  <O>11      -0.0148
  21 C15      -0.9228     2.1457     2.5507  C.ar    1  <O>11      -0.0199
  22 C16      -2.1357     2.7679     1.8974  C.3     1  <O>11      -0.0252
  23 C17      -3.1369     1.7651     1.3230  C.3     1  <O>11      -0.0421
  24 C18      -2.5288     0.5635     0.6057  C.3     1  <O>11       0.0081
  25 H1        0.5118     0.9887    -2.7081  H       1  <O>11       0.1937
  26 H2        1.6541     3.7376     5.6681  H       1  <O>11       0.0748
  27 H3        2.6280     2.2480     5.7194  H       1  <O>11       0.0748
  28 H4       -2.6509     3.3721     2.6441  H       1  <O>11       0.0314
  29 H5       -1.7925     3.4083     1.0848  H       1  <O>11       0.0314
  30 H6       -3.7464     1.3912     2.1457  H       1  <O>11       0.0272
  31 H7       -3.7710     2.2944     0.6118  H       1  <O>11       0.0272
  32 H8       -2.2687    -0.1879     1.3512  H       1  <O>11       0.0344
  33 H9       -3.2742     0.1558    -0.0771  H       1  <O>11       0.0344
  34 H10       1.9755     0.5572     1.8660  H       1  <O>11       0.0639
  35 H11       2.2687     0.8544     4.2567  H       1  <O>11       0.0655
  36 H12       0.0939     3.9095     7.9208  H       1  <O>11       0.0621
  37 H13       0.4086     4.2098    10.3078  H       1  <O>11       0.0619
  38 H14       2.4344     3.4048    11.3838  H       1  <O>11       0.0646
  39 H15       3.8378     1.9809     7.6761  H       1  <O>11       0.0650
  40 H16      -1.4598     2.7695     4.4968  H       1  <O>11       0.0657
@<TRIPOS>BOND
     1     1     2    2
     2     2     3   ar
     3     3     4   ar
     4     4     5   ar
     5     5     6   ar
     6     2     6   ar
     7     6     7    1
     8     7     8   ar
     9     8     9   ar
    10     9    10   ar
    11    10    11    1
    12    11    12    1
    13    12    13    1
    14    13    14   ar
    15    14    15   ar
    16    15    16   ar
    17    16    17   ar
    18    17    18    1
    19    17    19   ar
    20    13    19   ar
    21    10    20   ar
    22    20    21   ar
    23     7    21   ar
    24    21    22    1
    25    22    23    1
    26    23    24    1
    27     5    24    1
    28     3    25    1
    29    12    26    1
    30    12    27    1
    31    22    28    1
    32    22    29    1
    33    23    30    1
    34    23    31    1
    35    24    32    1
    36    24    33    1
    37     8    34    1
    38     9    35    1
    39    14    36    1
    40    15    37    1
    41    16    38    1
    42    19    39    1
    43    20    40    1
@<TRIPOS>MOLECULE
mol62_1_13
 40 43 0 0 0
SMALL
USER_CHARGES
****
VDW energy = -22.37
@<TRIPOS>ATOM
   1 O1        2.0963     1.8046    -0.3877  O.2     1  <O>11      -0.2446
   2 C1        0.7771     1.3854    -0.6455  C.ar    1  <O>11       0.3487
   3 N1        0.1614     1.0457    -1.7625  N.ar    1  <O>11      -0.2263
   4 N2       -1.1399     0.7478    -1.4694  N.ar    1  <O>11      -0.1561
   5 C2       -1.3077     0.8947    -0.1743  C.ar    1  <O>11       0.1384
   6 N3       -0.1140     1.2800     0.4106  N.ar    1  <O>11      -0.2473
   7 C3        0.0822     1.4986     1.7975  C.ar    1  <O>11       0.0560
   8 C4        1.2445     1.0283     2.4216  C.ar    1  <O>11      -0.0339
   9 C5        1.4116     1.1983     3.7962  C.ar    1  <O>11      -0.0180
  10 C6        0.4251     1.8308     4.5488  C.ar    1  <O>11       0.1214
  11 O2        0.5950     1.9890     5.8950  O.3     1  <O>11      -0.4874
  12 C7        0.7334     0.7178     6.5069  C.3     1  <O>11       0.1147
  13 C8        0.9181     0.8901     7.9710  C.ar    1  <O>11      -0.0077
  14 C9        2.0108     1.6217     8.4680  C.ar    1  <O>11      -0.0552
  15 C10       2.1901     1.7727     9.8467  C.ar    1  <O>11      -0.0587
  16 C11       1.2825     1.2003    10.7411  C.ar    1  <O>11      -0.0264
  17 C12       0.1918     0.4769    10.2467  C.ar    1  <O>11       0.1238
  18 F1       -0.6958    -0.0836    11.1286  F       1  <O>11      -0.2055
  19 C13       0.0024     0.3226     8.8730  C.ar    1  <O>11      -0.0201
  20 C14      -0.7340     2.3017     3.9316  C.ar    1  <O>11      -0.0148
  21 C15      -0.9228     2.1457     2.5507  C.ar    1  <O>11      -0.0199
  22 C16      -2.1357     2.7679     1.8974  C.3     1  <O>11      -0.0252
  23 C17      -3.1369     1.7651     1.3230  C.3     1  <O>11      -0.0421
  24 C18      -2.5288     0.5635     0.6057  C.3     1  <O>11       0.0081
  25 H1        0.5118     0.9887    -2.7081  H       1  <O>11       0.1937
  26 H2        1.6012     0.2056     6.0898  H       1  <O>11       0.0748
  27 H3       -0.1624     0.1247     6.3211  H       1  <O>11       0.0748
  28 H4       -2.6509     3.3721     2.6441  H       1  <O>11       0.0314
  29 H5       -1.7925     3.4083     1.0848  H       1  <O>11       0.0314
  30 H6       -3.7464     1.3912     2.1457  H       1  <O>11       0.0272
  31 H7       -3.7710     2.2944     0.6118  H       1  <O>11       0.0272
  32 H8       -2.2687    -0.1879     1.3512  H       1  <O>11       0.0344
  33 H9       -3.2742     0.1558    -0.0771  H       1  <O>11       0.0344
  34 H10       1.9755     0.5572     1.8660  H       1  <O>11       0.0639
  35 H11       2.2687     0.8544     4.2567  H       1  <O>11       0.0655
  36 H12       2.6836     2.0492     7.8126  H       1  <O>11       0.0621
  37 H13       2.9958     2.3090    10.2046  H       1  <O>11       0.0619
  38 H14       1.4155     1.3103    11.7586  H       1  <O>11       0.0646
  39 H15      -0.8094    -0.2078     8.5199  H       1  <O>11       0.0650
  40 H16      -1.4598     2.7695     4.4968  H       1  <O>11       0.0657
@<TRIPOS>BOND
     1     1     2    2
     2     2     3   ar
     3     3     4   ar
     4     4     5   ar
     5     5     6   ar
     6     2     6   ar
     7     6     7    1
     8     7     8   ar
     9     8     9   ar
    10     9    10   ar
    11    10    11    1
    12    11    12    1
    13    12    13    1
    14    13    14   ar
    15    14    15   ar
    16    15    16   ar
    17    16    17   ar
    18    17    18    1
    19    17    19   ar
    20    13    19   ar
    21    10    20   ar
    22    20    21   ar
    23     7    21   ar
    24    21    22    1
    25    22    23    1
    26    23    24    1
    27     5    24    1
    28     3    25    1
    29    12    26    1
    30    12    27    1
    31    22    28    1
    32    22    29    1
    33    23    30    1
    34    23    31    1
    35    24    32    1
    36    24    33    1
    37     8    34    1
    38     9    35    1
    39    14    36    1
    40    15    37    1
    41    16    38    1
    42    19    39    1
    43    20    40    1
@<TRIPOS>MOLECULE
mol62_1_14
 40 43 0 0 0
SMALL
USER_CHARGES
****
VDW energy = -22.34
@<TRIPOS>ATOM
   1 O1        2.0963     1.8046    -0.3877  O.2     1  <O>11      -0.2446
   2 C1        0.7771     1.3854    -0.6455  C.ar    1  <O>11       0.3487
   3 N1        0.1614     1.0457    -1.7625  N.ar    1  <O>11      -0.2263
   4 N2       -1.1399     0.7478    -1.4694  N.ar    1  <O>11      -0.1561
   5 C2       -1.3077     0.8947    -0.1743  C.ar    1  <O>11       0.1384
   6 N3       -0.1140     1.2800     0.4106  N.ar    1  <O>11      -0.2473
   7 C3        0.0822     1.4986     1.7975  C.ar    1  <O>11       0.0560
   8 C4        1.2445     1.0283     2.4216  C.ar    1  <O>11      -0.0339
   9 C5        1.4116     1.1983     3.7962  C.ar    1  <O>11      -0.0180
  10 C6        0.4251     1.8308     4.5488  C.ar    1  <O>11       0.1214
  11 O2        0.5950     1.9890     5.8950  O.3     1  <O>11      -0.4874
  12 C7        0.0610     0.8653     6.5745  C.3     1  <O>11       0.1147
  13 C8        0.2458     1.0376     8.0385  C.ar    1  <O>11      -0.0077
  14 C9       -0.2039     0.0501     8.9324  C.ar    1  <O>11      -0.0552
  15 C10      -0.0401     0.2193    10.3109  C.ar    1  <O>11      -0.0587
  16 C11       0.5749     1.3698    10.8105  C.ar    1  <O>11      -0.0264
  17 C12       1.0276     2.3501     9.9209  C.ar    1  <O>11       0.1238
  18 F1        1.6298     3.4778    10.4161  F       1  <O>11      -0.2055
  19 C13       0.8714     2.1898     8.5437  C.ar    1  <O>11      -0.0201
  20 C14      -0.7340     2.3017     3.9316  C.ar    1  <O>11      -0.0148
  21 C15      -0.9228     2.1457     2.5507  C.ar    1  <O>11      -0.0199
  22 C16      -2.1357     2.7679     1.8974  C.3     1  <O>11      -0.0252
  23 C17      -3.1369     1.7651     1.3230  C.3     1  <O>11      -0.0421
  24 C18      -2.5288     0.5635     0.6057  C.3     1  <O>11       0.0081
  25 H1        0.5118     0.9887    -2.7081  H       1  <O>11       0.1937
  26 H2        0.5782    -0.0374     6.2475  H       1  <O>11       0.0748
  27 H3       -1.0024     0.7758     6.3506  H       1  <O>11       0.0748
  28 H4       -2.6509     3.3721     2.6441  H       1  <O>11       0.0314
  29 H5       -1.7925     3.4083     1.0848  H       1  <O>11       0.0314
  30 H6       -3.7464     1.3912     2.1457  H       1  <O>11       0.0272
  31 H7       -3.7710     2.2944     0.6118  H       1  <O>11       0.0272
  32 H8       -2.2687    -0.1879     1.3512  H       1  <O>11       0.0344
  33 H9       -3.2742     0.1558    -0.0771  H       1  <O>11       0.0344
  34 H10       1.9755     0.5572     1.8660  H       1  <O>11       0.0639
  35 H11       2.2687     0.8544     4.2567  H       1  <O>11       0.0655
  36 H12      -0.6568    -0.8033     8.5698  H       1  <O>11       0.0621
  37 H13      -0.3748    -0.5085    10.9615  H       1  <O>11       0.0619
  38 H14       0.6943     1.4956    11.8278  H       1  <O>11       0.0646
  39 H15       1.2150     2.9168     7.8968  H       1  <O>11       0.0650
  40 H16      -1.4598     2.7695     4.4968  H       1  <O>11       0.0657
@<TRIPOS>BOND
     1     1     2    2
     2     2     3   ar
     3     3     4   ar
     4     4     5   ar
     5     5     6   ar
     6     2     6   ar
     7     6     7    1
     8     7     8   ar
     9     8     9   ar
    10     9    10   ar
    11    10    11    1
    12    11    12    1
    13    12    13    1
    14    13    14   ar
    15    14    15   ar
    16    15    16   ar
    17    16    17   ar
    18    17    18    1
    19    17    19   ar
    20    13    19   ar
    21    10    20   ar
    22    20    21   ar
    23     7    21   ar
    24    21    22    1
    25    22    23    1
    26    23    24    1
    27     5    24    1
    28     3    25    1
    29    12    26    1
    30    12    27    1
    31    22    28    1
    32    22    29    1
    33    23    30    1
    34    23    31    1
    35    24    32    1
    36    24    33    1
    37     8    34    1
    38     9    35    1
    39    14    36    1
    40    15    37    1
    41    16    38    1
    42    19    39    1
    43    20    40    1
@<TRIPOS>MOLECULE
mol62_1_15
 40 43 0 0 0
SMALL
USER_CHARGES
****
VDW energy = -22.31
@<TRIPOS>ATOM
   1 O1        2.0963     1.8046    -0.3877  O.2     1  <O>11      -0.2446
   2 C1        0.7771     1.3854    -0.6455  C.ar    1  <O>11       0.3487
   3 N1        0.1614     1.0457    -1.7625  N.ar    1  <O>11      -0.2263
   4 N2       -1.1399     0.7478    -1.4694  N.ar    1  <O>11      -0.1561
   5 C2       -1.3077     0.8947    -0.1743  C.ar    1  <O>11       0.1384
   6 N3       -0.1140     1.2800     0.4106  N.ar    1  <O>11      -0.2473
   7 C3        0.0822     1.4986     1.7975  C.ar    1  <O>11       0.0560
   8 C4        1.2445     1.0283     2.4216  C.ar    1  <O>11      -0.0339
   9 C5        1.4116     1.1983     3.7962  C.ar    1  <O>11      -0.0180
  10 C6        0.4251     1.8308     4.5488  C.ar    1  <O>11       0.1214
  11 O2        0.5950     1.9890     5.8950  O.3     1  <O>11      -0.4874
  12 C7        0.7334     0.7178     6.5069  C.3     1  <O>11       0.1147
  13 C8        0.9181     0.8901     7.9710  C.ar    1  <O>11      -0.0077
  14 C9       -0.0702     1.5268     8.7417  C.ar    1  <O>11      -0.0552
  15 C10       0.1105     1.6991    10.1177  C.ar    1  <O>11      -0.0587
  16 C11       1.2735     1.2366    10.7380  C.ar    1  <O>11      -0.0264
  17 C12       2.2549     0.5978     9.9722  C.ar    1  <O>11       0.1238
  18 F1        3.3949     0.1463    10.5855  F       1  <O>11      -0.2055
  19 C13       2.0832     0.4185     8.5992  C.ar    1  <O>11      -0.0201
  20 C14      -0.7340     2.3017     3.9316  C.ar    1  <O>11      -0.0148
  21 C15      -0.9228     2.1457     2.5507  C.ar    1  <O>11      -0.0199
  22 C16      -2.1357     2.7679     1.8974  C.3     1  <O>11      -0.0252
  23 C17      -3.1369     1.7651     1.3230  C.3     1  <O>11      -0.0421
  24 C18      -2.5288     0.5635     0.6057  C.3     1  <O>11       0.0081
  25 H1        0.5118     0.9887    -2.7081  H       1  <O>11       0.1937
  26 H2        1.6012     0.2056     6.0898  H       1  <O>11       0.0748
  27 H3       -0.1624     0.1247     6.3211  H       1  <O>11       0.0748
  28 H4       -2.6509     3.3721     2.6441  H       1  <O>11       0.0314
  29 H5       -1.7925     3.4083     1.0848  H       1  <O>11       0.0314
  30 H6       -3.7464     1.3912     2.1457  H       1  <O>11       0.0272
  31 H7       -3.7710     2.2944     0.6118  H       1  <O>11       0.0272
  32 H8       -2.2687    -0.1879     1.3512  H       1  <O>11       0.0344
  33 H9       -3.2742     0.1558    -0.0771  H       1  <O>11       0.0344
  34 H10       1.9755     0.5572     1.8660  H       1  <O>11       0.0639
  35 H11       2.2687     0.8544     4.2567  H       1  <O>11       0.0655
  36 H12      -0.9329     1.8687     8.2901  H       1  <O>11       0.0621
  37 H13      -0.6181     2.1696    10.6769  H       1  <O>11       0.0619
  38 H14       1.4078     1.3651    11.7531  H       1  <O>11       0.0646
  39 H15       2.8110    -0.0598     8.0457  H       1  <O>11       0.0650
  40 H16      -1.4598     2.7695     4.4968  H       1  <O>11       0.0657
@<TRIPOS>BOND
     1     1     2    2
     2     2     3   ar
     3     3     4   ar
     4     4     5   ar
     5     5     6   ar
     6     2     6   ar
     7     6     7    1
     8     7     8   ar
     9     8     9   ar
    10     9    10   ar
    11    10    11    1
    12    11    12    1
    13    12    13    1
    14    13    14   ar
    15    14    15   ar
    16    15    16   ar
    17    16    17   ar
    18    17    18    1
    19    17    19   ar
    20    13    19   ar
    21    10    20   ar
    22    20    21   ar
    23     7    21   ar
    24    21    22    1
    25    22    23    1
    26    23    24    1
    27     5    24    1
    28     3    25    1
    29    12    26    1
    30    12    27    1
    31    22    28    1
    32    22    29    1
    33    23    30    1
    34    23    31    1
    35    24    32    1
    36    24    33    1
    37     8    34    1
    38     9    35    1
    39    14    36    1
    40    15    37    1
    41    16    38    1
    42    19    39    1
    43    20    40    1
@<TRIPOS>MOLECULE
mol62_1_16
 40 43 0 0 0
SMALL
USER_CHARGES
****
VDW energy = -19.86
@<TRIPOS>ATOM
   1 O1        2.0963     1.8046    -0.3877  O.2     1  <O>11      -0.2446
   2 C1        0.7771     1.3854    -0.6455  C.ar    1  <O>11       0.3487
   3 N1        0.1614     1.0457    -1.7625  N.ar    1  <O>11      -0.2263
   4 N2       -1.1399     0.7478    -1.4694  N.ar    1  <O>11      -0.1561
   5 C2       -1.3077     0.8947    -0.1743  C.ar    1  <O>11       0.1384
   6 N3       -0.1140     1.2800     0.4106  N.ar    1  <O>11      -0.2473
   7 C3        0.0822     1.4986     1.7975  C.ar    1  <O>11       0.0560
   8 C4        1.2445     1.0283     2.4216  C.ar    1  <O>11      -0.0339
   9 C5        1.4116     1.1983     3.7962  C.ar    1  <O>11      -0.0180
  10 C6        0.4251     1.8308     4.5488  C.ar    1  <O>11       0.1214
  11 O2        0.5950     1.9890     5.8950  O.3     1  <O>11      -0.4874
  12 C7        1.7603     2.7590     6.1375  C.3     1  <O>11       0.1147
  13 C8        1.9449     2.9309     7.6015  C.ar    1  <O>11      -0.0077
  14 C9        3.0376     3.6624     8.0988  C.ar    1  <O>11      -0.0552
  15 C10       3.2167     3.8131     9.4776  C.ar    1  <O>11      -0.0587
  16 C11       2.3091     3.2404    10.3718  C.ar    1  <O>11      -0.0264
  17 C12       1.2185     2.5170     9.8772  C.ar    1  <O>11       0.1238
  18 F1        0.3309     1.9562    10.7588  F       1  <O>11      -0.2055
  19 C13       1.0292     2.3631     8.5034  C.ar    1  <O>11      -0.0201
  20 C14      -0.7340     2.3017     3.9316  C.ar    1  <O>11      -0.0148
  21 C15      -0.9228     2.1457     2.5507  C.ar    1  <O>11      -0.0199
  22 C16      -2.1357     2.7679     1.8974  C.3     1  <O>11      -0.0252
  23 C17      -3.1369     1.7651     1.3230  C.3     1  <O>11      -0.0421
  24 C18      -2.5288     0.5635     0.6057  C.3     1  <O>11       0.0081
  25 H1        0.5118     0.9887    -2.7081  H       1  <O>11       0.1937
  26 H2        1.6541     3.7376     5.6681  H       1  <O>11       0.0748
  27 H3        2.6280     2.2480     5.7194  H       1  <O>11       0.0748
  28 H4       -2.6509     3.3721     2.6441  H       1  <O>11       0.0314
  29 H5       -1.7925     3.4083     1.0848  H       1  <O>11       0.0314
  30 H6       -3.7464     1.3912     2.1457  H       1  <O>11       0.0272
  31 H7       -3.7710     2.2944     0.6118  H       1  <O>11       0.0272
  32 H8       -2.2687    -0.1879     1.3512  H       1  <O>11       0.0344
  33 H9       -3.2742     0.1558    -0.0771  H       1  <O>11       0.0344
  34 H10       1.9755     0.5572     1.8660  H       1  <O>11       0.0639
  35 H11       2.2687     0.8544     4.2567  H       1  <O>11       0.0655
  36 H12       3.7104     4.0902     7.4436  H       1  <O>11       0.0621
  37 H13       4.0224     4.3493     9.8357  H       1  <O>11       0.0619
  38 H14       2.4421     3.3501    11.3893  H       1  <O>11       0.0646
  39 H15       0.2175     1.8327     8.1501  H       1  <O>11       0.0650
  40 H16      -1.4598     2.7695     4.4968  H       1  <O>11       0.0657
@<TRIPOS>BOND
     1     1     2    2
     2     2     3   ar
     3     3     4   ar
     4     4     5   ar
     5     5     6   ar
     6     2     6   ar
     7     6     7    1
     8     7     8   ar
     9     8     9   ar
    10     9    10   ar
    11    10    11    1
    12    11    12    1
    13    12    13    1
    14    13    14   ar
    15    14    15   ar
    16    15    16   ar
    17    16    17   ar
    18    17    18    1
    19    17    19   ar
    20    13    19   ar
    21    10    20   ar
    22    20    21   ar
    23     7    21   ar
    24    21    22    1
    25    22    23    1
    26    23    24    1
    27     5    24    1
    28     3    25    1
    29    12    26    1
    30    12    27    1
    31    22    28    1
    32    22    29    1
    33    23    30    1
    34    23    31    1
    35    24    32    1
    36    24    33    1
    37     8    34    1
    38     9    35    1
    39    14    36    1
    40    15    37    1
    41    16    38    1
    42    19    39    1
    43    20    40    1
@<TRIPOS>MOLECULE
mol62_1_17
 40 43 0 0 0
SMALL
USER_CHARGES
****
VDW energy = -19.83
@<TRIPOS>ATOM
   1 O1        2.0963     1.8046    -0.3877  O.2     1  <O>11      -0.2446
   2 C1        0.7771     1.3854    -0.6455  C.ar    1  <O>11       0.3487
   3 N1        0.1614     1.0457    -1.7625  N.ar    1  <O>11      -0.2263
   4 N2       -1.1399     0.7478    -1.4694  N.ar    1  <O>11      -0.1561
   5 C2       -1.3077     0.8947    -0.1743  C.ar    1  <O>11       0.1384
   6 N3       -0.1140     1.2800     0.4106  N.ar    1  <O>11      -0.2473
   7 C3        0.0822     1.4986     1.7975  C.ar    1  <O>11       0.0560
   8 C4        1.2445     1.0283     2.4216  C.ar    1  <O>11      -0.0339
   9 C5        1.4116     1.1983     3.7962  C.ar    1  <O>11      -0.0180
  10 C6        0.4251     1.8308     4.5488  C.ar    1  <O>11       0.1214
  11 O2        0.5950     1.9890     5.8950  O.3     1  <O>11      -0.4874
  12 C7        0.7334     0.7178     6.5069  C.3     1  <O>11       0.1147
  13 C8       -0.4877    -0.0896     6.2539  C.ar    1  <O>11      -0.0077
  14 C9       -1.7426     0.3614     6.6990  C.ar    1  <O>11      -0.0552
  15 C10      -2.8895    -0.4056     6.4707  C.ar    1  <O>11      -0.0587
  16 C11      -2.7976    -1.6248     5.7953  C.ar    1  <O>11      -0.0264
  17 C12      -1.5497    -2.0714     5.3471  C.ar    1  <O>11       0.1238
  18 F1       -1.4646    -3.2691     4.6853  F       1  <O>11      -0.2055
  19 C13      -0.3998    -1.3125     5.5674  C.ar    1  <O>11      -0.0201
  20 C14      -0.7340     2.3017     3.9316  C.ar    1  <O>11      -0.0148
  21 C15      -0.9228     2.1457     2.5507  C.ar    1  <O>11      -0.0199
  22 C16      -2.1357     2.7679     1.8974  C.3     1  <O>11      -0.0252
  23 C17      -3.1369     1.7651     1.3230  C.3     1  <O>11      -0.0421
  24 C18      -2.5288     0.5635     0.6057  C.3     1  <O>11       0.0081
  25 H1        0.5118     0.9887    -2.7081  H       1  <O>11       0.1937
  26 H2        0.8683     0.8440     7.5817  H       1  <O>11       0.0748
  27 H3        1.6007     0.2053     6.0898  H       1  <O>11       0.0748
  28 H4       -2.6509     3.3721     2.6441  H       1  <O>11       0.0314
  29 H5       -1.7925     3.4083     1.0848  H       1  <O>11       0.0314
  30 H6       -3.7464     1.3912     2.1457  H       1  <O>11       0.0272
  31 H7       -3.7710     2.2944     0.6118  H       1  <O>11       0.0272
  32 H8       -2.2687    -0.1879     1.3512  H       1  <O>11       0.0344
  33 H9       -3.2742     0.1558    -0.0771  H       1  <O>11       0.0344
  34 H10       1.9755     0.5572     1.8660  H       1  <O>11       0.0639
  35 H11       2.2687     0.8544     4.2567  H       1  <O>11       0.0655
  36 H12      -1.8178     1.2624     7.1965  H       1  <O>11       0.0621
  37 H13      -3.8070    -0.0695     6.8025  H       1  <O>11       0.0619
  38 H14      -3.6435    -2.1918     5.6281  H       1  <O>11       0.0646
  39 H15       0.5143    -1.6490     5.2266  H       1  <O>11       0.0650
  40 H16      -1.4598     2.7695     4.4968  H       1  <O>11       0.0657
@<TRIPOS>BOND
     1     1     2    2
     2     2     3   ar
     3     3     4   ar
     4     4     5   ar
     5     5     6   ar
     6     2     6   ar
     7     6     7    1
     8     7     8   ar
     9     8     9   ar
    10     9    10   ar
    11    10    11    1
    12    11    12    1
    13    12    13    1
    14    13    14   ar
    15    14    15   ar
    16    15    16   ar
    17    16    17   ar
    18    17    18    1
    19    17    19   ar
    20    13    19   ar
    21    10    20   ar
    22    20    21   ar
    23     7    21   ar
    24    21    22    1
    25    22    23    1
    26    23    24    1
    27     5    24    1
    28     3    25    1
    29    12    26    1
    30    12    27    1
    31    22    28    1
    32    22    29    1
    33    23    30    1
    34    23    31    1
    35    24    32    1
    36    24    33    1
    37     8    34    1
    38     9    35    1
    39    14    36    1
    40    15    37    1
    41    16    38    1
    42    19    39    1
    43    20    40    1
@<TRIPOS>MOLECULE
mol62_1_18
 40 43 0 0 0
SMALL
USER_CHARGES
****
VDW energy = -19.35
@<TRIPOS>ATOM
   1 O1        2.0963     1.8046    -0.3877  O.2     1  <O>11      -0.2446
   2 C1        0.7771     1.3854    -0.6455  C.ar    1  <O>11       0.3487
   3 N1        0.1614     1.0457    -1.7625  N.ar    1  <O>11      -0.2263
   4 N2       -1.1399     0.7478    -1.4694  N.ar    1  <O>11      -0.1561
   5 C2       -1.3077     0.8947    -0.1743  C.ar    1  <O>11       0.1384
   6 N3       -0.1140     1.2800     0.4106  N.ar    1  <O>11      -0.2473
   7 C3        0.0822     1.4986     1.7975  C.ar    1  <O>11       0.0560
   8 C4        1.2445     1.0283     2.4216  C.ar    1  <O>11      -0.0339
   9 C5        1.4116     1.1983     3.7962  C.ar    1  <O>11      -0.0180
  10 C6        0.4251     1.8308     4.5488  C.ar    1  <O>11       0.1214
  11 O2        0.5950     1.9890     5.8950  O.3     1  <O>11      -0.4874
  12 C7        0.7334     0.7178     6.5069  C.3     1  <O>11       0.1147
  13 C8        0.9181     0.8901     7.9710  C.ar    1  <O>11      -0.0077
  14 C9        1.0789    -0.2312     8.8036  C.ar    1  <O>11      -0.0552
  15 C10       1.2404    -0.0680    10.1831  C.ar    1  <O>11      -0.0587
  16 C11       1.2468     1.2112    10.7443  C.ar    1  <O>11      -0.0264
  17 C12       1.0925     2.3276     9.9153  C.ar    1  <O>11       0.1238
  18 F1        1.0986     3.5809    10.4710  F       1  <O>11      -0.2055
  19 C13       0.9333     2.1758     8.5375  C.ar    1  <O>11      -0.0201
  20 C14      -0.7340     2.3017     3.9316  C.ar    1  <O>11      -0.0148
  21 C15      -0.9228     2.1457     2.5507  C.ar    1  <O>11      -0.0199
  22 C16      -2.1357     2.7679     1.8974  C.3     1  <O>11      -0.0252
  23 C17      -3.1369     1.7651     1.3230  C.3     1  <O>11      -0.0421
  24 C18      -2.5288     0.5635     0.6057  C.3     1  <O>11       0.0081
  25 H1        0.5118     0.9887    -2.7081  H       1  <O>11       0.1937
  26 H2        1.6012     0.2056     6.0898  H       1  <O>11       0.0748
  27 H3       -0.1624     0.1247     6.3211  H       1  <O>11       0.0748
  28 H4       -2.6509     3.3721     2.6441  H       1  <O>11       0.0314
  29 H5       -1.7925     3.4083     1.0848  H       1  <O>11       0.0314
  30 H6       -3.7464     1.3912     2.1457  H       1  <O>11       0.0272
  31 H7       -3.7710     2.2944     0.6118  H       1  <O>11       0.0272
  32 H8       -2.2687    -0.1879     1.3512  H       1  <O>11       0.0344
  33 H9       -3.2742     0.1558    -0.0771  H       1  <O>11       0.0344
  34 H10       1.9755     0.5572     1.8660  H       1  <O>11       0.0639
  35 H11       2.2687     0.8544     4.2567  H       1  <O>11       0.0655
  36 H12       1.0776    -1.1789     8.3951  H       1  <O>11       0.0621
  37 H13       1.3554    -0.8957    10.7886  H       1  <O>11       0.0619
  38 H14       1.3643     1.3317    11.7625  H       1  <O>11       0.0646
  39 H15       0.8267     3.0070     7.9352  H       1  <O>11       0.0650
  40 H16      -1.4598     2.7695     4.4968  H       1  <O>11       0.0657
@<TRIPOS>BOND
     1     1     2    2
     2     2     3   ar
     3     3     4   ar
     4     4     5   ar
     5     5     6   ar
     6     2     6   ar
     7     6     7    1
     8     7     8   ar
     9     8     9   ar
    10     9    10   ar
    11    10    11    1
    12    11    12    1
    13    12    13    1
    14    13    14   ar
    15    14    15   ar
    16    15    16   ar
    17    16    17   ar
    18    17    18    1
    19    17    19   ar
    20    13    19   ar
    21    10    20   ar
    22    20    21   ar
    23     7    21   ar
    24    21    22    1
    25    22    23    1
    26    23    24    1
    27     5    24    1
    28     3    25    1
    29    12    26    1
    30    12    27    1
    31    22    28    1
    32    22    29    1
    33    23    30    1
    34    23    31    1
    35    24    32    1
    36    24    33    1
    37     8    34    1
    38     9    35    1
    39    14    36    1
    40    15    37    1
    41    16    38    1
    42    19    39    1
    43    20    40    1
@<TRIPOS>MOLECULE
mol62_1_19
 40 43 0 0 0
SMALL
USER_CHARGES
****
VDW energy = -18.59
@<TRIPOS>ATOM
   1 O1        2.0963     1.8046    -0.3877  O.2     1  <O>11      -0.2446
   2 C1        0.7771     1.3854    -0.6455  C.ar    1  <O>11       0.3487
   3 N1        0.1614     1.0457    -1.7625  N.ar    1  <O>11      -0.2263
   4 N2       -1.1399     0.7478    -1.4694  N.ar    1  <O>11      -0.1561
   5 C2       -1.3077     0.8947    -0.1743  C.ar    1  <O>11       0.1384
   6 N3       -0.1140     1.2800     0.4106  N.ar    1  <O>11      -0.2473
   7 C3        0.0822     1.4986     1.7975  C.ar    1  <O>11       0.0560
   8 C4        1.2445     1.0283     2.4216  C.ar    1  <O>11      -0.0339
   9 C5        1.4116     1.1983     3.7962  C.ar    1  <O>11      -0.0180
  10 C6        0.4251     1.8308     4.5488  C.ar    1  <O>11       0.1214
  11 O2        0.5950     1.9890     5.8950  O.3     1  <O>11      -0.4874
  12 C7        0.0610     0.8653     6.5745  C.3     1  <O>11       0.1147
  13 C8       -1.3880     0.7443     6.2695  C.ar    1  <O>11      -0.0077
  14 C9       -2.2727     1.7861     6.5985  C.ar    1  <O>11      -0.0552
  15 C10      -3.6382     1.6657     6.3218  C.ar    1  <O>11      -0.0587
  16 C11      -4.1336     0.5102     5.7130  C.ar    1  <O>11      -0.0264
  17 C12      -3.2526    -0.5245     5.3802  C.ar    1  <O>11       0.1238
  18 F1       -3.7437    -1.6569     4.7835  F       1  <O>11      -0.2055
  19 C13      -1.8881    -0.4133     5.6496  C.ar    1  <O>11      -0.0201
  20 C14      -0.7340     2.3017     3.9316  C.ar    1  <O>11      -0.0148
  21 C15      -0.9228     2.1457     2.5507  C.ar    1  <O>11      -0.0199
  22 C16      -2.1357     2.7679     1.8974  C.3     1  <O>11      -0.0252
  23 C17      -3.1369     1.7651     1.3230  C.3     1  <O>11      -0.0421
  24 C18      -2.5288     0.5635     0.6057  C.3     1  <O>11       0.0081
  25 H1        0.5118     0.9887    -2.7081  H       1  <O>11       0.1937
  26 H2        0.1959     0.9918     7.6492  H       1  <O>11       0.0748
  27 H3        0.5776    -0.0374     6.2474  H       1  <O>11       0.0748
  28 H4       -2.6509     3.3721     2.6441  H       1  <O>11       0.0314
  29 H5       -1.7925     3.4083     1.0848  H       1  <O>11       0.0314
  30 H6       -3.7464     1.3912     2.1457  H       1  <O>11       0.0272
  31 H7       -3.7710     2.2944     0.6118  H       1  <O>11       0.0272
  32 H8       -2.2687    -0.1879     1.3512  H       1  <O>11       0.0344
  33 H9       -3.2742     0.1558    -0.0771  H       1  <O>11       0.0344
  34 H10       1.9755     0.5572     1.8660  H       1  <O>11       0.0639
  35 H11       2.2687     0.8544     4.2567  H       1  <O>11       0.0655
  36 H12      -1.9129     2.6435     7.0462  H       1  <O>11       0.0621
  37 H13      -4.2823     2.4334     6.5683  H       1  <O>11       0.0619
  38 H14      -5.1414     0.4204     5.5102  H       1  <O>11       0.0646
  39 H15      -1.2469    -1.1803     5.3938  H       1  <O>11       0.0650
  40 H16      -1.4598     2.7695     4.4968  H       1  <O>11       0.0657
@<TRIPOS>BOND
     1     1     2    2
     2     2     3   ar
     3     3     4   ar
     4     4     5   ar
     5     5     6   ar
     6     2     6   ar
     7     6     7    1
     8     7     8   ar
     9     8     9   ar
    10     9    10   ar
    11    10    11    1
    12    11    12    1
    13    12    13    1
    14    13    14   ar
    15    14    15   ar
    16    15    16   ar
    17    16    17   ar
    18    17    18    1
    19    17    19   ar
    20    13    19   ar
    21    10    20   ar
    22    20    21   ar
    23     7    21   ar
    24    21    22    1
    25    22    23    1
    26    23    24    1
    27     5    24    1
    28     3    25    1
    29    12    26    1
    30    12    27    1
    31    22    28    1
    32    22    29    1
    33    23    30    1
    34    23    31    1
    35    24    32    1
    36    24    33    1
    37     8    34    1
    38     9    35    1
    39    14    36    1
    40    15    37    1
    41    16    38    1
    42    19    39    1
    43    20    40    1
@<TRIPOS>MOLECULE
mol62_1_20
 40 43 0 0 0
SMALL
USER_CHARGES
****
VDW energy = -17.55
@<TRIPOS>ATOM
   1 O1        2.0963     1.8046    -0.3877  O.2     1  <O>11      -0.2446
   2 C1        0.7771     1.3854    -0.6455  C.ar    1  <O>11       0.3487
   3 N1        0.1614     1.0457    -1.7625  N.ar    1  <O>11      -0.2263
   4 N2       -1.1399     0.7478    -1.4694  N.ar    1  <O>11      -0.1561
   5 C2       -1.3077     0.8947    -0.1743  C.ar    1  <O>11       0.1384
   6 N3       -0.1140     1.2800     0.4106  N.ar    1  <O>11      -0.2473
   7 C3        0.0822     1.4986     1.7975  C.ar    1  <O>11       0.0560
   8 C4        1.2445     1.0283     2.4216  C.ar    1  <O>11      -0.0339
   9 C5        1.4116     1.1983     3.7962  C.ar    1  <O>11      -0.0180
  10 C6        0.4251     1.8308     4.5488  C.ar    1  <O>11       0.1214
  11 O2        0.5950     1.9890     5.8950  O.3     1  <O>11      -0.4874
  12 C7        1.2467     3.2223     6.1479  C.3     1  <O>11       0.1147
  13 C8        2.5726     3.2287     5.4777  C.ar    1  <O>11      -0.0077
  14 C9        3.5406     2.2644     5.8086  C.ar    1  <O>11      -0.0552
  15 C10       4.7926     2.2791     5.1857  C.ar    1  <O>11      -0.0587
  16 C11       5.0901     3.2504     4.2269  C.ar    1  <O>11      -0.0264
  17 C12       4.1250     4.2068     3.8931  C.ar    1  <O>11       0.1238
  18 F1        4.4220     5.1585     2.9520  F       1  <O>11      -0.2055
  19 C13       2.8719     4.1993     4.5068  C.ar    1  <O>11      -0.0201
  20 C14      -0.7340     2.3017     3.9316  C.ar    1  <O>11      -0.0148
  21 C15      -0.9228     2.1457     2.5507  C.ar    1  <O>11      -0.0199
  22 C16      -2.1357     2.7679     1.8974  C.3     1  <O>11      -0.0252
  23 C17      -3.1369     1.7651     1.3230  C.3     1  <O>11      -0.0421
  24 C18      -2.5288     0.5635     0.6057  C.3     1  <O>11       0.0081
  25 H1        0.5118     0.9887    -2.7081  H       1  <O>11       0.1937
  26 H2        1.3830     3.3483     7.2225  H       1  <O>11       0.0748
  27 H3        0.6398     4.0410     5.7603  H       1  <O>11       0.0748
  28 H4       -2.6509     3.3721     2.6441  H       1  <O>11       0.0314
  29 H5       -1.7925     3.4083     1.0848  H       1  <O>11       0.0314
  30 H6       -3.7464     1.3912     2.1457  H       1  <O>11       0.0272
  31 H7       -3.7710     2.2944     0.6118  H       1  <O>11       0.0272
  32 H8       -2.2687    -0.1879     1.3512  H       1  <O>11       0.0344
  33 H9       -3.2742     0.1558    -0.0771  H       1  <O>11       0.0344
  34 H10       1.9755     0.5572     1.8660  H       1  <O>11       0.0639
  35 H11       2.2687     0.8544     4.2567  H       1  <O>11       0.0655
  36 H12       3.3264     1.5426     6.5144  H       1  <O>11       0.0621
  37 H13       5.4993     1.5697     5.4353  H       1  <O>11       0.0619
  38 H14       6.0145     3.2624     3.7683  H       1  <O>11       0.0646
  39 H15       2.1657     4.9059     4.2479  H       1  <O>11       0.0650
  40 H16      -1.4598     2.7695     4.4968  H       1  <O>11       0.0657
@<TRIPOS>BOND
     1     1     2    2
     2     2     3   ar
     3     3     4   ar
     4     4     5   ar
     5     5     6   ar
     6     2     6   ar
     7     6     7    1
     8     7     8   ar
     9     8     9   ar
    10     9    10   ar
    11    10    11    1
    12    11    12    1
    13    12    13    1
    14    13    14   ar
    15    14    15   ar
    16    15    16   ar
    17    16    17   ar
    18    17    18    1
    19    17    19   ar
    20    13    19   ar
    21    10    20   ar
    22    20    21   ar
    23     7    21   ar
    24    21    22    1
    25    22    23    1
    26    23    24    1
    27     5    24    1
    28     3    25    1
    29    12    26    1
    30    12    27    1
    31    22    28    1
    32    22    29    1
    33    23    30    1
    34    23    31    1
    35    24    32    1
    36    24    33    1
    37     8    34    1
    38     9    35    1
    39    14    36    1
    40    15    37    1
    41    16    38    1
    42    19    39    1
    43    20    40    1
@<TRIPOS>MOLECULE
mol62_1_21
 40 43 0 0 0
SMALL
USER_CHARGES
****
VDW energy = -16.78
@<TRIPOS>ATOM
   1 O1        2.0963     1.8046    -0.3877  O.2     1  <O>11      -0.2446
   2 C1        0.7771     1.3854    -0.6455  C.ar    1  <O>11       0.3487
   3 N1        0.1614     1.0457    -1.7625  N.ar    1  <O>11      -0.2263
   4 N2       -1.1399     0.7478    -1.4694  N.ar    1  <O>11      -0.1561
   5 C2       -1.3077     0.8947    -0.1743  C.ar    1  <O>11       0.1384
   6 N3       -0.1140     1.2800     0.4106  N.ar    1  <O>11      -0.2473
   7 C3        0.0822     1.4986     1.7975  C.ar    1  <O>11       0.0560
   8 C4        1.2445     1.0283     2.4216  C.ar    1  <O>11      -0.0339
   9 C5        1.4116     1.1983     3.7962  C.ar    1  <O>11      -0.0180
  10 C6        0.4251     1.8308     4.5488  C.ar    1  <O>11       0.1214
  11 O2        0.5950     1.9890     5.8950  O.3     1  <O>11      -0.4874
  12 C7        0.0610     0.8653     6.5745  C.3     1  <O>11       0.1147
  13 C8       -1.3880     0.7443     6.2695  C.ar    1  <O>11      -0.0077
  14 C9       -1.8213    -0.0146     5.1683  C.ar    1  <O>11      -0.0552
  15 C10      -3.1848    -0.1176     4.8753  C.ar    1  <O>11      -0.0587
  16 C11      -4.1277     0.5304     5.6769  C.ar    1  <O>11      -0.0264
  17 C12      -3.6972     1.2812     6.7762  C.ar    1  <O>11       0.1238
  18 F1       -4.6263     1.9159     7.5595  F       1  <O>11      -0.2055
  19 C13      -2.3393     1.3881     7.0787  C.ar    1  <O>11      -0.0201
  20 C14      -0.7340     2.3017     3.9316  C.ar    1  <O>11      -0.0148
  21 C15      -0.9228     2.1457     2.5507  C.ar    1  <O>11      -0.0199
  22 C16      -2.1357     2.7679     1.8974  C.3     1  <O>11      -0.0252
  23 C17      -3.1369     1.7651     1.3230  C.3     1  <O>11      -0.0421
  24 C18      -2.5288     0.5635     0.6057  C.3     1  <O>11       0.0081
  25 H1        0.5118     0.9887    -2.7081  H       1  <O>11       0.1937
  26 H2        0.1959     0.9918     7.6492  H       1  <O>11       0.0748
  27 H3        0.5776    -0.0374     6.2474  H       1  <O>11       0.0748
  28 H4       -2.6509     3.3721     2.6441  H       1  <O>11       0.0314
  29 H5       -1.7925     3.4083     1.0848  H       1  <O>11       0.0314
  30 H6       -3.7464     1.3912     2.1457  H       1  <O>11       0.0272
  31 H7       -3.7710     2.2944     0.6118  H       1  <O>11       0.0272
  32 H8       -2.2687    -0.1879     1.3512  H       1  <O>11       0.0344
  33 H9       -3.2742     0.1558    -0.0771  H       1  <O>11       0.0344
  34 H10       1.9755     0.5572     1.8660  H       1  <O>11       0.0639
  35 H11       2.2687     0.8544     4.2567  H       1  <O>11       0.0655
  36 H12      -1.1301    -0.4978     4.5735  H       1  <O>11       0.0621
  37 H13      -3.4957    -0.6743     4.0639  H       1  <O>11       0.0619
  38 H14      -5.1338     0.4559     5.4599  H       1  <O>11       0.0646
  39 H15      -2.0340     1.9394     7.8959  H       1  <O>11       0.0650
  40 H16      -1.4598     2.7695     4.4968  H       1  <O>11       0.0657
@<TRIPOS>BOND
     1     1     2    2
     2     2     3   ar
     3     3     4   ar
     4     4     5   ar
     5     5     6   ar
     6     2     6   ar
     7     6     7    1
     8     7     8   ar
     9     8     9   ar
    10     9    10   ar
    11    10    11    1
    12    11    12    1
    13    12    13    1
    14    13    14   ar
    15    14    15   ar
    16    15    16   ar
    17    16    17   ar
    18    17    18    1
    19    17    19   ar
    20    13    19   ar
    21    10    20   ar
    22    20    21   ar
    23     7    21   ar
    24    21    22    1
    25    22    23    1
    26    23    24    1
    27     5    24    1
    28     3    25    1
    29    12    26    1
    30    12    27    1
    31    22    28    1
    32    22    29    1
    33    23    30    1
    34    23    31    1
    35    24    32    1
    36    24    33    1
    37     8    34    1
    38     9    35    1
    39    14    36    1
    40    15    37    1
    41    16    38    1
    42    19    39    1
    43    20    40    1
@<TRIPOS>MOLECULE
mol62_1_22
 40 43 0 0 0
SMALL
USER_CHARGES
****
VDW energy = -16.06
@<TRIPOS>ATOM
   1 O1        2.0963     1.8046    -0.3877  O.2     1  <O>11      -0.2446
   2 C1        0.7771     1.3854    -0.6455  C.ar    1  <O>11       0.3487
   3 N1        0.1614     1.0457    -1.7625  N.ar    1  <O>11      -0.2263
   4 N2       -1.1399     0.7478    -1.4694  N.ar    1  <O>11      -0.1561
   5 C2       -1.3077     0.8947    -0.1743  C.ar    1  <O>11       0.1384
   6 N3       -0.1140     1.2800     0.4106  N.ar    1  <O>11      -0.2473
   7 C3        0.0822     1.4986     1.7975  C.ar    1  <O>11       0.0560
   8 C4        1.2445     1.0283     2.4216  C.ar    1  <O>11      -0.0339
   9 C5        1.4116     1.1983     3.7962  C.ar    1  <O>11      -0.0180
  10 C6        0.4251     1.8308     4.5488  C.ar    1  <O>11       0.1214
  11 O2        0.5950     1.9890     5.8950  O.3     1  <O>11      -0.4874
  12 C7        1.2467     3.2223     6.1479  C.3     1  <O>11       0.1147
  13 C8        2.5726     3.2287     5.4777  C.ar    1  <O>11      -0.0077
  14 C9        2.7007     3.7034     4.1607  C.ar    1  <O>11      -0.0552
  15 C10       3.9473     3.6975     3.5268  C.ar    1  <O>11      -0.0587
  16 C11       5.0761     3.2227     4.1990  C.ar    1  <O>11      -0.0264
  17 C12       4.9500     2.7553     5.5116  C.ar    1  <O>11       0.1238
  18 F1        6.0607     2.2897     6.1668  F       1  <O>11      -0.2055
  19 C13       3.7114     2.7595     6.1539  C.ar    1  <O>11      -0.0201
  20 C14      -0.7340     2.3017     3.9316  C.ar    1  <O>11      -0.0148
  21 C15      -0.9228     2.1457     2.5507  C.ar    1  <O>11      -0.0199
  22 C16      -2.1357     2.7679     1.8974  C.3     1  <O>11      -0.0252
  23 C17      -3.1369     1.7651     1.3230  C.3     1  <O>11      -0.0421
  24 C18      -2.5288     0.5635     0.6057  C.3     1  <O>11       0.0081
  25 H1        0.5118     0.9887    -2.7081  H       1  <O>11       0.1937
  26 H2        1.3830     3.3483     7.2225  H       1  <O>11       0.0748
  27 H3        0.6398     4.0410     5.7603  H       1  <O>11       0.0748
  28 H4       -2.6509     3.3721     2.6441  H       1  <O>11       0.0314
  29 H5       -1.7925     3.4083     1.0848  H       1  <O>11       0.0314
  30 H6       -3.7464     1.3912     2.1457  H       1  <O>11       0.0272
  31 H7       -3.7710     2.2944     0.6118  H       1  <O>11       0.0272
  32 H8       -2.2687    -0.1879     1.3512  H       1  <O>11       0.0344
  33 H9       -3.2742     0.1558    -0.0771  H       1  <O>11       0.0344
  34 H10       1.9755     0.5572     1.8660  H       1  <O>11       0.0639
  35 H11       2.2687     0.8544     4.2567  H       1  <O>11       0.0655
  36 H12       1.8712     4.0578     3.6593  H       1  <O>11       0.0621
  37 H13       4.0336     4.0451     2.5591  H       1  <O>11       0.0619
  38 H14       5.9958     3.2167     3.7308  H       1  <O>11       0.0646
  39 H15       3.6317     2.4183     7.1246  H       1  <O>11       0.0650
  40 H16      -1.4598     2.7695     4.4968  H       1  <O>11       0.0657
@<TRIPOS>BOND
     1     1     2    2
     2     2     3   ar
     3     3     4   ar
     4     4     5   ar
     5     5     6   ar
     6     2     6   ar
     7     6     7    1
     8     7     8   ar
     9     8     9   ar
    10     9    10   ar
    11    10    11    1
    12    11    12    1
    13    12    13    1
    14    13    14   ar
    15    14    15   ar
    16    15    16   ar
    17    16    17   ar
    18    17    18    1
    19    17    19   ar
    20    13    19   ar
    21    10    20   ar
    22    20    21   ar
    23     7    21   ar
    24    21    22    1
    25    22    23    1
    26    23    24    1
    27     5    24    1
    28     3    25    1
    29    12    26    1
    30    12    27    1
    31    22    28    1
    32    22    29    1
    33    23    30    1
    34    23    31    1
    35    24    32    1
    36    24    33    1
    37     8    34    1
    38     9    35    1
    39    14    36    1
    40    15    37    1
    41    16    38    1
    42    19    39    1
    43    20    40    1
@<TRIPOS>MOLECULE
mol62_1_23
 40 43 0 0 0
SMALL
USER_CHARGES
****
VDW energy = -9.44
@<TRIPOS>ATOM
   1 O1        2.0963     1.8046    -0.3877  O.2     1  <O>11      -0.2446
   2 C1        0.7771     1.3854    -0.6455  C.ar    1  <O>11       0.3487
   3 N1        0.1614     1.0457    -1.7625  N.ar    1  <O>11      -0.2263
   4 N2       -1.1399     0.7478    -1.4694  N.ar    1  <O>11      -0.1561
   5 C2       -1.3077     0.8947    -0.1743  C.ar    1  <O>11       0.1384
   6 N3       -0.1140     1.2800     0.4106  N.ar    1  <O>11      -0.2473
   7 C3        0.0822     1.4986     1.7975  C.ar    1  <O>11       0.0560
   8 C4        1.2445     1.0283     2.4216  C.ar    1  <O>11      -0.0339
   9 C5        1.4116     1.1983     3.7962  C.ar    1  <O>11      -0.0180
  10 C6        0.4251     1.8308     4.5488  C.ar    1  <O>11       0.1214
  11 O2        0.5950     1.9890     5.8950  O.3     1  <O>11      -0.4874
  12 C7       -0.5322     2.6546     6.4391  C.3     1  <O>11       0.1147
  13 C8       -0.3472     2.8266     7.9031  C.ar    1  <O>11      -0.0077
  14 C9        0.2794     3.9786     8.4095  C.ar    1  <O>11      -0.0552
  15 C10       0.4637     4.1335     9.7871  C.ar    1  <O>11      -0.0587
  16 C11       0.0234     3.1458    10.6714  C.ar    1  <O>11      -0.0264
  17 C12      -0.6053     2.0017    10.1681  C.ar    1  <O>11       0.1238
  18 F1       -1.0350     1.0348    11.0400  F       1  <O>11      -0.2055
  19 C13      -0.7964     1.8387     8.7957  C.ar    1  <O>11      -0.0201
  20 C14      -0.7340     2.3017     3.9316  C.ar    1  <O>11      -0.0148
  21 C15      -0.9228     2.1457     2.5507  C.ar    1  <O>11      -0.0199
  22 C16      -2.1357     2.7679     1.8974  C.3     1  <O>11      -0.0252
  23 C17      -3.1369     1.7651     1.3230  C.3     1  <O>11      -0.0421
  24 C18      -2.5288     0.5635     0.6057  C.3     1  <O>11       0.0081
  25 H1        0.5118     0.9887    -2.7081  H       1  <O>11       0.1937
  26 H2       -1.4290     2.0622     6.2541  H       1  <O>11       0.0748
  27 H3       -0.6396     3.6325     5.9691  H       1  <O>11       0.0748
  28 H4       -2.6509     3.3721     2.6441  H       1  <O>11       0.0314
  29 H5       -1.7925     3.4083     1.0848  H       1  <O>11       0.0314
  30 H6       -3.7464     1.3912     2.1457  H       1  <O>11       0.0272
  31 H7       -3.7710     2.2944     0.6118  H       1  <O>11       0.0272
  32 H8       -2.2687    -0.1879     1.3512  H       1  <O>11       0.0344
  33 H9       -3.2742     0.1558    -0.0771  H       1  <O>11       0.0344
  34 H10       1.9755     0.5572     1.8660  H       1  <O>11       0.0639
  35 H11       2.2687     0.8544     4.2567  H       1  <O>11       0.0655
  36 H12       0.6048     4.7132     7.7619  H       1  <O>11       0.0621
  37 H13       0.9267     4.9806    10.1518  H       1  <O>11       0.0619
  38 H14       0.1609     3.2591    11.6879  H       1  <O>11       0.0646
  39 H15      -1.2672     0.9935     8.4365  H       1  <O>11       0.0650
  40 H16      -1.4598     2.7695     4.4968  H       1  <O>11       0.0657
@<TRIPOS>BOND
     1     1     2    2
     2     2     3   ar
     3     3     4   ar
     4     4     5   ar
     5     5     6   ar
     6     2     6   ar
     7     6     7    1
     8     7     8   ar
     9     8     9   ar
    10     9    10   ar
    11    10    11    1
    12    11    12    1
    13    12    13    1
    14    13    14   ar
    15    14    15   ar
    16    15    16   ar
    17    16    17   ar
    18    17    18    1
    19    17    19   ar
    20    13    19   ar
    21    10    20   ar
    22    20    21   ar
    23     7    21   ar
    24    21    22    1
    25    22    23    1
    26    23    24    1
    27     5    24    1
    28     3    25    1
    29    12    26    1
    30    12    27    1
    31    22    28    1
    32    22    29    1
    33    23    30    1
    34    23    31    1
    35    24    32    1
    36    24    33    1
    37     8    34    1
    38     9    35    1
    39    14    36    1
    40    15    37    1
    41    16    38    1
    42    19    39    1
    43    20    40    1
@<TRIPOS>MOLECULE
mol62_1_24
 40 43 0 0 0
SMALL
USER_CHARGES
****
VDW energy = -9.40
@<TRIPOS>ATOM
   1 O1        2.0963     1.8046    -0.3877  O.2     1  <O>11      -0.2446
   2 C1        0.7771     1.3854    -0.6455  C.ar    1  <O>11       0.3487
   3 N1        0.1614     1.0457    -1.7625  N.ar    1  <O>11      -0.2263
   4 N2       -1.1399     0.7478    -1.4694  N.ar    1  <O>11      -0.1561
   5 C2       -1.3077     0.8947    -0.1743  C.ar    1  <O>11       0.1384
   6 N3       -0.1140     1.2800     0.4106  N.ar    1  <O>11      -0.2473
   7 C3        0.0822     1.4986     1.7975  C.ar    1  <O>11       0.0560
   8 C4        1.2445     1.0283     2.4216  C.ar    1  <O>11      -0.0339
   9 C5        1.4116     1.1983     3.7962  C.ar    1  <O>11      -0.0180
  10 C6        0.4251     1.8308     4.5488  C.ar    1  <O>11       0.1214
  11 O2        0.5950     1.9890     5.8950  O.3     1  <O>11      -0.4874
  12 C7       -0.5320     2.6550     6.4390  C.3     1  <O>11       0.1147
  13 C8       -0.3470     2.8270     7.9030  C.ar    1  <O>11      -0.0077
  14 C9       -0.7971     1.8397     8.7969  C.ar    1  <O>11      -0.0552
  15 C10      -0.6331     2.0086    10.1754  C.ar    1  <O>11      -0.0587
  16 C11      -0.0176     3.1587    10.6750  C.ar    1  <O>11      -0.0264
  17 C12       0.4356     4.1389     9.7855  C.ar    1  <O>11       0.1238
  18 F1        1.0384     5.2663    10.2808  F       1  <O>11      -0.2055
  19 C13       0.2793     3.9789     8.4083  C.ar    1  <O>11      -0.0201
  20 C14      -0.7340     2.3017     3.9316  C.ar    1  <O>11      -0.0148
  21 C15      -0.9228     2.1457     2.5507  C.ar    1  <O>11      -0.0199
  22 C16      -2.1357     2.7679     1.8974  C.3     1  <O>11      -0.0252
  23 C17      -3.1369     1.7651     1.3230  C.3     1  <O>11      -0.0421
  24 C18      -2.5288     0.5635     0.6057  C.3     1  <O>11       0.0081
  25 H1        0.5118     0.9887    -2.7081  H       1  <O>11       0.1937
  26 H2       -1.4290     2.0630     6.2540  H       1  <O>11       0.0748
  27 H3       -0.6390     3.6330     5.9690  H       1  <O>11       0.0748
  28 H4       -2.6509     3.3721     2.6441  H       1  <O>11       0.0314
  29 H5       -1.7925     3.4083     1.0848  H       1  <O>11       0.0314
  30 H6       -3.7464     1.3912     2.1457  H       1  <O>11       0.0272
  31 H7       -3.7710     2.2944     0.6118  H       1  <O>11       0.0272
  32 H8       -2.2687    -0.1879     1.3512  H       1  <O>11       0.0344
  33 H9       -3.2742     0.1558    -0.0771  H       1  <O>11       0.0344
  34 H10       1.9755     0.5572     1.8660  H       1  <O>11       0.0639
  35 H11       2.2687     0.8544     4.2567  H       1  <O>11       0.0655
  36 H12      -1.2505     0.9865     8.4342  H       1  <O>11       0.0621
  37 H13      -0.9681     1.2809    10.8259  H       1  <O>11       0.0619
  38 H14       0.1020     3.2843    11.6923  H       1  <O>11       0.0646
  39 H15       0.6232     4.7057     7.7615  H       1  <O>11       0.0650
  40 H16      -1.4598     2.7695     4.4968  H       1  <O>11       0.0657
@<TRIPOS>BOND
     1     1     2    2
     2     2     3   ar
     3     3     4   ar
     4     4     5   ar
     5     5     6   ar
     6     2     6   ar
     7     6     7    1
     8     7     8   ar
     9     8     9   ar
    10     9    10   ar
    11    10    11    1
    12    11    12    1
    13    12    13    1
    14    13    14   ar
    15    14    15   ar
    16    15    16   ar
    17    16    17   ar
    18    17    18    1
    19    17    19   ar
    20    13    19   ar
    21    10    20   ar
    22    20    21   ar
    23     7    21   ar
    24    21    22    1
    25    22    23    1
    26    23    24    1
    27     5    24    1
    28     3    25    1
    29    12    26    1
    30    12    27    1
    31    22    28    1
    32    22    29    1
    33    23    30    1
    34    23    31    1
    35    24    32    1
    36    24    33    1
    37     8    34    1
    38     9    35    1
    39    14    36    1
    40    15    37    1
    41    16    38    1
    42    19    39    1
    43    20    40    1
@<TRIPOS>MOLECULE
mol62_1_25
 40 43 0 0 0
SMALL
USER_CHARGES
****
VDW energy = -8.92
@<TRIPOS>ATOM
   1 O1        2.0963     1.8046    -0.3877  O.2     1  <O>11      -0.2446
   2 C1        0.7771     1.3854    -0.6455  C.ar    1  <O>11       0.3487
   3 N1        0.1614     1.0457    -1.7625  N.ar    1  <O>11      -0.2263
   4 N2       -1.1399     0.7478    -1.4694  N.ar    1  <O>11      -0.1561
   5 C2       -1.3077     0.8947    -0.1743  C.ar    1  <O>11       0.1384
   6 N3       -0.1140     1.2800     0.4106  N.ar    1  <O>11      -0.2473
   7 C3        0.0822     1.4986     1.7975  C.ar    1  <O>11       0.0560
   8 C4        1.2445     1.0283     2.4216  C.ar    1  <O>11      -0.0339
   9 C5        1.4116     1.1983     3.7962  C.ar    1  <O>11      -0.0180
  10 C6        0.4251     1.8308     4.5488  C.ar    1  <O>11       0.1214
  11 O2        0.5950     1.9890     5.8950  O.3     1  <O>11      -0.4874
  12 C7       -0.5320     2.6550     6.4390  C.3     1  <O>11       0.1147
  13 C8       -0.3470     2.8270     7.9030  C.ar    1  <O>11      -0.0077
  14 C9        0.7461     3.5581     8.4000  C.ar    1  <O>11      -0.0552
  15 C10       0.9256     3.7089     9.7786  C.ar    1  <O>11      -0.0587
  16 C11       0.0179     3.1368    10.6731  C.ar    1  <O>11      -0.0264
  17 C12      -1.0732     2.4138    10.1788  C.ar    1  <O>11       0.1238
  18 F1       -1.9608     1.8536    11.0608  F       1  <O>11      -0.2055
  19 C13      -1.2629     2.2598     8.8051  C.ar    1  <O>11      -0.0201
  20 C14      -0.7340     2.3017     3.9316  C.ar    1  <O>11      -0.0148
  21 C15      -0.9228     2.1457     2.5507  C.ar    1  <O>11      -0.0199
  22 C16      -2.1357     2.7679     1.8974  C.3     1  <O>11      -0.0252
  23 C17      -3.1369     1.7651     1.3230  C.3     1  <O>11      -0.0421
  24 C18      -2.5288     0.5635     0.6057  C.3     1  <O>11       0.0081
  25 H1        0.5118     0.9887    -2.7081  H       1  <O>11       0.1937
  26 H2       -1.4290     2.0630     6.2540  H       1  <O>11       0.0748
  27 H3       -0.6390     3.6330     5.9690  H       1  <O>11       0.0748
  28 H4       -2.6509     3.3721     2.6441  H       1  <O>11       0.0314
  29 H5       -1.7925     3.4083     1.0848  H       1  <O>11       0.0314
  30 H6       -3.7464     1.3912     2.1457  H       1  <O>11       0.0272
  31 H7       -3.7710     2.2944     0.6118  H       1  <O>11       0.0272
  32 H8       -2.2687    -0.1879     1.3512  H       1  <O>11       0.0344
  33 H9       -3.2742     0.1558    -0.0771  H       1  <O>11       0.0344
  34 H10       1.9755     0.5572     1.8660  H       1  <O>11       0.0639
  35 H11       2.2687     0.8544     4.2567  H       1  <O>11       0.0655
  36 H12       1.4190     3.9854     7.7445  H       1  <O>11       0.0621
  37 H13       1.7316     4.2448    10.1365  H       1  <O>11       0.0619
  38 H14       0.1511     3.2465    11.6906  H       1  <O>11       0.0646
  39 H15      -2.0749     1.7298     8.4520  H       1  <O>11       0.0650
  40 H16      -1.4598     2.7695     4.4968  H       1  <O>11       0.0657
@<TRIPOS>BOND
     1     1     2    2
     2     2     3   ar
     3     3     4   ar
     4     4     5   ar
     5     5     6   ar
     6     2     6   ar
     7     6     7    1
     8     7     8   ar
     9     8     9   ar
    10     9    10   ar
    11    10    11    1
    12    11    12    1
    13    12    13    1
    14    13    14   ar
    15    14    15   ar
    16    15    16   ar
    17    16    17   ar
    18    17    18    1
    19    17    19   ar
    20    13    19   ar
    21    10    20   ar
    22    20    21   ar
    23     7    21   ar
    24    21    22    1
    25    22    23    1
    26    23    24    1
    27     5    24    1
    28     3    25    1
    29    12    26    1
    30    12    27    1
    31    22    28    1
    32    22    29    1
    33    23    30    1
    34    23    31    1
    35    24    32    1
    36    24    33    1
    37     8    34    1
    38     9    35    1
    39    14    36    1
    40    15    37    1
    41    16    38    1
    42    19    39    1
    43    20    40    1
@<TRIPOS>MOLECULE
mol62_1_26
 40 43 0 0 0
SMALL
USER_CHARGES
****
VDW energy = -8.89
@<TRIPOS>ATOM
   1 O1        2.0963     1.8046    -0.3877  O.2     1  <O>11      -0.2446
   2 C1        0.7771     1.3854    -0.6455  C.ar    1  <O>11       0.3487
   3 N1        0.1614     1.0457    -1.7625  N.ar    1  <O>11      -0.2263
   4 N2       -1.1399     0.7478    -1.4694  N.ar    1  <O>11      -0.1561
   5 C2       -1.3077     0.8947    -0.1743  C.ar    1  <O>11       0.1384
   6 N3       -0.1140     1.2800     0.4106  N.ar    1  <O>11      -0.2473
   7 C3        0.0822     1.4986     1.7975  C.ar    1  <O>11       0.0560
   8 C4        1.2445     1.0283     2.4216  C.ar    1  <O>11      -0.0339
   9 C5        1.4116     1.1983     3.7962  C.ar    1  <O>11      -0.0180
  10 C6        0.4251     1.8308     4.5488  C.ar    1  <O>11       0.1214
  11 O2        0.5950     1.9890     5.8950  O.3     1  <O>11      -0.4874
  12 C7       -0.5320     2.6550     6.4390  C.3     1  <O>11       0.1147
  13 C8       -0.3470     2.8270     7.9030  C.ar    1  <O>11      -0.0077
  14 C9       -0.1867     1.7056     8.7355  C.ar    1  <O>11      -0.0552
  15 C10      -0.0248     1.8685    10.1150  C.ar    1  <O>11      -0.0587
  16 C11      -0.0178     3.1476    10.6764  C.ar    1  <O>11      -0.0264
  17 C12      -0.1716     4.2642     9.8475  C.ar    1  <O>11       0.1238
  18 F1       -0.1647     5.5175    10.4034  F       1  <O>11      -0.2055
  19 C13      -0.3311     4.1127     8.4697  C.ar    1  <O>11      -0.0201
  20 C14      -0.7340     2.3017     3.9316  C.ar    1  <O>11      -0.0148
  21 C15      -0.9228     2.1457     2.5507  C.ar    1  <O>11      -0.0199
  22 C16      -2.1357     2.7679     1.8974  C.3     1  <O>11      -0.0252
  23 C17      -3.1369     1.7651     1.3230  C.3     1  <O>11      -0.0421
  24 C18      -2.5288     0.5635     0.6057  C.3     1  <O>11       0.0081
  25 H1        0.5118     0.9887    -2.7081  H       1  <O>11       0.1937
  26 H2       -1.4290     2.0630     6.2540  H       1  <O>11       0.0748
  27 H3       -0.6390     3.6330     5.9690  H       1  <O>11       0.0748
  28 H4       -2.6509     3.3721     2.6441  H       1  <O>11       0.0314
  29 H5       -1.7925     3.4083     1.0848  H       1  <O>11       0.0314
  30 H6       -3.7464     1.3912     2.1457  H       1  <O>11       0.0272
  31 H7       -3.7710     2.2944     0.6118  H       1  <O>11       0.0272
  32 H8       -2.2687    -0.1879     1.3512  H       1  <O>11       0.0344
  33 H9       -3.2742     0.1558    -0.0771  H       1  <O>11       0.0344
  34 H10       1.9755     0.5572     1.8660  H       1  <O>11       0.0639
  35 H11       2.2687     0.8544     4.2567  H       1  <O>11       0.0655
  36 H12      -0.1885     0.7580     8.3269  H       1  <O>11       0.0621
  37 H13       0.0898     1.0407    10.7204  H       1  <O>11       0.0619
  38 H14       0.1000     3.2680    11.6945  H       1  <O>11       0.0646
  39 H15      -0.4373     4.9440     7.8675  H       1  <O>11       0.0650
  40 H16      -1.4598     2.7695     4.4968  H       1  <O>11       0.0657
@<TRIPOS>BOND
     1     1     2    2
     2     2     3   ar
     3     3     4   ar
     4     4     5   ar
     5     5     6   ar
     6     2     6   ar
     7     6     7    1
     8     7     8   ar
     9     8     9   ar
    10     9    10   ar
    11    10    11    1
    12    11    12    1
    13    12    13    1
    14    13    14   ar
    15    14    15   ar
    16    15    16   ar
    17    16    17   ar
    18    17    18    1
    19    17    19   ar
    20    13    19   ar
    21    10    20   ar
    22    20    21   ar
    23     7    21   ar
    24    21    22    1
    25    22    23    1
    26    23    24    1
    27     5    24    1
    28     3    25    1
    29    12    26    1
    30    12    27    1
    31    22    28    1
    32    22    29    1
    33    23    30    1
    34    23    31    1
    35    24    32    1
    36    24    33    1
    37     8    34    1
    38     9    35    1
    39    14    36    1
    40    15    37    1
    41    16    38    1
    42    19    39    1
    43    20    40    1
@<TRIPOS>MOLECULE
mol62_1_27
 40 43 0 0 0
SMALL
USER_CHARGES
****
VDW energy = -5.87
@<TRIPOS>ATOM
   1 O1        2.0963     1.8046    -0.3877  O.2     1  <O>11      -0.2446
   2 C1        0.7771     1.3854    -0.6455  C.ar    1  <O>11       0.3487
   3 N1        0.1614     1.0457    -1.7625  N.ar    1  <O>11      -0.2263
   4 N2       -1.1399     0.7478    -1.4694  N.ar    1  <O>11      -0.1561
   5 C2       -1.3077     0.8947    -0.1743  C.ar    1  <O>11       0.1384
   6 N3       -0.1140     1.2800     0.4106  N.ar    1  <O>11      -0.2473
   7 C3        0.0822     1.4986     1.7975  C.ar    1  <O>11       0.0560
   8 C4        1.2445     1.0283     2.4216  C.ar    1  <O>11      -0.0339
   9 C5        1.4116     1.1983     3.7962  C.ar    1  <O>11      -0.0180
  10 C6        0.4251     1.8308     4.5488  C.ar    1  <O>11       0.1214
  11 O2        0.5950     1.9890     5.8950  O.3     1  <O>11      -0.4874
  12 C7       -0.5320     2.6550     6.4390  C.3     1  <O>11       0.1147
  13 C8       -0.3470     2.8270     7.9030  C.ar    1  <O>11      -0.0077
  14 C9       -1.3350     3.4640     8.6740  C.ar    1  <O>11      -0.0552
  15 C10      -1.1540     3.6360    10.0500  C.ar    1  <O>11      -0.0587
  16 C11       0.0090     3.1730    10.6700  C.ar    1  <O>11      -0.0264
  17 C12       0.9900     2.5340     9.9040  C.ar    1  <O>11       0.1238
  18 F1        2.1300     2.0820    10.5170  F       1  <O>11      -0.2055
  19 C13       0.8180     2.3550     8.5310  C.ar    1  <O>11      -0.0201
  20 C14      -0.7340     2.3017     3.9316  C.ar    1  <O>11      -0.0148
  21 C15      -0.9228     2.1457     2.5507  C.ar    1  <O>11      -0.0199
  22 C16      -2.1357     2.7679     1.8974  C.3     1  <O>11      -0.0252
  23 C17      -3.1369     1.7651     1.3230  C.3     1  <O>11      -0.0421
  24 C18      -2.5288     0.5635     0.6057  C.3     1  <O>11       0.0081
  25 H1        0.5118     0.9887    -2.7081  H       1  <O>11       0.1937
  26 H2       -1.4290     2.0630     6.2540  H       1  <O>11       0.0748
  27 H3       -0.6390     3.6330     5.9690  H       1  <O>11       0.0748
  28 H4       -2.6509     3.3721     2.6441  H       1  <O>11       0.0314
  29 H5       -1.7925     3.4083     1.0848  H       1  <O>11       0.0314
  30 H6       -3.7464     1.3912     2.1457  H       1  <O>11       0.0272
  31 H7       -3.7710     2.2944     0.6118  H       1  <O>11       0.0272
  32 H8       -2.2687    -0.1879     1.3512  H       1  <O>11       0.0344
  33 H9       -3.2742     0.1558    -0.0771  H       1  <O>11       0.0344
  34 H10       1.9755     0.5572     1.8660  H       1  <O>11       0.0639
  35 H11       2.2687     0.8544     4.2567  H       1  <O>11       0.0655
  36 H12      -2.1976     3.8062     8.2226  H       1  <O>11       0.0621
  37 H13      -1.8823     4.1067    10.6094  H       1  <O>11       0.0619
  38 H14       0.1435     3.3013    11.6851  H       1  <O>11       0.0646
  39 H15       1.5456     1.8765     7.9773  H       1  <O>11       0.0650
  40 H16      -1.4598     2.7695     4.4968  H       1  <O>11       0.0657
@<TRIPOS>BOND
     1     1     2    2
     2     2     3   ar
     3     3     4   ar
     4     4     5   ar
     5     5     6   ar
     6     2     6   ar
     7     6     7    1
     8     7     8   ar
     9     8     9   ar
    10     9    10   ar
    11    10    11    1
    12    11    12    1
    13    12    13    1
    14    13    14   ar
    15    14    15   ar
    16    15    16   ar
    17    16    17   ar
    18    17    18    1
    19    17    19   ar
    20    13    19   ar
    21    10    20   ar
    22    20    21   ar
    23     7    21   ar
    24    21    22    1
    25    22    23    1
    26    23    24    1
    27     5    24    1
    28     3    25    1
    29    12    26    1
    30    12    27    1
    31    22    28    1
    32    22    29    1
    33    23    30    1
    34    23    31    1
    35    24    32    1
    36    24    33    1
    37     8    34    1
    38     9    35    1
    39    14    36    1
    40    15    37    1
    41    16    38    1
    42    19    39    1
    43    20    40    1
@<TRIPOS>MOLECULE
mol62_1_28
 40 43 0 0 0
SMALL
USER_CHARGES
****
VDW energy = 5.04
@<TRIPOS>ATOM
   1 O1        2.0963     1.8046    -0.3877  O.2     1  <O>11      -0.2446
   2 C1        0.7771     1.3854    -0.6455  C.ar    1  <O>11       0.3487
   3 N1        0.1614     1.0457    -1.7625  N.ar    1  <O>11      -0.2263
   4 N2       -1.1399     0.7478    -1.4694  N.ar    1  <O>11      -0.1561
   5 C2       -1.3077     0.8947    -0.1743  C.ar    1  <O>11       0.1384
   6 N3       -0.1140     1.2800     0.4106  N.ar    1  <O>11      -0.2473
   7 C3        0.0822     1.4986     1.7975  C.ar    1  <O>11       0.0560
   8 C4        1.2445     1.0283     2.4216  C.ar    1  <O>11      -0.0339
   9 C5        1.4116     1.1983     3.7962  C.ar    1  <O>11      -0.0180
  10 C6        0.4251     1.8308     4.5488  C.ar    1  <O>11       0.1214
  11 O2        0.5950     1.9890     5.8950  O.3     1  <O>11      -0.4874
  12 C7        0.7334     0.7178     6.5069  C.3     1  <O>11       0.1147
  13 C8       -0.4877    -0.0896     6.2539  C.ar    1  <O>11      -0.0077
  14 C9       -0.8792    -0.3923     4.9380  C.ar    1  <O>11      -0.0552
  15 C10      -2.0356    -1.1422     4.7010  C.ar    1  <O>11      -0.0587
  16 C11      -2.8093    -1.5993     5.7705  C.ar    1  <O>11      -0.0264
  17 C12      -2.4169    -1.3031     7.0803  C.ar    1  <O>11       0.1238
  18 F1       -3.1800    -1.7534     8.1266  F       1  <O>11      -0.2055
  19 C13      -1.2635    -0.5580     7.3277  C.ar    1  <O>11      -0.0201
  20 C14      -0.7340     2.3017     3.9316  C.ar    1  <O>11      -0.0148
  21 C15      -0.9228     2.1457     2.5507  C.ar    1  <O>11      -0.0199
  22 C16      -2.1357     2.7679     1.8974  C.3     1  <O>11      -0.0252
  23 C17      -3.1369     1.7651     1.3230  C.3     1  <O>11      -0.0421
  24 C18      -2.5288     0.5635     0.6057  C.3     1  <O>11       0.0081
  25 H1        0.5118     0.9887    -2.7081  H       1  <O>11       0.1937
  26 H2        0.8683     0.8440     7.5817  H       1  <O>11       0.0748
  27 H3        1.6007     0.2053     6.0898  H       1  <O>11       0.0748
  28 H4       -2.6509     3.3721     2.6441  H       1  <O>11       0.0314
  29 H5       -1.7925     3.4083     1.0848  H       1  <O>11       0.0314
  30 H6       -3.7464     1.3912     2.1457  H       1  <O>11       0.0272
  31 H7       -3.7710     2.2944     0.6118  H       1  <O>11       0.0272
  32 H8       -2.2687    -0.1879     1.3512  H       1  <O>11       0.0344
  33 H9       -3.2742     0.1558    -0.0771  H       1  <O>11       0.0344
  34 H10       1.9755     0.5572     1.8660  H       1  <O>11       0.0639
  35 H11       2.2687     0.8544     4.2567  H       1  <O>11       0.0655
  36 H12      -0.3108    -0.0597     4.1435  H       1  <O>11       0.0621
  37 H13      -2.3184    -1.3585     3.7324  H       1  <O>11       0.0619
  38 H14      -3.6636    -2.1513     5.5957  H       1  <O>11       0.0646
  39 H15      -0.9805    -0.3511     8.2983  H       1  <O>11       0.0650
  40 H16      -1.4598     2.7695     4.4968  H       1  <O>11       0.0657
@<TRIPOS>BOND
     1     1     2    2
     2     2     3   ar
     3     3     4   ar
     4     4     5   ar
     5     5     6   ar
     6     2     6   ar
     7     6     7    1
     8     7     8   ar
     9     8     9   ar
    10     9    10   ar
    11    10    11    1
    12    11    12    1
    13    12    13    1
    14    13    14   ar
    15    14    15   ar
    16    15    16   ar
    17    16    17   ar
    18    17    18    1
    19    17    19   ar
    20    13    19   ar
    21    10    20   ar
    22    20    21   ar
    23     7    21   ar
    24    21    22    1
    25    22    23    1
    26    23    24    1
    27     5    24    1
    28     3    25    1
    29    12    26    1
    30    12    27    1
    31    22    28    1
    32    22    29    1
    33    23    30    1
    34    23    31    1
    35    24    32    1
    36    24    33    1
    37     8    34    1
    38     9    35    1
    39    14    36    1
    40    15    37    1
    41    16    38    1
    42    19    39    1
    43    20    40    1
@<TRIPOS>MOLECULE
mol62_1_29
 40 43 0 0 0
SMALL
USER_CHARGES
****
VDW energy = 5.53
@<TRIPOS>ATOM
   1 O1        2.0963     1.8046    -0.3877  O.2     1  <O>11      -0.2446
   2 C1        0.7771     1.3854    -0.6455  C.ar    1  <O>11       0.3487
   3 N1        0.1614     1.0457    -1.7625  N.ar    1  <O>11      -0.2263
   4 N2       -1.1399     0.7478    -1.4694  N.ar    1  <O>11      -0.1561
   5 C2       -1.3077     0.8947    -0.1743  C.ar    1  <O>11       0.1384
   6 N3       -0.1140     1.2800     0.4106  N.ar    1  <O>11      -0.2473
   7 C3        0.0822     1.4986     1.7975  C.ar    1  <O>11       0.0560
   8 C4        1.2445     1.0283     2.4216  C.ar    1  <O>11      -0.0339
   9 C5        1.4116     1.1983     3.7962  C.ar    1  <O>11      -0.0180
  10 C6        0.4251     1.8308     4.5488  C.ar    1  <O>11       0.1214
  11 O2        0.5950     1.9890     5.8950  O.3     1  <O>11      -0.4874
  12 C7        1.7603     2.7590     6.1375  C.3     1  <O>11       0.1147
  13 C8        1.6158     4.0917     5.4970  C.ar    1  <O>11      -0.0077
  14 C9        1.4288     4.1957     4.1076  C.ar    1  <O>11      -0.0552
  15 C10       1.3051     5.4514     3.5045  C.ar    1  <O>11      -0.0587
  16 C11       1.3630     6.6126     4.2789  C.ar    1  <O>11      -0.0264
  17 C12       1.5434     6.5093     5.6624  C.ar    1  <O>11       0.1238
  18 F1        1.6003     7.6519     6.4180  F       1  <O>11      -0.2055
  19 C13       1.6652     5.2613     6.2742  C.ar    1  <O>11      -0.0201
  20 C14      -0.7340     2.3017     3.9316  C.ar    1  <O>11      -0.0148
  21 C15      -0.9228     2.1457     2.5507  C.ar    1  <O>11      -0.0199
  22 C16      -2.1357     2.7679     1.8974  C.3     1  <O>11      -0.0252
  23 C17      -3.1369     1.7651     1.3230  C.3     1  <O>11      -0.0421
  24 C18      -2.5288     0.5635     0.6057  C.3     1  <O>11       0.0081
  25 H1        0.5118     0.9887    -2.7081  H       1  <O>11       0.1937
  26 H2        2.6280     2.2478     5.7190  H       1  <O>11       0.0748
  27 H3        1.8964     2.8852     7.2119  H       1  <O>11       0.0748
  28 H4       -2.6509     3.3721     2.6441  H       1  <O>11       0.0314
  29 H5       -1.7925     3.4083     1.0848  H       1  <O>11       0.0314
  30 H6       -3.7464     1.3912     2.1457  H       1  <O>11       0.0272
  31 H7       -3.7710     2.2944     0.6118  H       1  <O>11       0.0272
  32 H8       -2.2687    -0.1879     1.3512  H       1  <O>11       0.0344
  33 H9       -3.2742     0.1558    -0.0771  H       1  <O>11       0.0344
  34 H10       1.9755     0.5572     1.8660  H       1  <O>11       0.0639
  35 H11       2.2687     0.8544     4.2567  H       1  <O>11       0.0655
  36 H12       1.3827     3.3417     3.5301  H       1  <O>11       0.0621
  37 H13       1.1706     5.5204     2.4837  H       1  <O>11       0.0619
  38 H14       1.2734     7.5394     3.8339  H       1  <O>11       0.0646
  39 H15       1.7916     5.1972     7.2964  H       1  <O>11       0.0650
  40 H16      -1.4598     2.7695     4.4968  H       1  <O>11       0.0657
@<TRIPOS>BOND
     1     1     2    2
     2     2     3   ar
     3     3     4   ar
     4     4     5   ar
     5     5     6   ar
     6     2     6   ar
     7     6     7    1
     8     7     8   ar
     9     8     9   ar
    10     9    10   ar
    11    10    11    1
    12    11    12    1
    13    12    13    1
    14    13    14   ar
    15    14    15   ar
    16    15    16   ar
    17    16    17   ar
    18    17    18    1
    19    17    19   ar
    20    13    19   ar
    21    10    20   ar
    22    20    21   ar
    23     7    21   ar
    24    21    22    1
    25    22    23    1
    26    23    24    1
    27     5    24    1
    28     3    25    1
    29    12    26    1
    30    12    27    1
    31    22    28    1
    32    22    29    1
    33    23    30    1
    34    23    31    1
    35    24    32    1
    36    24    33    1
    37     8    34    1
    38     9    35    1
    39    14    36    1
    40    15    37    1
    41    16    38    1
    42    19    39    1
    43    20    40    1
@<TRIPOS>MOLECULE
mol62_1_30
 40 43 0 0 0
SMALL
USER_CHARGES
****
VDW energy = 15.13
@<TRIPOS>ATOM
   1 O1        2.0963     1.8046    -0.3877  O.2     1  <O>11      -0.2446
   2 C1        0.7771     1.3854    -0.6455  C.ar    1  <O>11       0.3487
   3 N1        0.1614     1.0457    -1.7625  N.ar    1  <O>11      -0.2263
   4 N2       -1.1399     0.7478    -1.4694  N.ar    1  <O>11      -0.1561
   5 C2       -1.3077     0.8947    -0.1743  C.ar    1  <O>11       0.1384
   6 N3       -0.1140     1.2800     0.4106  N.ar    1  <O>11      -0.2473
   7 C3        0.0822     1.4986     1.7975  C.ar    1  <O>11       0.0560
   8 C4        1.2445     1.0283     2.4216  C.ar    1  <O>11      -0.0339
   9 C5        1.4116     1.1983     3.7962  C.ar    1  <O>11      -0.0180
  10 C6        0.4251     1.8308     4.5488  C.ar    1  <O>11       0.1214
  11 O2        0.5950     1.9890     5.8950  O.3     1  <O>11      -0.4874
  12 C7        1.7603     2.7590     6.1375  C.3     1  <O>11       0.1147
  13 C8        2.9422     2.0619     5.5681  C.ar    1  <O>11      -0.0077
  14 C9        3.2919     0.7756     6.0150  C.ar    1  <O>11      -0.0552
  15 C10       4.4118     0.1256     5.4868  C.ar    1  <O>11      -0.0587
  16 C11       5.1903     0.7483     4.5083  C.ar    1  <O>11      -0.0264
  17 C12       4.8394     2.0261     4.0592  C.ar    1  <O>11       0.1238
  18 F1        5.6071     2.6333     3.0992  F       1  <O>11      -0.2055
  19 C13       3.7225     2.6821     4.5777  C.ar    1  <O>11      -0.0201
  20 C14      -0.7340     2.3017     3.9316  C.ar    1  <O>11      -0.0148
  21 C15      -0.9228     2.1457     2.5507  C.ar    1  <O>11      -0.0199
  22 C16      -2.1357     2.7679     1.8974  C.3     1  <O>11      -0.0252
  23 C17      -3.1369     1.7651     1.3230  C.3     1  <O>11      -0.0421
  24 C18      -2.5288     0.5635     0.6057  C.3     1  <O>11       0.0081
  25 H1        0.5118     0.9887    -2.7081  H       1  <O>11       0.1937
  26 H2        1.8964     2.8847     7.2122  H       1  <O>11       0.0748
  27 H3        1.6546     3.7373     5.6679  H       1  <O>11       0.0748
  28 H4       -2.6509     3.3721     2.6441  H       1  <O>11       0.0314
  29 H5       -1.7925     3.4083     1.0848  H       1  <O>11       0.0314
  30 H6       -3.7464     1.3912     2.1457  H       1  <O>11       0.0272
  31 H7       -3.7710     2.2944     0.6118  H       1  <O>11       0.0272
  32 H8       -2.2687    -0.1879     1.3512  H       1  <O>11       0.0344
  33 H9       -3.2742     0.1558    -0.0771  H       1  <O>11       0.0344
  34 H10       1.9755     0.5572     1.8660  H       1  <O>11       0.0639
  35 H11       2.2687     0.8544     4.2567  H       1  <O>11       0.0655
  36 H12       2.7196     0.3090     6.7359  H       1  <O>11       0.0621
  37 H13       4.6641    -0.8175     5.8213  H       1  <O>11       0.0619
  38 H14       6.0177     0.2695     4.1196  H       1  <O>11       0.0646
  39 H15       3.4697     3.6218     4.2342  H       1  <O>11       0.0650
  40 H16      -1.4598     2.7695     4.4968  H       1  <O>11       0.0657
@<TRIPOS>BOND
     1     1     2    2
     2     2     3   ar
     3     3     4   ar
     4     4     5   ar
     5     5     6   ar
     6     2     6   ar
     7     6     7    1
     8     7     8   ar
     9     8     9   ar
    10     9    10   ar
    11    10    11    1
    12    11    12    1
    13    12    13    1
    14    13    14   ar
    15    14    15   ar
    16    15    16   ar
    17    16    17   ar
    18    17    18    1
    19    17    19   ar
    20    13    19   ar
    21    10    20   ar
    22    20    21   ar
    23     7    21   ar
    24    21    22    1
    25    22    23    1
    26    23    24    1
    27     5    24    1
    28     3    25    1
    29    12    26    1
    30    12    27    1
    31    22    28    1
    32    22    29    1
    33    23    30    1
    34    23    31    1
    35    24    32    1
    36    24    33    1
    37     8    34    1
    38     9    35    1
    39    14    36    1
    40    15    37    1
    41    16    38    1
    42    19    39    1
    43    20    40    1
