@<TRIPOS>MOLECULE
mol61_1_1
 34 36 0 0 0
SMALL
USER_CHARGES
****
VDW energy = -18.17
@<TRIPOS>ATOM
   1 O1        3.3127    -9.0776    -5.5893  O.2     1  <O>11      -0.1300
   2 N1        2.8495    -9.8143    -4.4295  N.4     1  <O>11       0.0062
   3 O2        3.6348   -11.0240    -4.2799  O.2     1  <O>11      -0.3961
   4 C1        1.4620   -10.1610    -4.6040  C.ar    1  <O>11       0.1278
   5 C2        1.0679   -10.8494    -5.7532  C.ar    1  <O>11       0.0039
   6 C3       -0.2800   -11.1789    -5.9350  C.ar    1  <O>11       0.1290
   7 F1       -0.6697   -11.8519    -7.0641  F       1  <O>11      -0.2053
   8 C4       -1.2270   -10.8232    -4.9710  C.ar    1  <O>11       0.0161
   9 C5       -0.8162   -10.1384    -3.8224  C.ar    1  <O>11       0.1368
  10 O3       -1.7460    -9.7939    -2.8820  O.3     1  <O>11      -0.4235
  11 C6       -2.6913    -8.9709    -3.4503  C.ar    1  <O>11       0.3239
  12 N2       -2.4956    -7.6323    -3.4283  N.ar    1  <O>11      -0.2030
  13 C7       -3.4339    -6.8485    -3.9907  C.ar    1  <O>11       0.0350
  14 C8       -4.5727    -7.3330    -4.5806  C.ar    1  <O>11      -0.0173
  15 C9       -4.7006    -8.6981    -4.5631  C.ar    1  <O>11       0.0778
  16 C10      -5.8510    -9.3024    -5.1497  C.ar    1  <O>11       0.0006
  17 C11      -7.0018    -9.5331    -4.3784  C.ar    1  <O>11      -0.0526
  18 C12      -8.1270   -10.1367    -4.9512  C.ar    1  <O>11      -0.0611
  19 C13      -8.1139   -10.5133    -6.2977  C.ar    1  <O>11      -0.0617
  20 C14      -6.9693   -10.2789    -7.0665  C.ar    1  <O>11      -0.0611
  21 C15      -5.8444    -9.6725    -6.5049  C.ar    1  <O>11      -0.0526
  22 N3       -3.7901    -9.5247    -4.0132  N.ar    1  <O>11      -0.1946
  23 C16       0.5261    -9.8074    -3.6310  C.ar    1  <O>11       0.0110
  24 H1        4.5620   -10.9684    -4.1569  H       1  <O>11       0.3292
  25 H2        1.7670   -11.1138    -6.4648  H       1  <O>11       0.0669
  26 H3       -2.2216   -11.0638    -5.1053  H       1  <O>11       0.0683
  27 H4       -3.2882    -5.8269    -3.9771  H       1  <O>11       0.0832
  28 H5       -5.2816    -6.7157    -5.0065  H       1  <O>11       0.0654
  29 H6       -7.0177    -9.2562    -3.3843  H       1  <O>11       0.0624
  30 H7       -8.9689   -10.3043    -4.3783  H       1  <O>11       0.0618
  31 H8       -8.9422   -10.9605    -6.7209  H       1  <O>11       0.0618
  32 H9       -6.9562   -10.5576    -8.0600  H       1  <O>11       0.0618
  33 H10      -5.0090    -9.4961    -7.0846  H       1  <O>11       0.0624
  34 H11       0.8234    -9.3064    -2.7791  H       1  <O>11       0.0677
@<TRIPOS>BOND
     1     1     2    2
     2     2     3    1
     3     2     4    1
     4     4     5   ar
     5     5     6   ar
     6     6     7    1
     7     6     8   ar
     8     8     9   ar
     9     9    10    1
    10    10    11    1
    11    11    12   ar
    12    12    13   ar
    13    13    14   ar
    14    14    15   ar
    15    15    16    1
    16    16    17   ar
    17    17    18   ar
    18    18    19   ar
    19    19    20   ar
    20    20    21   ar
    21    16    21   ar
    22    15    22   ar
    23    11    22   ar
    24     9    23   ar
    25     4    23   ar
    26     3    24    1
    27     5    25    1
    28     8    26    1
    29    13    27    1
    30    14    28    1
    31    17    29    1
    32    18    30    1
    33    19    31    1
    34    20    32    1
    35    21    33    1
    36    23    34    1
@<TRIPOS>MOLECULE
mol61_1_2
 34 36 0 0 0
SMALL
USER_CHARGES
****
VDW energy = -15.39
@<TRIPOS>ATOM
   1 O1        3.3127    -9.0776    -5.5893  O.2     1  <O>11      -0.1300
   2 N1        2.8495    -9.8143    -4.4295  N.4     1  <O>11       0.0062
   3 O2        3.6348   -11.0240    -4.2799  O.2     1  <O>11      -0.3961
   4 C1        1.4620   -10.1610    -4.6040  C.ar    1  <O>11       0.1278
   5 C2        0.6404   -10.2821    -3.4814  C.ar    1  <O>11       0.0039
   6 C3       -0.7054   -10.6303    -3.6426  C.ar    1  <O>11       0.1290
   7 F1       -1.5131   -10.7529    -2.5415  F       1  <O>11      -0.2053
   8 C4       -1.2258   -10.8537    -4.9200  C.ar    1  <O>11       0.0161
   9 C5       -0.3917   -10.7234    -6.0355  C.ar    1  <O>11       0.1368
  10 O3       -0.9058   -10.9417    -7.2827  O.3     1  <O>11      -0.4235
  11 C6       -1.9319   -10.0557    -7.5185  C.ar    1  <O>11       0.3239
  12 N2       -2.9555   -10.4336    -8.3185  N.ar    1  <O>11      -0.2030
  13 C7       -3.9473    -9.5498    -8.5336  C.ar    1  <O>11       0.0350
  14 C8       -3.9737    -8.2921    -7.9883  C.ar    1  <O>11      -0.0173
  15 C9       -2.9026    -7.9821    -7.1903  C.ar    1  <O>11       0.0778
  16 C10      -2.8341    -6.6971    -6.5763  C.ar    1  <O>11       0.0006
  17 C11      -1.7586    -5.8366    -6.8509  C.ar    1  <O>11      -0.0526
  18 C12      -1.6853    -4.5799    -6.2394  C.ar    1  <O>11      -0.0611
  19 C13      -2.6846    -4.1710    -5.3510  C.ar    1  <O>11      -0.0617
  20 C14      -3.7578    -5.0265    -5.0816  C.ar    1  <O>11      -0.0611
  21 C15      -3.8419    -6.2794    -5.6912  C.ar    1  <O>11      -0.0526
  22 N3       -1.8862    -8.8312    -6.9444  N.ar    1  <O>11      -0.1946
  23 C16       0.9512   -10.3743    -5.8851  C.ar    1  <O>11       0.0110
  24 H1        4.5620   -10.9684    -4.1569  H       1  <O>11       0.3292
  25 H2        1.0237   -10.1157    -2.5377  H       1  <O>11       0.0669
  26 H3       -2.2176   -11.1127    -5.0396  H       1  <O>11       0.0683
  27 H4       -4.7306    -9.8341    -9.1423  H       1  <O>11       0.0832
  28 H5       -4.7432    -7.6276    -8.1653  H       1  <O>11       0.0654
  29 H6       -1.0188    -6.1325    -7.5067  H       1  <O>11       0.0624
  30 H7       -0.8916    -3.9531    -6.4449  H       1  <O>11       0.0618
  31 H8       -2.6307    -3.2454    -4.8977  H       1  <O>11       0.0618
  32 H9       -4.4957    -4.7280    -4.4249  H       1  <O>11       0.0618
  33 H10      -4.6435    -6.8982    -5.4919  H       1  <O>11       0.0624
  34 H11       1.5601   -10.2750    -6.7125  H       1  <O>11       0.0677
@<TRIPOS>BOND
     1     1     2    2
     2     2     3    1
     3     2     4    1
     4     4     5   ar
     5     5     6   ar
     6     6     7    1
     7     6     8   ar
     8     8     9   ar
     9     9    10    1
    10    10    11    1
    11    11    12   ar
    12    12    13   ar
    13    13    14   ar
    14    14    15   ar
    15    15    16    1
    16    16    17   ar
    17    17    18   ar
    18    18    19   ar
    19    19    20   ar
    20    20    21   ar
    21    16    21   ar
    22    15    22   ar
    23    11    22   ar
    24     9    23   ar
    25     4    23   ar
    26     3    24    1
    27     5    25    1
    28     8    26    1
    29    13    27    1
    30    14    28    1
    31    17    29    1
    32    18    30    1
    33    19    31    1
    34    20    32    1
    35    21    33    1
    36    23    34    1
@<TRIPOS>MOLECULE
mol61_1_3
 34 36 0 0 0
SMALL
USER_CHARGES
****
VDW energy = -15.23
@<TRIPOS>ATOM
   1 O1        3.3127    -9.0776    -5.5893  O.2     1  <O>11      -0.1300
   2 N1        2.8495    -9.8143    -4.4295  N.4     1  <O>11       0.0062
   3 O2        3.6348   -11.0240    -4.2799  O.2     1  <O>11      -0.3961
   4 C1        1.4620   -10.1610    -4.6040  C.ar    1  <O>11       0.1278
   5 C2        0.7715   -10.7699    -3.5541  C.ar    1  <O>11       0.0039
   6 C3       -0.5731   -11.1203    -3.7207  C.ar    1  <O>11       0.1290
   7 F1       -1.2522   -11.7211    -2.6923  F       1  <O>11      -0.2053
   8 C4       -1.2228   -10.8606    -4.9303  C.ar    1  <O>11       0.0161
   9 C5       -0.5193   -10.2452    -5.9712  C.ar    1  <O>11       0.1368
  10 O3       -1.1595    -9.9923    -7.1517  O.3     1  <O>11      -0.4235
  11 C6       -1.6068   -11.1750    -7.6946  C.ar    1  <O>11       0.3239
  12 N2       -0.7083   -12.1402    -7.9974  N.ar    1  <O>11      -0.2030
  13 C7       -1.1700   -13.2880    -8.5269  C.ar    1  <O>11       0.0350
  14 C8       -2.4967   -13.5286    -8.7756  C.ar    1  <O>11      -0.0173
  15 C9       -3.3454   -12.5041    -8.4433  C.ar    1  <O>11       0.0778
  16 C10      -4.7459   -12.6539    -8.6642  C.ar    1  <O>11       0.0006
  17 C11      -5.3163   -12.2654    -9.8874  C.ar    1  <O>11      -0.0526
  18 C12      -6.6928   -12.4017   -10.1001  C.ar    1  <O>11      -0.0611
  19 C13      -7.5107   -12.9280    -9.0956  C.ar    1  <O>11      -0.0617
  20 C14      -6.9413   -13.3191    -7.8794  C.ar    1  <O>11      -0.0611
  21 C15      -5.5686   -13.1919    -7.6605  C.ar    1  <O>11      -0.0526
  22 N3       -2.9325   -11.3374    -7.9113  N.ar    1  <O>11      -0.1946
  23 C16       0.8212    -9.8900    -5.8138  C.ar    1  <O>11       0.0110
  24 H1        4.5620   -10.9684    -4.1569  H       1  <O>11       0.3292
  25 H2        1.2502   -10.9605    -2.6599  H       1  <O>11       0.0669
  26 H3       -2.2137   -11.1207    -5.0548  H       1  <O>11       0.0683
  27 H4       -0.4884   -14.0274    -8.7584  H       1  <O>11       0.0832
  28 H5       -2.8320   -14.4155    -9.1829  H       1  <O>11       0.0654
  29 H6       -4.7174   -11.8774   -10.6330  H       1  <O>11       0.0624
  30 H7       -7.1054   -12.1131   -11.0010  H       1  <O>11       0.0618
  31 H8       -8.5262   -13.0270    -9.2502  H       1  <O>11       0.0618
  32 H9       -7.5429   -13.7060    -7.1355  H       1  <O>11       0.0618
  33 H10      -5.1585   -13.4927    -6.7625  H       1  <O>11       0.0624
  34 H11       1.3332    -9.4317    -6.5839  H       1  <O>11       0.0677
@<TRIPOS>BOND
     1     1     2    2
     2     2     3    1
     3     2     4    1
     4     4     5   ar
     5     5     6   ar
     6     6     7    1
     7     6     8   ar
     8     8     9   ar
     9     9    10    1
    10    10    11    1
    11    11    12   ar
    12    12    13   ar
    13    13    14   ar
    14    14    15   ar
    15    15    16    1
    16    16    17   ar
    17    17    18   ar
    18    18    19   ar
    19    19    20   ar
    20    20    21   ar
    21    16    21   ar
    22    15    22   ar
    23    11    22   ar
    24     9    23   ar
    25     4    23   ar
    26     3    24    1
    27     5    25    1
    28     8    26    1
    29    13    27    1
    30    14    28    1
    31    17    29    1
    32    18    30    1
    33    19    31    1
    34    20    32    1
    35    21    33    1
    36    23    34    1
@<TRIPOS>MOLECULE
mol61_1_4
 34 36 0 0 0
SMALL
USER_CHARGES
****
VDW energy = -14.48
@<TRIPOS>ATOM
   1 O1        3.3127    -9.0776    -5.5893  O.2     1  <O>11      -0.1300
   2 N1        2.8495    -9.8143    -4.4295  N.4     1  <O>11       0.0062
   3 O2        3.6348   -11.0240    -4.2799  O.2     1  <O>11      -0.3961
   4 C1        1.4620   -10.1610    -4.6040  C.ar    1  <O>11       0.1278
   5 C2        0.7715   -10.7699    -3.5541  C.ar    1  <O>11       0.0039
   6 C3       -0.5731   -11.1203    -3.7207  C.ar    1  <O>11       0.1290
   7 F1       -1.2522   -11.7211    -2.6923  F       1  <O>11      -0.2053
   8 C4       -1.2228   -10.8606    -4.9303  C.ar    1  <O>11       0.0161
   9 C5       -0.5193   -10.2452    -5.9712  C.ar    1  <O>11       0.1368
  10 O3       -1.1595    -9.9923    -7.1517  O.3     1  <O>11      -0.4235
  11 C6       -1.7350    -8.7432    -7.1040  C.ar    1  <O>11       0.3239
  12 N2       -2.6626    -8.4830    -6.1540  N.ar    1  <O>11      -0.2030
  13 C7       -3.2108    -7.2543    -6.1275  C.ar    1  <O>11       0.0350
  14 C8       -2.8810    -6.2577    -7.0094  C.ar    1  <O>11      -0.0173
  15 C9       -1.9351    -6.5968    -7.9424  C.ar    1  <O>11       0.0778
  16 C10      -1.5235    -5.6309    -8.9070  C.ar    1  <O>11       0.0006
  17 C11      -2.1951    -5.5255   -10.1360  C.ar    1  <O>11      -0.0526
  18 C12      -1.7839    -4.5852   -11.0875  C.ar    1  <O>11      -0.0611
  19 C13      -0.7011    -3.7420   -10.8202  C.ar    1  <O>11      -0.0617
  20 C14      -0.0357    -3.8443    -9.5943  C.ar    1  <O>11      -0.0611
  21 C15      -0.4424    -4.7754    -8.6372  C.ar    1  <O>11      -0.0526
  22 N3       -1.3574    -7.8119    -8.0101  N.ar    1  <O>11      -0.1946
  23 C16       0.8212    -9.8900    -5.8138  C.ar    1  <O>11       0.0110
  24 H1        4.5620   -10.9684    -4.1569  H       1  <O>11       0.3292
  25 H2        1.2502   -10.9605    -2.6599  H       1  <O>11       0.0669
  26 H3       -2.2137   -11.1207    -5.0548  H       1  <O>11       0.0683
  27 H4       -3.9180    -7.0511    -5.4039  H       1  <O>11       0.0832
  28 H5       -3.3128    -5.3211    -6.9737  H       1  <O>11       0.0654
  29 H6       -2.9958    -6.1445   -10.3383  H       1  <O>11       0.0624
  30 H7       -2.2813    -4.5141   -11.9890  H       1  <O>11       0.0618
  31 H8       -0.3954    -3.0497   -11.5219  H       1  <O>11       0.0618
  32 H9        0.7650    -3.2244    -9.3952  H       1  <O>11       0.0618
  33 H10       0.0504    -4.8352    -7.7324  H       1  <O>11       0.0624
  34 H11       1.3332    -9.4317    -6.5839  H       1  <O>11       0.0677
@<TRIPOS>BOND
     1     1     2    2
     2     2     3    1
     3     2     4    1
     4     4     5   ar
     5     5     6   ar
     6     6     7    1
     7     6     8   ar
     8     8     9   ar
     9     9    10    1
    10    10    11    1
    11    11    12   ar
    12    12    13   ar
    13    13    14   ar
    14    14    15   ar
    15    15    16    1
    16    16    17   ar
    17    17    18   ar
    18    18    19   ar
    19    19    20   ar
    20    20    21   ar
    21    16    21   ar
    22    15    22   ar
    23    11    22   ar
    24     9    23   ar
    25     4    23   ar
    26     3    24    1
    27     5    25    1
    28     8    26    1
    29    13    27    1
    30    14    28    1
    31    17    29    1
    32    18    30    1
    33    19    31    1
    34    20    32    1
    35    21    33    1
    36    23    34    1
@<TRIPOS>MOLECULE
mol61_1_5
 34 36 0 0 0
SMALL
USER_CHARGES
****
VDW energy = -12.09
@<TRIPOS>ATOM
   1 O1        3.3127    -9.0776    -5.5893  O.2     1  <O>11      -0.1300
   2 N1        2.8495    -9.8143    -4.4295  N.4     1  <O>11       0.0062
   3 O2        3.6348   -11.0240    -4.2799  O.2     1  <O>11      -0.3961
   4 C1        1.4620   -10.1610    -4.6040  C.ar    1  <O>11       0.1278
   5 C2        0.5399    -9.1590    -4.9133  C.ar    1  <O>11       0.0039
   6 C3       -0.8113    -9.4867    -5.0724  C.ar    1  <O>11       0.1290
   7 F1       -1.7189    -8.5040    -5.3730  F       1  <O>11      -0.2053
   8 C4       -1.2362   -10.8097    -4.9249  C.ar    1  <O>11       0.0161
   9 C5       -0.2999   -11.8034    -4.6201  C.ar    1  <O>11       0.1368
  10 O3       -0.7202   -13.0959    -4.4781  O.3     1  <O>11      -0.4235
  11 C6       -0.6651   -13.7336    -5.6962  C.ar    1  <O>11       0.3239
  12 N2       -1.3996   -13.2504    -6.7247  N.ar    1  <O>11      -0.2030
  13 C7       -1.3288   -13.8911    -7.9060  C.ar    1  <O>11       0.0350
  14 C8       -0.5560   -15.0031    -8.1204  C.ar    1  <O>11      -0.0173
  15 C9        0.1583   -15.4331    -7.0318  C.ar    1  <O>11       0.0778
  16 C10       0.9922   -16.5835    -7.1499  C.ar    1  <O>11       0.0006
  17 C11       0.4782   -17.8625    -6.8809  C.ar    1  <O>11      -0.0526
  18 C12       1.2997   -18.9906    -6.9857  C.ar    1  <O>11      -0.0611
  19 C13       2.6395   -18.8522    -7.3611  C.ar    1  <O>11      -0.0617
  20 C14       3.1496   -17.5787    -7.6334  C.ar    1  <O>11      -0.0611
  21 C15       2.3360   -16.4485    -7.5368  C.ar    1  <O>11      -0.0526
  22 N3        0.1212   -14.8268    -5.8294  N.ar    1  <O>11      -0.1946
  23 C16       1.0502   -11.4869    -4.4618  C.ar    1  <O>11       0.0110
  24 H1        4.5620   -10.9684    -4.1569  H       1  <O>11       0.3292
  25 H2        0.8532    -8.1820    -5.0240  H       1  <O>11       0.0669
  26 H3       -2.2328   -11.0518    -5.0398  H       1  <O>11       0.0683
  27 H4       -1.8865   -13.5253    -8.6935  H       1  <O>11       0.0832
  28 H5       -0.5149   -15.4814    -9.0339  H       1  <O>11       0.0654
  29 H6       -0.5103   -17.9709    -6.6045  H       1  <O>11       0.0624
  30 H7        0.9156   -19.9273    -6.7854  H       1  <O>11       0.0618
  31 H8        3.2470   -19.6830    -7.4366  H       1  <O>11       0.0618
  32 H9        4.1385   -17.4734    -7.9089  H       1  <O>11       0.0618
  33 H10       2.7211   -15.5150    -7.7494  H       1  <O>11       0.0624
  34 H11       1.7367   -12.2254    -4.2419  H       1  <O>11       0.0677
@<TRIPOS>BOND
     1     1     2    2
     2     2     3    1
     3     2     4    1
     4     4     5   ar
     5     5     6   ar
     6     6     7    1
     7     6     8   ar
     8     8     9   ar
     9     9    10    1
    10    10    11    1
    11    11    12   ar
    12    12    13   ar
    13    13    14   ar
    14    14    15   ar
    15    15    16    1
    16    16    17   ar
    17    17    18   ar
    18    18    19   ar
    19    19    20   ar
    20    20    21   ar
    21    16    21   ar
    22    15    22   ar
    23    11    22   ar
    24     9    23   ar
    25     4    23   ar
    26     3    24    1
    27     5    25    1
    28     8    26    1
    29    13    27    1
    30    14    28    1
    31    17    29    1
    32    18    30    1
    33    19    31    1
    34    20    32    1
    35    21    33    1
    36    23    34    1
@<TRIPOS>MOLECULE
mol61_1_6
 34 36 0 0 0
SMALL
USER_CHARGES
****
VDW energy = -10.98
@<TRIPOS>ATOM
   1 O1        3.3127    -9.0776    -5.5893  O.2     1  <O>11      -0.1300
   2 N1        2.8495    -9.8143    -4.4295  N.4     1  <O>11       0.0062
   3 O2        3.6348   -11.0240    -4.2799  O.2     1  <O>11      -0.3961
   4 C1        1.4620   -10.1610    -4.6040  C.ar    1  <O>11       0.1278
   5 C2        0.5399    -9.1590    -4.9133  C.ar    1  <O>11       0.0039
   6 C3       -0.8113    -9.4867    -5.0724  C.ar    1  <O>11       0.1290
   7 F1       -1.7189    -8.5040    -5.3730  F       1  <O>11      -0.2053
   8 C4       -1.2362   -10.8097    -4.9249  C.ar    1  <O>11       0.0161
   9 C5       -0.2999   -11.8034    -4.6201  C.ar    1  <O>11       0.1368
  10 O3       -0.7202   -13.0959    -4.4781  O.3     1  <O>11      -0.4235
  11 C6       -1.0581   -13.3275    -3.1644  C.ar    1  <O>11       0.3239
  12 N2       -0.1084   -13.7746    -2.3107  N.ar    1  <O>11      -0.2030
  13 C7       -0.4630   -13.9934    -1.0311  C.ar    1  <O>11       0.0350
  14 C8       -1.7306   -13.7892    -0.5501  C.ar    1  <O>11      -0.0173
  15 C9       -2.6370   -13.3369    -1.4742  C.ar    1  <O>11       0.0778
  16 C10      -3.9841   -13.0946    -1.0749  C.ar    1  <O>11       0.0006
  17 C11      -4.9416   -14.1192    -1.1520  C.ar    1  <O>11      -0.0526
  18 C12      -6.2665   -13.8782    -0.7709  C.ar    1  <O>11      -0.0611
  19 C13      -6.6463   -12.6145    -0.3087  C.ar    1  <O>11      -0.0617
  20 C14      -5.6913   -11.5959    -0.2277  C.ar    1  <O>11      -0.0611
  21 C15      -4.3664   -11.8288    -0.6003  C.ar    1  <O>11      -0.0526
  22 N3       -2.3313   -13.1029    -2.7650  N.ar    1  <O>11      -0.1946
  23 C16       1.0502   -11.4869    -4.4618  C.ar    1  <O>11       0.0110
  24 H1        4.5620   -10.9684    -4.1569  H       1  <O>11       0.3292
  25 H2        0.8532    -8.1820    -5.0240  H       1  <O>11       0.0669
  26 H3       -2.2328   -11.0518    -5.0398  H       1  <O>11       0.0683
  27 H4        0.2584   -14.3334    -0.3762  H       1  <O>11       0.0832
  28 H5       -1.9839   -13.9632     0.4351  H       1  <O>11       0.0654
  29 H6       -4.6668   -15.0543    -1.4913  H       1  <O>11       0.0624
  30 H7       -6.9651   -14.6354    -0.8313  H       1  <O>11       0.0618
  31 H8       -7.6235   -12.4347    -0.0295  H       1  <O>11       0.0618
  32 H9       -5.9693   -10.6617     0.1113  H       1  <O>11       0.0618
  33 H10      -3.6685   -11.0720    -0.5273  H       1  <O>11       0.0624
  34 H11       1.7367   -12.2254    -4.2419  H       1  <O>11       0.0677
@<TRIPOS>BOND
     1     1     2    2
     2     2     3    1
     3     2     4    1
     4     4     5   ar
     5     5     6   ar
     6     6     7    1
     7     6     8   ar
     8     8     9   ar
     9     9    10    1
    10    10    11    1
    11    11    12   ar
    12    12    13   ar
    13    13    14   ar
    14    14    15   ar
    15    15    16    1
    16    16    17   ar
    17    17    18   ar
    18    18    19   ar
    19    19    20   ar
    20    20    21   ar
    21    16    21   ar
    22    15    22   ar
    23    11    22   ar
    24     9    23   ar
    25     4    23   ar
    26     3    24    1
    27     5    25    1
    28     8    26    1
    29    13    27    1
    30    14    28    1
    31    17    29    1
    32    18    30    1
    33    19    31    1
    34    20    32    1
    35    21    33    1
    36    23    34    1
@<TRIPOS>MOLECULE
mol61_1_7
 34 36 0 0 0
SMALL
USER_CHARGES
****
VDW energy = -9.54
@<TRIPOS>ATOM
   1 O1        3.3127    -9.0776    -5.5893  O.2     1  <O>11      -0.1300
   2 N1        2.8495    -9.8143    -4.4295  N.4     1  <O>11       0.0062
   3 O2        3.6348   -11.0240    -4.2799  O.2     1  <O>11      -0.3961
   4 C1        1.4620   -10.1610    -4.6040  C.ar    1  <O>11       0.1278
   5 C2        0.5399    -9.1590    -4.9133  C.ar    1  <O>11       0.0039
   6 C3       -0.8113    -9.4867    -5.0724  C.ar    1  <O>11       0.1290
   7 F1       -1.7189    -8.5040    -5.3730  F       1  <O>11      -0.2053
   8 C4       -1.2362   -10.8097    -4.9249  C.ar    1  <O>11       0.0161
   9 C5       -0.2999   -11.8034    -4.6201  C.ar    1  <O>11       0.1368
  10 O3       -0.7202   -13.0959    -4.4781  O.3     1  <O>11      -0.4235
  11 C6       -1.3007   -13.5219    -5.6508  C.ar    1  <O>11       0.3239
  12 N2       -2.2981   -14.4344    -5.5966  N.ar    1  <O>11      -0.2030
  13 C7       -2.8501   -14.8352    -6.7566  C.ar    1  <O>11       0.0350
  14 C8       -2.4554   -14.3704    -7.9846  C.ar    1  <O>11      -0.0173
  15 C9       -1.4399   -13.4494    -7.9584  C.ar    1  <O>11       0.0778
  16 C10      -0.9550   -12.9050    -9.1838  C.ar    1  <O>11       0.0006
  17 C11      -1.0177   -11.5218    -9.4190  C.ar    1  <O>11      -0.0526
  18 C12      -0.5523   -10.9887   -10.6264  C.ar    1  <O>11      -0.0611
  19 C13      -0.0195   -11.8304   -11.6076  C.ar    1  <O>11      -0.0617
  20 C14       0.0470   -13.2073   -11.3707  C.ar    1  <O>11      -0.0611
  21 C15      -0.4097   -13.7471   -10.1672  C.ar    1  <O>11      -0.0526
  22 N3       -0.8554   -13.0167    -6.8245  N.ar    1  <O>11      -0.1946
  23 C16       1.0502   -11.4869    -4.4618  C.ar    1  <O>11       0.0110
  24 H1        4.5620   -10.9684    -4.1569  H       1  <O>11       0.3292
  25 H2        0.8532    -8.1820    -5.0240  H       1  <O>11       0.0669
  26 H3       -2.2328   -11.0518    -5.0398  H       1  <O>11       0.0683
  27 H4       -3.6120   -15.5304    -6.7199  H       1  <O>11       0.0832
  28 H5       -2.8906   -14.6901    -8.8640  H       1  <O>11       0.0654
  29 H6       -1.4088   -10.8956    -8.6980  H       1  <O>11       0.0624
  30 H7       -0.6025    -9.9715   -10.7931  H       1  <O>11       0.0618
  31 H8        0.3220   -11.4389   -12.4993  H       1  <O>11       0.0618
  32 H9        0.4380   -13.8310   -12.0939  H       1  <O>11       0.0618
  33 H10      -0.3468   -14.7635   -10.0000  H       1  <O>11       0.0624
  34 H11       1.7367   -12.2254    -4.2419  H       1  <O>11       0.0677
@<TRIPOS>BOND
     1     1     2    2
     2     2     3    1
     3     2     4    1
     4     4     5   ar
     5     5     6   ar
     6     6     7    1
     7     6     8   ar
     8     8     9   ar
     9     9    10    1
    10    10    11    1
    11    11    12   ar
    12    12    13   ar
    13    13    14   ar
    14    14    15   ar
    15    15    16    1
    16    16    17   ar
    17    17    18   ar
    18    18    19   ar
    19    19    20   ar
    20    20    21   ar
    21    16    21   ar
    22    15    22   ar
    23    11    22   ar
    24     9    23   ar
    25     4    23   ar
    26     3    24    1
    27     5    25    1
    28     8    26    1
    29    13    27    1
    30    14    28    1
    31    17    29    1
    32    18    30    1
    33    19    31    1
    34    20    32    1
    35    21    33    1
    36    23    34    1
@<TRIPOS>MOLECULE
mol61_1_8
 34 36 0 0 0
SMALL
USER_CHARGES
****
VDW energy = -9.38
@<TRIPOS>ATOM
   1 O1        3.3127    -9.0776    -5.5893  O.2     1  <O>11      -0.1300
   2 N1        2.8495    -9.8143    -4.4295  N.4     1  <O>11       0.0062
   3 O2        3.6348   -11.0240    -4.2799  O.2     1  <O>11      -0.3961
   4 C1        1.4620   -10.1610    -4.6040  C.ar    1  <O>11       0.1278
   5 C2        0.5399    -9.1590    -4.9133  C.ar    1  <O>11       0.0039
   6 C3       -0.8113    -9.4867    -5.0724  C.ar    1  <O>11       0.1290
   7 F1       -1.7189    -8.5040    -5.3730  F       1  <O>11      -0.2053
   8 C4       -1.2362   -10.8097    -4.9249  C.ar    1  <O>11       0.0161
   9 C5       -0.2999   -11.8034    -4.6201  C.ar    1  <O>11       0.1368
  10 O3       -0.7202   -13.0959    -4.4781  O.3     1  <O>11      -0.4235
  11 C6       -1.3007   -13.5219    -5.6508  C.ar    1  <O>11       0.3239
  12 N2       -0.5623   -13.5293    -6.7845  N.ar    1  <O>11      -0.2030
  13 C7       -1.1520   -13.9505    -7.9185  C.ar    1  <O>11       0.0350
  14 C8       -2.4559   -14.3692    -7.9848  C.ar    1  <O>11      -0.0173
  15 C9       -3.1392   -14.3325    -6.7966  C.ar    1  <O>11       0.0778
  16 C10      -4.5031   -14.7462    -6.7588  C.ar    1  <O>11       0.0006
  17 C11      -5.5049   -13.8495    -6.3529  C.ar    1  <O>11      -0.0526
  18 C12      -6.8424   -14.2589    -6.3048  C.ar    1  <O>11      -0.0611
  19 C13      -7.1911   -15.5648    -6.6624  C.ar    1  <O>11      -0.0617
  20 C14      -6.1935   -16.4559    -7.0710  C.ar    1  <O>11      -0.0611
  21 C15      -4.8577   -16.0546    -7.1273  C.ar    1  <O>11      -0.0526
  22 N3       -2.5940   -13.9196    -5.6360  N.ar    1  <O>11      -0.1946
  23 C16       1.0502   -11.4869    -4.4618  C.ar    1  <O>11       0.0110
  24 H1        4.5620   -10.9684    -4.1569  H       1  <O>11       0.3292
  25 H2        0.8532    -8.1820    -5.0240  H       1  <O>11       0.0669
  26 H3       -2.2328   -11.0518    -5.0398  H       1  <O>11       0.0683
  27 H4       -0.5922   -13.9588    -8.7855  H       1  <O>11       0.0832
  28 H5       -2.8911   -14.6884    -8.8644  H       1  <O>11       0.0654
  29 H6       -5.2536   -12.8839    -6.0890  H       1  <O>11       0.0624
  30 H7       -7.5732   -13.5950    -6.0045  H       1  <O>11       0.0618
  31 H8       -8.1766   -15.8688    -6.6252  H       1  <O>11       0.0618
  32 H9       -6.4478   -17.4209    -7.3336  H       1  <O>11       0.0618
  33 H10      -4.1316   -16.7182    -7.4394  H       1  <O>11       0.0624
  34 H11       1.7367   -12.2254    -4.2419  H       1  <O>11       0.0677
@<TRIPOS>BOND
     1     1     2    2
     2     2     3    1
     3     2     4    1
     4     4     5   ar
     5     5     6   ar
     6     6     7    1
     7     6     8   ar
     8     8     9   ar
     9     9    10    1
    10    10    11    1
    11    11    12   ar
    12    12    13   ar
    13    13    14   ar
    14    14    15   ar
    15    15    16    1
    16    16    17   ar
    17    17    18   ar
    18    18    19   ar
    19    19    20   ar
    20    20    21   ar
    21    16    21   ar
    22    15    22   ar
    23    11    22   ar
    24     9    23   ar
    25     4    23   ar
    26     3    24    1
    27     5    25    1
    28     8    26    1
    29    13    27    1
    30    14    28    1
    31    17    29    1
    32    18    30    1
    33    19    31    1
    34    20    32    1
    35    21    33    1
    36    23    34    1
@<TRIPOS>MOLECULE
mol61_1_9
 34 36 0 0 0
SMALL
USER_CHARGES
****
VDW energy = -9.11
@<TRIPOS>ATOM
   1 O1        3.3127    -9.0776    -5.5893  O.2     1  <O>11      -0.1300
   2 N1        2.8495    -9.8143    -4.4295  N.4     1  <O>11       0.0062
   3 O2        3.6348   -11.0240    -4.2799  O.2     1  <O>11      -0.3961
   4 C1        1.4620   -10.1610    -4.6040  C.ar    1  <O>11       0.1278
   5 C2        0.5399    -9.1590    -4.9133  C.ar    1  <O>11       0.0039
   6 C3       -0.8113    -9.4867    -5.0724  C.ar    1  <O>11       0.1290
   7 F1       -1.7189    -8.5040    -5.3730  F       1  <O>11      -0.2053
   8 C4       -1.2362   -10.8097    -4.9249  C.ar    1  <O>11       0.0161
   9 C5       -0.2999   -11.8034    -4.6201  C.ar    1  <O>11       0.1368
  10 O3       -0.7202   -13.0959    -4.4781  O.3     1  <O>11      -0.4235
  11 C6       -1.3007   -13.5219    -5.6508  C.ar    1  <O>11       0.3239
  12 N2       -2.2981   -14.4344    -5.5966  N.ar    1  <O>11      -0.2030
  13 C7       -2.8501   -14.8352    -6.7566  C.ar    1  <O>11       0.0350
  14 C8       -2.4554   -14.3704    -7.9846  C.ar    1  <O>11      -0.0173
  15 C9       -1.4399   -13.4494    -7.9584  C.ar    1  <O>11       0.0778
  16 C10      -0.9550   -12.9050    -9.1838  C.ar    1  <O>11       0.0006
  17 C11       0.3897   -13.0747    -9.5519  C.ar    1  <O>11      -0.0526
  18 C12       0.8685   -12.5305   -10.7491  C.ar    1  <O>11      -0.0611
  19 C13       0.0099   -11.8146   -11.5889  C.ar    1  <O>11      -0.0617
  20 C14      -1.3302   -11.6501   -11.2240  C.ar    1  <O>11      -0.0611
  21 C15      -1.8178   -12.1940   -10.0345  C.ar    1  <O>11      -0.0526
  22 N3       -0.8554   -13.0167    -6.8245  N.ar    1  <O>11      -0.1946
  23 C16       1.0502   -11.4869    -4.4618  C.ar    1  <O>11       0.0110
  24 H1        4.5620   -10.9684    -4.1569  H       1  <O>11       0.3292
  25 H2        0.8532    -8.1820    -5.0240  H       1  <O>11       0.0669
  26 H3       -2.2328   -11.0518    -5.0398  H       1  <O>11       0.0683
  27 H4       -3.6120   -15.5304    -6.7199  H       1  <O>11       0.0832
  28 H5       -2.8906   -14.6901    -8.8640  H       1  <O>11       0.0654
  29 H6        1.0278   -13.6032    -8.9366  H       1  <O>11       0.0624
  30 H7        1.8580   -12.6580   -11.0129  H       1  <O>11       0.0618
  31 H8        0.3621   -11.4109   -12.4710  H       1  <O>11       0.0618
  32 H9       -1.9657   -11.1205   -11.8410  H       1  <O>11       0.0618
  33 H10      -2.8108   -12.0741    -9.7803  H       1  <O>11       0.0624
  34 H11       1.7367   -12.2254    -4.2419  H       1  <O>11       0.0677
@<TRIPOS>BOND
     1     1     2    2
     2     2     3    1
     3     2     4    1
     4     4     5   ar
     5     5     6   ar
     6     6     7    1
     7     6     8   ar
     8     8     9   ar
     9     9    10    1
    10    10    11    1
    11    11    12   ar
    12    12    13   ar
    13    13    14   ar
    14    14    15   ar
    15    15    16    1
    16    16    17   ar
    17    17    18   ar
    18    18    19   ar
    19    19    20   ar
    20    20    21   ar
    21    16    21   ar
    22    15    22   ar
    23    11    22   ar
    24     9    23   ar
    25     4    23   ar
    26     3    24    1
    27     5    25    1
    28     8    26    1
    29    13    27    1
    30    14    28    1
    31    17    29    1
    32    18    30    1
    33    19    31    1
    34    20    32    1
    35    21    33    1
    36    23    34    1
@<TRIPOS>MOLECULE
mol61_1_10
 34 36 0 0 0
SMALL
USER_CHARGES
****
VDW energy = -8.90
@<TRIPOS>ATOM
   1 O1        3.3127    -9.0776    -5.5893  O.2     1  <O>11      -0.1300
   2 N1        2.8495    -9.8143    -4.4295  N.4     1  <O>11       0.0062
   3 O2        3.6348   -11.0240    -4.2799  O.2     1  <O>11      -0.3961
   4 C1        1.4620   -10.1610    -4.6040  C.ar    1  <O>11       0.1278
   5 C2        0.5399    -9.1590    -4.9133  C.ar    1  <O>11       0.0039
   6 C3       -0.8113    -9.4867    -5.0724  C.ar    1  <O>11       0.1290
   7 F1       -1.7189    -8.5040    -5.3730  F       1  <O>11      -0.2053
   8 C4       -1.2362   -10.8097    -4.9249  C.ar    1  <O>11       0.0161
   9 C5       -0.2999   -11.8034    -4.6201  C.ar    1  <O>11       0.1368
  10 O3       -0.7202   -13.0959    -4.4781  O.3     1  <O>11      -0.4235
  11 C6       -1.3007   -13.5219    -5.6508  C.ar    1  <O>11       0.3239
  12 N2       -2.6296   -13.3414    -5.8296  N.ar    1  <O>11      -0.2030
  13 C7       -3.1740   -13.7661    -6.9847  C.ar    1  <O>11       0.0350
  14 C8       -2.4560   -14.3704    -7.9843  C.ar    1  <O>11      -0.0173
  15 C9       -1.1168   -14.5188    -7.7298  C.ar    1  <O>11       0.0778
  16 C10      -0.2818   -15.1374    -8.7059  C.ar    1  <O>11       0.0006
  17 C11      -0.0835   -16.5277    -8.6908  C.ar    1  <O>11      -0.0526
  18 C12       0.7453   -17.1336    -9.6419  C.ar    1  <O>11      -0.0611
  19 C13       1.3813   -16.3582   -10.6161  C.ar    1  <O>11      -0.0617
  20 C14       1.1798   -14.9742   -10.6335  C.ar    1  <O>11      -0.0611
  21 C15       0.3505   -14.3621    -9.6922  C.ar    1  <O>11      -0.0526
  22 N3       -0.5252   -14.1107    -6.5905  N.ar    1  <O>11      -0.1946
  23 C16       1.0502   -11.4869    -4.4618  C.ar    1  <O>11       0.0110
  24 H1        4.5620   -10.9684    -4.1569  H       1  <O>11       0.3292
  25 H2        0.8532    -8.1820    -5.0240  H       1  <O>11       0.0669
  26 H3       -2.2328   -11.0518    -5.0398  H       1  <O>11       0.0683
  27 H4       -4.1871   -13.6295    -7.1259  H       1  <O>11       0.0832
  28 H5       -2.8914   -14.6900    -8.8636  H       1  <O>11       0.0654
  29 H6       -0.5514   -17.1053    -7.9749  H       1  <O>11       0.0624
  30 H7        0.8874   -18.1557    -9.6242  H       1  <O>11       0.0618
  31 H8        1.9946   -16.8034   -11.3167  H       1  <O>11       0.0618
  32 H9        1.6495   -14.3992   -11.3502  H       1  <O>11       0.0618
  33 H10       0.2019   -13.3412    -9.7208  H       1  <O>11       0.0624
  34 H11       1.7367   -12.2254    -4.2419  H       1  <O>11       0.0677
@<TRIPOS>BOND
     1     1     2    2
     2     2     3    1
     3     2     4    1
     4     4     5   ar
     5     5     6   ar
     6     6     7    1
     7     6     8   ar
     8     8     9   ar
     9     9    10    1
    10    10    11    1
    11    11    12   ar
    12    12    13   ar
    13    13    14   ar
    14    14    15   ar
    15    15    16    1
    16    16    17   ar
    17    17    18   ar
    18    18    19   ar
    19    19    20   ar
    20    20    21   ar
    21    16    21   ar
    22    15    22   ar
    23    11    22   ar
    24     9    23   ar
    25     4    23   ar
    26     3    24    1
    27     5    25    1
    28     8    26    1
    29    13    27    1
    30    14    28    1
    31    17    29    1
    32    18    30    1
    33    19    31    1
    34    20    32    1
    35    21    33    1
    36    23    34    1
@<TRIPOS>MOLECULE
mol61_1_11
 34 36 0 0 0
SMALL
USER_CHARGES
****
VDW energy = -8.63
@<TRIPOS>ATOM
   1 O1        3.3127    -9.0776    -5.5893  O.2     1  <O>11      -0.1300
   2 N1        2.8495    -9.8143    -4.4295  N.4     1  <O>11       0.0062
   3 O2        3.6348   -11.0240    -4.2799  O.2     1  <O>11      -0.3961
   4 C1        1.4620   -10.1610    -4.6040  C.ar    1  <O>11       0.1278
   5 C2        0.6404   -10.2821    -3.4814  C.ar    1  <O>11       0.0039
   6 C3       -0.7054   -10.6303    -3.6426  C.ar    1  <O>11       0.1290
   7 F1       -1.5131   -10.7529    -2.5415  F       1  <O>11      -0.2053
   8 C4       -1.2258   -10.8537    -4.9200  C.ar    1  <O>11       0.0161
   9 C5       -0.3917   -10.7234    -6.0355  C.ar    1  <O>11       0.1368
  10 O3       -0.9058   -10.9417    -7.2827  O.3     1  <O>11      -0.4235
  11 C6        0.0808   -10.7599    -8.2247  C.ar    1  <O>11       0.3239
  12 N2        0.2632    -9.5290    -8.7559  N.ar    1  <O>11      -0.2030
  13 C7        1.2343    -9.3762    -9.6749  C.ar    1  <O>11       0.0350
  14 C8        2.0436   -10.3981   -10.0999  C.ar    1  <O>11      -0.0173
  15 C9        1.7979   -11.6148    -9.5172  C.ar    1  <O>11       0.0778
  16 C10       2.5842   -12.7435    -9.8921  C.ar    1  <O>11       0.0006
  17 C11       2.1828   -13.5643   -10.9587  C.ar    1  <O>11      -0.0526
  18 C12       2.9484   -14.6790   -11.3194  C.ar    1  <O>11      -0.0611
  19 C13       4.1207   -14.9826   -10.6204  C.ar    1  <O>11      -0.0617
  20 C14       4.5223   -14.1621    -9.5614  C.ar    1  <O>11      -0.0611
  21 C15       3.7679   -13.0452    -9.1983  C.ar    1  <O>11      -0.0526
  22 N3        0.8387   -11.8184    -8.5936  N.ar    1  <O>11      -0.1946
  23 C16       0.9512   -10.3743    -5.8851  C.ar    1  <O>11       0.0110
  24 H1        4.5620   -10.9684    -4.1569  H       1  <O>11       0.3292
  25 H2        1.0237   -10.1157    -2.5377  H       1  <O>11       0.0669
  26 H3       -2.2176   -11.1127    -5.0396  H       1  <O>11       0.0683
  27 H4        1.3778    -8.4388   -10.0819  H       1  <O>11       0.0832
  28 H5        2.7832   -10.2617   -10.8065  H       1  <O>11       0.0654
  29 H6        1.3191   -13.3445   -11.4790  H       1  <O>11       0.0624
  30 H7        2.6469   -15.2784   -12.1035  H       1  <O>11       0.0618
  31 H8        4.6851   -15.8055   -10.8839  H       1  <O>11       0.0618
  32 H9        5.3861   -14.3849    -9.0425  H       1  <O>11       0.0618
  33 H10       4.0793   -12.4418    -8.4211  H       1  <O>11       0.0624
  34 H11       1.5601   -10.2750    -6.7125  H       1  <O>11       0.0677
@<TRIPOS>BOND
     1     1     2    2
     2     2     3    1
     3     2     4    1
     4     4     5   ar
     5     5     6   ar
     6     6     7    1
     7     6     8   ar
     8     8     9   ar
     9     9    10    1
    10    10    11    1
    11    11    12   ar
    12    12    13   ar
    13    13    14   ar
    14    14    15   ar
    15    15    16    1
    16    16    17   ar
    17    17    18   ar
    18    18    19   ar
    19    19    20   ar
    20    20    21   ar
    21    16    21   ar
    22    15    22   ar
    23    11    22   ar
    24     9    23   ar
    25     4    23   ar
    26     3    24    1
    27     5    25    1
    28     8    26    1
    29    13    27    1
    30    14    28    1
    31    17    29    1
    32    18    30    1
    33    19    31    1
    34    20    32    1
    35    21    33    1
    36    23    34    1
@<TRIPOS>MOLECULE
mol61_1_12
 34 36 0 0 0
SMALL
USER_CHARGES
****
VDW energy = -8.61
@<TRIPOS>ATOM
   1 O1        3.3127    -9.0776    -5.5893  O.2     1  <O>11      -0.1300
   2 N1        2.8495    -9.8143    -4.4295  N.4     1  <O>11       0.0062
   3 O2        3.6348   -11.0240    -4.2799  O.2     1  <O>11      -0.3961
   4 C1        1.4620   -10.1610    -4.6040  C.ar    1  <O>11       0.1278
   5 C2        1.0679   -10.8494    -5.7532  C.ar    1  <O>11       0.0039
   6 C3       -0.2800   -11.1789    -5.9350  C.ar    1  <O>11       0.1290
   7 F1       -0.6697   -11.8519    -7.0641  F       1  <O>11      -0.2053
   8 C4       -1.2270   -10.8232    -4.9710  C.ar    1  <O>11       0.0161
   9 C5       -0.8162   -10.1384    -3.8224  C.ar    1  <O>11       0.1368
  10 O3       -1.7460    -9.7939    -2.8820  O.3     1  <O>11      -0.4235
  11 C6       -1.1279    -9.1341    -1.8446  C.ar    1  <O>11       0.3239
  12 N2       -0.6573    -9.8506    -0.7979  N.ar    1  <O>11      -0.2030
  13 C7       -0.0564    -9.1829     0.2042  C.ar    1  <O>11       0.0350
  14 C8        0.1017    -7.8211     0.2203  C.ar    1  <O>11      -0.0173
  15 C9       -0.4011    -7.1647    -0.8735  C.ar    1  <O>11       0.0778
  16 C10      -0.2887    -5.7455    -0.9528  C.ar    1  <O>11       0.0006
  17 C11      -1.3004    -4.9239    -0.4295  C.ar    1  <O>11      -0.0526
  18 C12      -1.1956    -3.5311    -0.5175  C.ar    1  <O>11      -0.0611
  19 C13      -0.0807    -2.9471    -1.1264  C.ar    1  <O>11      -0.0617
  20 C14       0.9287    -3.7658    -1.6432  C.ar    1  <O>11      -0.0611
  21 C15       0.8352    -5.1557    -1.5549  C.ar    1  <O>11      -0.0526
  22 N3       -1.0103    -7.7872    -1.9011  N.ar    1  <O>11      -0.1946
  23 C16       0.5261    -9.8074    -3.6310  C.ar    1  <O>11       0.0110
  24 H1        4.5620   -10.9684    -4.1569  H       1  <O>11       0.3292
  25 H2        1.7670   -11.1138    -6.4648  H       1  <O>11       0.0669
  26 H3       -2.2216   -11.0638    -5.1053  H       1  <O>11       0.0683
  27 H4        0.3050    -9.7255     1.0042  H       1  <O>11       0.0832
  28 H5        0.5651    -7.3264     0.9985  H       1  <O>11       0.0654
  29 H6       -2.1251    -5.3493     0.0221  H       1  <O>11       0.0624
  30 H7       -1.9434    -2.9334    -0.1319  H       1  <O>11       0.0618
  31 H8       -0.0032    -1.9202    -1.1941  H       1  <O>11       0.0618
  32 H9        1.7519    -3.3375    -2.0948  H       1  <O>11       0.0618
  33 H10       1.5908    -5.7494    -1.9313  H       1  <O>11       0.0624
  34 H11       0.8234    -9.3064    -2.7791  H       1  <O>11       0.0677
@<TRIPOS>BOND
     1     1     2    2
     2     2     3    1
     3     2     4    1
     4     4     5   ar
     5     5     6   ar
     6     6     7    1
     7     6     8   ar
     8     8     9   ar
     9     9    10    1
    10    10    11    1
    11    11    12   ar
    12    12    13   ar
    13    13    14   ar
    14    14    15   ar
    15    15    16    1
    16    16    17   ar
    17    17    18   ar
    18    18    19   ar
    19    19    20   ar
    20    20    21   ar
    21    16    21   ar
    22    15    22   ar
    23    11    22   ar
    24     9    23   ar
    25     4    23   ar
    26     3    24    1
    27     5    25    1
    28     8    26    1
    29    13    27    1
    30    14    28    1
    31    17    29    1
    32    18    30    1
    33    19    31    1
    34    20    32    1
    35    21    33    1
    36    23    34    1
@<TRIPOS>MOLECULE
mol61_1_13
 34 36 0 0 0
SMALL
USER_CHARGES
****
VDW energy = -5.64
@<TRIPOS>ATOM
   1 O1        3.3127    -9.0776    -5.5893  O.2     1  <O>11      -0.1300
   2 N1        2.8495    -9.8143    -4.4295  N.4     1  <O>11       0.0062
   3 O2        3.6348   -11.0240    -4.2799  O.2     1  <O>11      -0.3961
   4 C1        1.4620   -10.1610    -4.6040  C.ar    1  <O>11       0.1278
   5 C2        0.5399    -9.1590    -4.9133  C.ar    1  <O>11       0.0039
   6 C3       -0.8113    -9.4867    -5.0724  C.ar    1  <O>11       0.1290
   7 F1       -1.7189    -8.5040    -5.3730  F       1  <O>11      -0.2053
   8 C4       -1.2362   -10.8097    -4.9249  C.ar    1  <O>11       0.0161
   9 C5       -0.2999   -11.8034    -4.6201  C.ar    1  <O>11       0.1368
  10 O3       -0.7202   -13.0959    -4.4781  O.3     1  <O>11      -0.4235
  11 C6        0.3570   -13.8997    -4.1828  C.ar    1  <O>11       0.3239
  12 N2        1.0498   -14.4684    -5.1962  N.ar    1  <O>11      -0.2030
  13 C7        2.0993   -15.2500    -4.8822  C.ar    1  <O>11       0.0350
  14 C8        2.5003   -15.4999    -3.5951  C.ar    1  <O>11      -0.0173
  15 C9        1.7493   -14.8897    -2.6236  C.ar    1  <O>11       0.0778
  16 C10       2.0831   -15.0873    -1.2516  C.ar    1  <O>11       0.0006
  17 C11       1.5178   -16.1517    -0.5305  C.ar    1  <O>11      -0.0526
  18 C12       1.8366   -16.3388     0.8193  C.ar    1  <O>11      -0.0611
  19 C13       2.7225   -15.4671     1.4598  C.ar    1  <O>11      -0.0617
  20 C14       3.2888   -14.4101     0.7399  C.ar    1  <O>11      -0.0611
  21 C15       2.9809   -14.2192    -0.6081  C.ar    1  <O>11      -0.0526
  22 N3        0.6908   -14.0992    -2.8867  N.ar    1  <O>11      -0.1946
  23 C16       1.0502   -11.4869    -4.4618  C.ar    1  <O>11       0.0110
  24 H1        4.5620   -10.9684    -4.1569  H       1  <O>11       0.3292
  25 H2        0.8532    -8.1820    -5.0240  H       1  <O>11       0.0669
  26 H3       -2.2328   -11.0518    -5.0398  H       1  <O>11       0.0683
  27 H4        2.6313   -15.6850    -5.6521  H       1  <O>11       0.0832
  28 H5        3.3080   -16.1029    -3.3738  H       1  <O>11       0.0654
  29 H6        0.8642   -16.7990    -0.9983  H       1  <O>11       0.0624
  30 H7        1.4165   -17.1224     1.3434  H       1  <O>11       0.0618
  31 H8        2.9567   -15.6026     2.4558  H       1  <O>11       0.0618
  32 H9        3.9415   -13.7641     1.2107  H       1  <O>11       0.0618
  33 H10       3.4122   -13.4413    -1.1315  H       1  <O>11       0.0624
  34 H11       1.7367   -12.2254    -4.2419  H       1  <O>11       0.0677
@<TRIPOS>BOND
     1     1     2    2
     2     2     3    1
     3     2     4    1
     4     4     5   ar
     5     5     6   ar
     6     6     7    1
     7     6     8   ar
     8     8     9   ar
     9     9    10    1
    10    10    11    1
    11    11    12   ar
    12    12    13   ar
    13    13    14   ar
    14    14    15   ar
    15    15    16    1
    16    16    17   ar
    17    17    18   ar
    18    18    19   ar
    19    19    20   ar
    20    20    21   ar
    21    16    21   ar
    22    15    22   ar
    23    11    22   ar
    24     9    23   ar
    25     4    23   ar
    26     3    24    1
    27     5    25    1
    28     8    26    1
    29    13    27    1
    30    14    28    1
    31    17    29    1
    32    18    30    1
    33    19    31    1
    34    20    32    1
    35    21    33    1
    36    23    34    1
@<TRIPOS>MOLECULE
mol61_1_14
 34 36 0 0 0
SMALL
USER_CHARGES
****
VDW energy = -3.51
@<TRIPOS>ATOM
   1 O1        3.3127    -9.0776    -5.5893  O.2     1  <O>11      -0.1300
   2 N1        2.8495    -9.8143    -4.4295  N.4     1  <O>11       0.0062
   3 O2        3.6348   -11.0240    -4.2799  O.2     1  <O>11      -0.3961
   4 C1        1.4620   -10.1610    -4.6040  C.ar    1  <O>11       0.1278
   5 C2        0.7715   -10.7699    -3.5541  C.ar    1  <O>11       0.0039
   6 C3       -0.5731   -11.1203    -3.7207  C.ar    1  <O>11       0.1290
   7 F1       -1.2522   -11.7211    -2.6923  F       1  <O>11      -0.2053
   8 C4       -1.2228   -10.8606    -4.9303  C.ar    1  <O>11       0.0161
   9 C5       -0.5193   -10.2452    -5.9712  C.ar    1  <O>11       0.1368
  10 O3       -1.1595    -9.9923    -7.1517  O.3     1  <O>11      -0.4235
  11 C6       -1.6068   -11.1750    -7.6946  C.ar    1  <O>11       0.3239
  12 N2       -1.6814   -11.2935    -9.0403  N.ar    1  <O>11      -0.2030
  13 C7       -2.1214   -12.4599    -9.5473  C.ar    1  <O>11       0.0350
  14 C8       -2.4975   -13.5285    -8.7751  C.ar    1  <O>11      -0.0173
  15 C9       -2.3949   -13.3324    -7.4218  C.ar    1  <O>11       0.0778
  16 C10      -2.7634   -14.3828    -6.5310  C.ar    1  <O>11       0.0006
  17 C11      -4.0841   -14.4861    -6.0644  C.ar    1  <O>11      -0.0526
  18 C12      -4.4432   -15.5104    -5.1809  C.ar    1  <O>11      -0.0611
  19 C13      -3.4887   -16.4402    -4.7573  C.ar    1  <O>11      -0.0617
  20 C14      -2.1748   -16.3395    -5.2260  C.ar    1  <O>11      -0.0611
  21 C15      -1.8090   -15.3246    -6.1117  C.ar    1  <O>11      -0.0526
  22 N3       -1.9606   -12.1847    -6.8662  N.ar    1  <O>11      -0.1946
  23 C16       0.8212    -9.8900    -5.8138  C.ar    1  <O>11       0.0110
  24 H1        4.5620   -10.9684    -4.1569  H       1  <O>11       0.3292
  25 H2        1.2502   -10.9605    -2.6599  H       1  <O>11       0.0669
  26 H3       -2.2137   -11.1207    -5.0548  H       1  <O>11       0.0683
  27 H4       -2.1790   -12.5551   -10.5733  H       1  <O>11       0.0832
  28 H5       -2.8331   -14.4154    -9.1823  H       1  <O>11       0.0654
  29 H6       -4.7931   -13.8034    -6.3746  H       1  <O>11       0.0624
  30 H7       -5.4152   -15.5796    -4.8411  H       1  <O>11       0.0618
  31 H8       -3.7517   -17.1946    -4.1040  H       1  <O>11       0.0618
  32 H9       -1.4679   -17.0233    -4.9135  H       1  <O>11       0.0618
  33 H10      -0.8386   -15.2660    -6.4581  H       1  <O>11       0.0624
  34 H11       1.3332    -9.4317    -6.5839  H       1  <O>11       0.0677
@<TRIPOS>BOND
     1     1     2    2
     2     2     3    1
     3     2     4    1
     4     4     5   ar
     5     5     6   ar
     6     6     7    1
     7     6     8   ar
     8     8     9   ar
     9     9    10    1
    10    10    11    1
    11    11    12   ar
    12    12    13   ar
    13    13    14   ar
    14    14    15   ar
    15    15    16    1
    16    16    17   ar
    17    17    18   ar
    18    18    19   ar
    19    19    20   ar
    20    20    21   ar
    21    16    21   ar
    22    15    22   ar
    23    11    22   ar
    24     9    23   ar
    25     4    23   ar
    26     3    24    1
    27     5    25    1
    28     8    26    1
    29    13    27    1
    30    14    28    1
    31    17    29    1
    32    18    30    1
    33    19    31    1
    34    20    32    1
    35    21    33    1
    36    23    34    1
@<TRIPOS>MOLECULE
mol61_1_15
 34 36 0 0 0
SMALL
USER_CHARGES
****
VDW energy = -3.51
@<TRIPOS>ATOM
   1 O1        3.3127    -9.0776    -5.5893  O.2     1  <O>11      -0.1300
   2 N1        2.8495    -9.8143    -4.4295  N.4     1  <O>11       0.0062
   3 O2        3.6348   -11.0240    -4.2799  O.2     1  <O>11      -0.3961
   4 C1        1.4620   -10.1610    -4.6040  C.ar    1  <O>11       0.1278
   5 C2        0.7715   -10.7699    -3.5541  C.ar    1  <O>11       0.0039
   6 C3       -0.5731   -11.1203    -3.7207  C.ar    1  <O>11       0.1290
   7 F1       -1.2522   -11.7211    -2.6923  F       1  <O>11      -0.2053
   8 C4       -1.2228   -10.8606    -4.9303  C.ar    1  <O>11       0.0161
   9 C5       -0.5193   -10.2452    -5.9712  C.ar    1  <O>11       0.1368
  10 O3       -1.1595    -9.9923    -7.1517  O.3     1  <O>11      -0.4235
  11 C6       -1.6068   -11.1750    -7.6946  C.ar    1  <O>11       0.3239
  12 N2       -1.6814   -11.2935    -9.0403  N.ar    1  <O>11      -0.2030
  13 C7       -2.1214   -12.4599    -9.5473  C.ar    1  <O>11       0.0350
  14 C8       -2.4975   -13.5285    -8.7751  C.ar    1  <O>11      -0.0173
  15 C9       -2.3949   -13.3324    -7.4218  C.ar    1  <O>11       0.0778
  16 C10      -2.7634   -14.3828    -6.5310  C.ar    1  <O>11       0.0006
  17 C11      -1.8092   -15.3242    -6.1116  C.ar    1  <O>11      -0.0526
  18 C12      -2.1735   -16.3620    -5.2462  C.ar    1  <O>11      -0.0611
  19 C13      -3.4914   -16.4681    -4.7913  C.ar    1  <O>11      -0.0617
  20 C14      -4.4400   -15.5276    -5.2056  C.ar    1  <O>11      -0.0611
  21 C15      -4.0844   -14.4860    -6.0641  C.ar    1  <O>11      -0.0526
  22 N3       -1.9606   -12.1847    -6.8662  N.ar    1  <O>11      -0.1946
  23 C16       0.8212    -9.8900    -5.8138  C.ar    1  <O>11       0.0110
  24 H1        4.5620   -10.9684    -4.1569  H       1  <O>11       0.3292
  25 H2        1.2502   -10.9605    -2.6599  H       1  <O>11       0.0669
  26 H3       -2.2137   -11.1207    -5.0548  H       1  <O>11       0.0683
  27 H4       -2.1790   -12.5551   -10.5733  H       1  <O>11       0.0832
  28 H5       -2.8331   -14.4154    -9.1823  H       1  <O>11       0.0654
  29 H6       -0.8347   -15.2502    -6.4432  H       1  <O>11       0.0624
  30 H7       -1.4674   -17.0509    -4.9430  H       1  <O>11       0.0618
  31 H8       -3.7619   -17.2342    -4.1549  H       1  <O>11       0.0618
  32 H9       -5.4138   -15.6046    -4.8729  H       1  <O>11       0.0618
  33 H10      -4.7910   -13.7925    -6.3555  H       1  <O>11       0.0624
  34 H11       1.3332    -9.4317    -6.5839  H       1  <O>11       0.0677
@<TRIPOS>BOND
     1     1     2    2
     2     2     3    1
     3     2     4    1
     4     4     5   ar
     5     5     6   ar
     6     6     7    1
     7     6     8   ar
     8     8     9   ar
     9     9    10    1
    10    10    11    1
    11    11    12   ar
    12    12    13   ar
    13    13    14   ar
    14    14    15   ar
    15    15    16    1
    16    16    17   ar
    17    17    18   ar
    18    18    19   ar
    19    19    20   ar
    20    20    21   ar
    21    16    21   ar
    22    15    22   ar
    23    11    22   ar
    24     9    23   ar
    25     4    23   ar
    26     3    24    1
    27     5    25    1
    28     8    26    1
    29    13    27    1
    30    14    28    1
    31    17    29    1
    32    18    30    1
    33    19    31    1
    34    20    32    1
    35    21    33    1
    36    23    34    1
@<TRIPOS>MOLECULE
mol61_1_16
 34 36 0 0 0
SMALL
USER_CHARGES
****
VDW energy = -2.38
@<TRIPOS>ATOM
   1 O1        3.3127    -9.0776    -5.5893  O.2     1  <O>11      -0.1300
   2 N1        2.8495    -9.8143    -4.4295  N.4     1  <O>11       0.0062
   3 O2        3.6348   -11.0240    -4.2799  O.2     1  <O>11      -0.3961
   4 C1        1.4620   -10.1610    -4.6040  C.ar    1  <O>11       0.1278
   5 C2        0.5399    -9.1590    -4.9133  C.ar    1  <O>11       0.0039
   6 C3       -0.8113    -9.4867    -5.0724  C.ar    1  <O>11       0.1290
   7 F1       -1.7189    -8.5040    -5.3730  F       1  <O>11      -0.2053
   8 C4       -1.2362   -10.8097    -4.9249  C.ar    1  <O>11       0.0161
   9 C5       -0.2999   -11.8034    -4.6201  C.ar    1  <O>11       0.1368
  10 O3       -0.7202   -13.0959    -4.4781  O.3     1  <O>11      -0.4235
  11 C6       -1.3007   -13.5219    -5.6508  C.ar    1  <O>11       0.3239
  12 N2       -2.3840   -12.8643    -6.1245  N.ar    1  <O>11      -0.2030
  13 C7       -2.9337   -13.2995    -7.2732  C.ar    1  <O>11       0.0350
  14 C8       -2.4563   -14.3701    -7.9843  C.ar    1  <O>11      -0.0173
  15 C9       -1.3576   -14.9851    -7.4412  C.ar    1  <O>11       0.0778
  16 C10      -0.7848   -16.1104    -8.1035  C.ar    1  <O>11       0.0006
  17 C11      -1.2268   -17.4095    -7.8046  C.ar    1  <O>11      -0.0526
  18 C12      -0.6566   -18.5149    -8.4463  C.ar    1  <O>11      -0.0611
  19 C13       0.3573   -18.3331    -9.3918  C.ar    1  <O>11      -0.0617
  20 C14       0.7938   -17.0388    -9.6923  C.ar    1  <O>11      -0.0611
  21 C15       0.2269   -15.9302    -9.0614  C.ar    1  <O>11      -0.0526
  22 N3       -0.7716   -14.5876    -6.2953  N.ar    1  <O>11      -0.1946
  23 C16       1.0502   -11.4869    -4.4618  C.ar    1  <O>11       0.0110
  24 H1        4.5620   -10.9684    -4.1569  H       1  <O>11       0.3292
  25 H2        0.8532    -8.1820    -5.0240  H       1  <O>11       0.0669
  26 H3       -2.2328   -11.0518    -5.0398  H       1  <O>11       0.0683
  27 H4       -3.7596   -12.8002    -7.6387  H       1  <O>11       0.0832
  28 H5       -2.8918   -14.6897    -8.8636  H       1  <O>11       0.0654
  29 H6       -1.9757   -17.5497    -7.1085  H       1  <O>11       0.0624
  30 H7       -0.9854   -19.4668    -8.2209  H       1  <O>11       0.0618
  31 H8        0.7803   -19.1475    -9.8640  H       1  <O>11       0.0618
  32 H9        1.5432   -16.9019   -10.3884  H       1  <O>11       0.0618
  33 H10       0.5506   -14.9793    -9.2983  H       1  <O>11       0.0624
  34 H11       1.7367   -12.2254    -4.2419  H       1  <O>11       0.0677
@<TRIPOS>BOND
     1     1     2    2
     2     2     3    1
     3     2     4    1
     4     4     5   ar
     5     5     6   ar
     6     6     7    1
     7     6     8   ar
     8     8     9   ar
     9     9    10    1
    10    10    11    1
    11    11    12   ar
    12    12    13   ar
    13    13    14   ar
    14    14    15   ar
    15    15    16    1
    16    16    17   ar
    17    17    18   ar
    18    18    19   ar
    19    19    20   ar
    20    20    21   ar
    21    16    21   ar
    22    15    22   ar
    23    11    22   ar
    24     9    23   ar
    25     4    23   ar
    26     3    24    1
    27     5    25    1
    28     8    26    1
    29    13    27    1
    30    14    28    1
    31    17    29    1
    32    18    30    1
    33    19    31    1
    34    20    32    1
    35    21    33    1
    36    23    34    1
@<TRIPOS>MOLECULE
mol61_1_17
 34 36 0 0 0
SMALL
USER_CHARGES
****
VDW energy = -2.05
@<TRIPOS>ATOM
   1 O1        3.3127    -9.0776    -5.5893  O.2     1  <O>11      -0.1300
   2 N1        2.8495    -9.8143    -4.4295  N.4     1  <O>11       0.0062
   3 O2        3.6348   -11.0240    -4.2799  O.2     1  <O>11      -0.3961
   4 C1        1.4620   -10.1610    -4.6040  C.ar    1  <O>11       0.1278
   5 C2        0.7715   -10.7699    -3.5541  C.ar    1  <O>11       0.0039
   6 C3       -0.5731   -11.1203    -3.7207  C.ar    1  <O>11       0.1290
   7 F1       -1.2522   -11.7211    -2.6923  F       1  <O>11      -0.2053
   8 C4       -1.2228   -10.8606    -4.9303  C.ar    1  <O>11       0.0161
   9 C5       -0.5193   -10.2452    -5.9712  C.ar    1  <O>11       0.1368
  10 O3       -1.1595    -9.9923    -7.1517  O.3     1  <O>11      -0.4235
  11 C6       -1.6068   -11.1750    -7.6946  C.ar    1  <O>11       0.3239
  12 N2       -1.6814   -11.2935    -9.0403  N.ar    1  <O>11      -0.2030
  13 C7       -2.1214   -12.4599    -9.5473  C.ar    1  <O>11       0.0350
  14 C8       -2.4975   -13.5285    -8.7751  C.ar    1  <O>11      -0.0173
  15 C9       -2.3949   -13.3324    -7.4218  C.ar    1  <O>11       0.0778
  16 C10      -2.7634   -14.3828    -6.5310  C.ar    1  <O>11       0.0006
  17 C11      -1.8220   -14.9157    -5.6353  C.ar    1  <O>11      -0.0526
  18 C12      -2.1805   -15.9546    -4.7688  C.ar    1  <O>11      -0.0611
  19 C13      -3.4806   -16.4688    -4.7877  C.ar    1  <O>11      -0.0617
  20 C14      -4.4189   -15.9345    -5.6766  C.ar    1  <O>11      -0.0611
  21 C15      -4.0717   -14.8945    -6.5406  C.ar    1  <O>11      -0.0526
  22 N3       -1.9606   -12.1847    -6.8662  N.ar    1  <O>11      -0.1946
  23 C16       0.8212    -9.8900    -5.8138  C.ar    1  <O>11       0.0110
  24 H1        4.5620   -10.9684    -4.1569  H       1  <O>11       0.3292
  25 H2        1.2502   -10.9605    -2.6599  H       1  <O>11       0.0669
  26 H3       -2.2137   -11.1207    -5.0548  H       1  <O>11       0.0683
  27 H4       -2.1790   -12.5551   -10.5733  H       1  <O>11       0.0832
  28 H5       -2.8331   -14.4154    -9.1823  H       1  <O>11       0.0654
  29 H6       -0.8613   -14.5393    -5.6160  H       1  <O>11       0.0624
  30 H7       -1.4833   -16.3422    -4.1140  H       1  <O>11       0.0618
  31 H8       -3.7456   -17.2365    -4.1508  H       1  <O>11       0.0618
  32 H9       -5.3786   -16.3134    -5.6940  H       1  <O>11       0.0618
  33 H10      -4.7753   -14.5019    -7.1855  H       1  <O>11       0.0624
  34 H11       1.3332    -9.4317    -6.5839  H       1  <O>11       0.0677
@<TRIPOS>BOND
     1     1     2    2
     2     2     3    1
     3     2     4    1
     4     4     5   ar
     5     5     6   ar
     6     6     7    1
     7     6     8   ar
     8     8     9   ar
     9     9    10    1
    10    10    11    1
    11    11    12   ar
    12    12    13   ar
    13    13    14   ar
    14    14    15   ar
    15    15    16    1
    16    16    17   ar
    17    17    18   ar
    18    18    19   ar
    19    19    20   ar
    20    20    21   ar
    21    16    21   ar
    22    15    22   ar
    23    11    22   ar
    24     9    23   ar
    25     4    23   ar
    26     3    24    1
    27     5    25    1
    28     8    26    1
    29    13    27    1
    30    14    28    1
    31    17    29    1
    32    18    30    1
    33    19    31    1
    34    20    32    1
    35    21    33    1
    36    23    34    1
@<TRIPOS>MOLECULE
mol61_1_18
 34 36 0 0 0
SMALL
USER_CHARGES
****
VDW energy = -0.69
@<TRIPOS>ATOM
   1 O1        3.3127    -9.0776    -5.5893  O.2     1  <O>11      -0.1300
   2 N1        2.8495    -9.8143    -4.4295  N.4     1  <O>11       0.0062
   3 O2        3.6348   -11.0240    -4.2799  O.2     1  <O>11      -0.3961
   4 C1        1.4620   -10.1610    -4.6040  C.ar    1  <O>11       0.1278
   5 C2        0.5399    -9.1590    -4.9133  C.ar    1  <O>11       0.0039
   6 C3       -0.8113    -9.4867    -5.0724  C.ar    1  <O>11       0.1290
   7 F1       -1.7189    -8.5040    -5.3730  F       1  <O>11      -0.2053
   8 C4       -1.2362   -10.8097    -4.9249  C.ar    1  <O>11       0.0161
   9 C5       -0.2999   -11.8034    -4.6201  C.ar    1  <O>11       0.1368
  10 O3       -0.7202   -13.0959    -4.4781  O.3     1  <O>11      -0.4235
  11 C6       -1.3007   -13.5219    -5.6508  C.ar    1  <O>11       0.3239
  12 N2       -2.3840   -12.8643    -6.1245  N.ar    1  <O>11      -0.2030
  13 C7       -2.9337   -13.2995    -7.2732  C.ar    1  <O>11       0.0350
  14 C8       -2.4563   -14.3701    -7.9843  C.ar    1  <O>11      -0.0173
  15 C9       -1.3576   -14.9851    -7.4412  C.ar    1  <O>11       0.0778
  16 C10      -0.7848   -16.1104    -8.1035  C.ar    1  <O>11       0.0006
  17 C11       0.5491   -16.0720    -8.5414  C.ar    1  <O>11      -0.0526
  18 C12       1.1079   -17.1721    -9.2017  C.ar    1  <O>11      -0.0611
  19 C13       0.3416   -18.3193    -9.4288  C.ar    1  <O>11      -0.0617
  20 C14      -0.9853   -18.3587    -8.9883  C.ar    1  <O>11      -0.0611
  21 C15      -1.5492   -17.2682    -8.3240  C.ar    1  <O>11      -0.0526
  22 N3       -0.7716   -14.5876    -6.2953  N.ar    1  <O>11      -0.1946
  23 C16       1.0502   -11.4869    -4.4618  C.ar    1  <O>11       0.0110
  24 H1        4.5620   -10.9684    -4.1569  H       1  <O>11       0.3292
  25 H2        0.8532    -8.1820    -5.0240  H       1  <O>11       0.0669
  26 H3       -2.2328   -11.0518    -5.0398  H       1  <O>11       0.0683
  27 H4       -3.7596   -12.8002    -7.6387  H       1  <O>11       0.0832
  28 H5       -2.8918   -14.6897    -8.8636  H       1  <O>11       0.0654
  29 H6        1.1199   -15.2283    -8.3755  H       1  <O>11       0.0624
  30 H7        2.0884   -17.1366    -9.5218  H       1  <O>11       0.0618
  31 H8        0.7517   -19.1305    -9.9176  H       1  <O>11       0.0618
  32 H9       -1.5538   -19.2034    -9.1563  H       1  <O>11       0.0618
  33 H10      -2.5265   -17.3125    -7.9952  H       1  <O>11       0.0624
  34 H11       1.7367   -12.2254    -4.2419  H       1  <O>11       0.0677
@<TRIPOS>BOND
     1     1     2    2
     2     2     3    1
     3     2     4    1
     4     4     5   ar
     5     5     6   ar
     6     6     7    1
     7     6     8   ar
     8     8     9   ar
     9     9    10    1
    10    10    11    1
    11    11    12   ar
    12    12    13   ar
    13    13    14   ar
    14    14    15   ar
    15    15    16    1
    16    16    17   ar
    17    17    18   ar
    18    18    19   ar
    19    19    20   ar
    20    20    21   ar
    21    16    21   ar
    22    15    22   ar
    23    11    22   ar
    24     9    23   ar
    25     4    23   ar
    26     3    24    1
    27     5    25    1
    28     8    26    1
    29    13    27    1
    30    14    28    1
    31    17    29    1
    32    18    30    1
    33    19    31    1
    34    20    32    1
    35    21    33    1
    36    23    34    1
@<TRIPOS>MOLECULE
mol61_1_19
 34 36 0 0 0
SMALL
USER_CHARGES
****
VDW energy = 0.07
@<TRIPOS>ATOM
   1 O1        3.3127    -9.0776    -5.5893  O.2     1  <O>11      -0.1300
   2 N1        2.8495    -9.8143    -4.4295  N.4     1  <O>11       0.0062
   3 O2        3.6348   -11.0240    -4.2799  O.2     1  <O>11      -0.3961
   4 C1        1.4620   -10.1610    -4.6040  C.ar    1  <O>11       0.1278
   5 C2        0.5399    -9.1590    -4.9133  C.ar    1  <O>11       0.0039
   6 C3       -0.8113    -9.4867    -5.0724  C.ar    1  <O>11       0.1290
   7 F1       -1.7189    -8.5040    -5.3730  F       1  <O>11      -0.2053
   8 C4       -1.2362   -10.8097    -4.9249  C.ar    1  <O>11       0.0161
   9 C5       -0.2999   -11.8034    -4.6201  C.ar    1  <O>11       0.1368
  10 O3       -0.7202   -13.0959    -4.4781  O.3     1  <O>11      -0.4235
  11 C6       -0.6651   -13.7336    -5.6962  C.ar    1  <O>11       0.3239
  12 N2       -1.5556   -14.7163    -5.9643  N.ar    1  <O>11      -0.2030
  13 C7       -1.4818   -15.3248    -7.1623  C.ar    1  <O>11       0.0350
  14 C8       -0.5551   -15.0033    -8.1202  C.ar    1  <O>11      -0.0173
  15 C9        0.3128   -13.9993    -7.7754  C.ar    1  <O>11       0.0778
  16 C10       1.3165   -13.5908    -8.7020  C.ar    1  <O>11       0.0006
  17 C11       1.3511   -14.1362    -9.9958  C.ar    1  <O>11      -0.0526
  18 C12       2.3432   -13.7438   -10.9016  C.ar    1  <O>11      -0.0611
  19 C13       3.3072   -12.8038   -10.5248  C.ar    1  <O>11      -0.0617
  20 C14       3.2694   -12.2576    -9.2378  C.ar    1  <O>11      -0.0611
  21 C15       2.2802   -12.6389    -8.3297  C.ar    1  <O>11      -0.0526
  22 N3        0.2796   -13.3601    -6.5901  N.ar    1  <O>11      -0.1946
  23 C16       1.0502   -11.4869    -4.4618  C.ar    1  <O>11       0.0110
  24 H1        4.5620   -10.9684    -4.1569  H       1  <O>11       0.3292
  25 H2        0.8532    -8.1820    -5.0240  H       1  <O>11       0.0669
  26 H3       -2.2328   -11.0518    -5.0398  H       1  <O>11       0.0683
  27 H4       -2.1598   -16.0743    -7.3714  H       1  <O>11       0.0832
  28 H5       -0.5137   -15.4818    -9.0336  H       1  <O>11       0.0654
  29 H6        0.6415   -14.8296   -10.2799  H       1  <O>11       0.0624
  30 H7        2.3634   -14.1495   -11.8503  H       1  <O>11       0.0618
  31 H8        4.0407   -12.5152   -11.1910  H       1  <O>11       0.0618
  32 H9        3.9807   -11.5649    -8.9564  H       1  <O>11       0.0618
  33 H10       2.2568   -12.2219    -7.3859  H       1  <O>11       0.0624
  34 H11       1.7367   -12.2254    -4.2419  H       1  <O>11       0.0677
@<TRIPOS>BOND
     1     1     2    2
     2     2     3    1
     3     2     4    1
     4     4     5   ar
     5     5     6   ar
     6     6     7    1
     7     6     8   ar
     8     8     9   ar
     9     9    10    1
    10    10    11    1
    11    11    12   ar
    12    12    13   ar
    13    13    14   ar
    14    14    15   ar
    15    15    16    1
    16    16    17   ar
    17    17    18   ar
    18    18    19   ar
    19    19    20   ar
    20    20    21   ar
    21    16    21   ar
    22    15    22   ar
    23    11    22   ar
    24     9    23   ar
    25     4    23   ar
    26     3    24    1
    27     5    25    1
    28     8    26    1
    29    13    27    1
    30    14    28    1
    31    17    29    1
    32    18    30    1
    33    19    31    1
    34    20    32    1
    35    21    33    1
    36    23    34    1
@<TRIPOS>MOLECULE
mol61_1_20
 34 36 0 0 0
SMALL
USER_CHARGES
****
VDW energy = 0.96
@<TRIPOS>ATOM
   1 O1        3.3127    -9.0776    -5.5893  O.2     1  <O>11      -0.1300
   2 N1        2.8495    -9.8143    -4.4295  N.4     1  <O>11       0.0062
   3 O2        3.6348   -11.0240    -4.2799  O.2     1  <O>11      -0.3961
   4 C1        1.4620   -10.1610    -4.6040  C.ar    1  <O>11       0.1278
   5 C2        0.5399    -9.1590    -4.9133  C.ar    1  <O>11       0.0039
   6 C3       -0.8113    -9.4867    -5.0724  C.ar    1  <O>11       0.1290
   7 F1       -1.7189    -8.5040    -5.3730  F       1  <O>11      -0.2053
   8 C4       -1.2362   -10.8097    -4.9249  C.ar    1  <O>11       0.0161
   9 C5       -0.2999   -11.8034    -4.6201  C.ar    1  <O>11       0.1368
  10 O3       -0.7202   -13.0959    -4.4781  O.3     1  <O>11      -0.4235
  11 C6       -1.6410   -13.1702    -3.4581  C.ar    1  <O>11       0.3239
  12 N2       -1.7224   -14.3064    -2.7280  N.ar    1  <O>11      -0.2030
  13 C7       -2.6303   -14.3549    -1.7359  C.ar    1  <O>11       0.0350
  14 C8       -3.4739   -13.3186    -1.4287  C.ar    1  <O>11      -0.0173
  15 C9       -3.3325   -12.2023    -2.2124  C.ar    1  <O>11       0.0778
  16 C10      -4.1644   -11.0690    -1.9753  C.ar    1  <O>11       0.0006
  17 C11      -5.4002   -10.9469    -2.6314  C.ar    1  <O>11      -0.0526
  18 C12      -6.2117    -9.8289    -2.4075  C.ar    1  <O>11      -0.0611
  19 C13      -5.7979    -8.8250    -1.5266  C.ar    1  <O>11      -0.0617
  20 C14      -4.5693    -8.9494    -0.8699  C.ar    1  <O>11      -0.0611
  21 C15      -3.7560   -10.0637    -1.0829  C.ar    1  <O>11      -0.0526
  22 N3       -2.4396   -12.1050    -3.2163  N.ar    1  <O>11      -0.1946
  23 C16       1.0502   -11.4869    -4.4618  C.ar    1  <O>11       0.0110
  24 H1        4.5620   -10.9684    -4.1569  H       1  <O>11       0.3292
  25 H2        0.8532    -8.1820    -5.0240  H       1  <O>11       0.0669
  26 H3       -2.2328   -11.0518    -5.0398  H       1  <O>11       0.0683
  27 H4       -2.6952   -15.2192    -1.1757  H       1  <O>11       0.0832
  28 H5       -4.1645   -13.3746    -0.6640  H       1  <O>11       0.0654
  29 H6       -5.7113   -11.6853    -3.2818  H       1  <O>11       0.0624
  30 H7       -7.1180    -9.7452    -2.8939  H       1  <O>11       0.0618
  31 H8       -6.3942    -7.9989    -1.3622  H       1  <O>11       0.0618
  32 H9       -4.2605    -8.2091    -0.2207  H       1  <O>11       0.0618
  33 H10      -2.8558   -10.1490    -0.5855  H       1  <O>11       0.0624
  34 H11       1.7367   -12.2254    -4.2419  H       1  <O>11       0.0677
@<TRIPOS>BOND
     1     1     2    2
     2     2     3    1
     3     2     4    1
     4     4     5   ar
     5     5     6   ar
     6     6     7    1
     7     6     8   ar
     8     8     9   ar
     9     9    10    1
    10    10    11    1
    11    11    12   ar
    12    12    13   ar
    13    13    14   ar
    14    14    15   ar
    15    15    16    1
    16    16    17   ar
    17    17    18   ar
    18    18    19   ar
    19    19    20   ar
    20    20    21   ar
    21    16    21   ar
    22    15    22   ar
    23    11    22   ar
    24     9    23   ar
    25     4    23   ar
    26     3    24    1
    27     5    25    1
    28     8    26    1
    29    13    27    1
    30    14    28    1
    31    17    29    1
    32    18    30    1
    33    19    31    1
    34    20    32    1
    35    21    33    1
    36    23    34    1
@<TRIPOS>MOLECULE
mol61_1_21
 34 36 0 0 0
SMALL
USER_CHARGES
****
VDW energy = 1.10
@<TRIPOS>ATOM
   1 O1        3.3127    -9.0776    -5.5893  O.2     1  <O>11      -0.1300
   2 N1        2.8495    -9.8143    -4.4295  N.4     1  <O>11       0.0062
   3 O2        3.6348   -11.0240    -4.2799  O.2     1  <O>11      -0.3961
   4 C1        1.4620   -10.1610    -4.6040  C.ar    1  <O>11       0.1278
   5 C2        0.5399    -9.1590    -4.9133  C.ar    1  <O>11       0.0039
   6 C3       -0.8113    -9.4867    -5.0724  C.ar    1  <O>11       0.1290
   7 F1       -1.7189    -8.5040    -5.3730  F       1  <O>11      -0.2053
   8 C4       -1.2362   -10.8097    -4.9249  C.ar    1  <O>11       0.0161
   9 C5       -0.2999   -11.8034    -4.6201  C.ar    1  <O>11       0.1368
  10 O3       -0.7202   -13.0959    -4.4781  O.3     1  <O>11      -0.4235
  11 C6       -0.6651   -13.7336    -5.6962  C.ar    1  <O>11       0.3239
  12 N2       -1.7498   -13.7017    -6.5043  N.ar    1  <O>11      -0.2030
  13 C7       -1.6715   -14.3323    -7.6905  C.ar    1  <O>11       0.0350
  14 C8       -0.5557   -15.0033    -8.1202  C.ar    1  <O>11      -0.0173
  15 C9        0.5015   -14.9921    -7.2471  C.ar    1  <O>11       0.0778
  16 C10       1.7091   -15.6633    -7.5993  C.ar    1  <O>11       0.0006
  17 C11       1.8543   -16.2406    -8.8713  C.ar    1  <O>11      -0.0526
  18 C12       3.0353   -16.9094    -9.2130  C.ar    1  <O>11      -0.0611
  19 C13       4.0807   -17.0062    -8.2897  C.ar    1  <O>11      -0.0617
  20 C14       3.9373   -16.4270    -7.0247  C.ar    1  <O>11      -0.0611
  21 C15       2.7652   -15.7533    -6.6772  C.ar    1  <O>11      -0.0526
  22 N3        0.4723   -14.3757    -6.0497  N.ar    1  <O>11      -0.1946
  23 C16       1.0502   -11.4869    -4.4618  C.ar    1  <O>11       0.0110
  24 H1        4.5620   -10.9684    -4.1569  H       1  <O>11       0.3292
  25 H2        0.8532    -8.1820    -5.0240  H       1  <O>11       0.0669
  26 H3       -2.2328   -11.0518    -5.0398  H       1  <O>11       0.0683
  27 H4       -2.4961   -14.3096    -8.3105  H       1  <O>11       0.0832
  28 H5       -0.5146   -15.4817    -9.0337  H       1  <O>11       0.0654
  29 H6        1.0865   -16.1712    -9.5574  H       1  <O>11       0.0624
  30 H7        3.1347   -17.3323   -10.1491  H       1  <O>11       0.0618
  31 H8        4.9512   -17.5011    -8.5395  H       1  <O>11       0.0618
  32 H9        4.7065   -16.4986    -6.3406  H       1  <O>11       0.0618
  33 H10       2.6745   -15.3218    -5.7441  H       1  <O>11       0.0624
  34 H11       1.7367   -12.2254    -4.2419  H       1  <O>11       0.0677
@<TRIPOS>BOND
     1     1     2    2
     2     2     3    1
     3     2     4    1
     4     4     5   ar
     5     5     6   ar
     6     6     7    1
     7     6     8   ar
     8     8     9   ar
     9     9    10    1
    10    10    11    1
    11    11    12   ar
    12    12    13   ar
    13    13    14   ar
    14    14    15   ar
    15    15    16    1
    16    16    17   ar
    17    17    18   ar
    18    18    19   ar
    19    19    20   ar
    20    20    21   ar
    21    16    21   ar
    22    15    22   ar
    23    11    22   ar
    24     9    23   ar
    25     4    23   ar
    26     3    24    1
    27     5    25    1
    28     8    26    1
    29    13    27    1
    30    14    28    1
    31    17    29    1
    32    18    30    1
    33    19    31    1
    34    20    32    1
    35    21    33    1
    36    23    34    1
@<TRIPOS>MOLECULE
mol61_1_22
 34 36 0 0 0
SMALL
USER_CHARGES
****
VDW energy = 1.74
@<TRIPOS>ATOM
   1 O1        3.3127    -9.0776    -5.5893  O.2     1  <O>11      -0.1300
   2 N1        2.8495    -9.8143    -4.4295  N.4     1  <O>11       0.0062
   3 O2        3.6348   -11.0240    -4.2799  O.2     1  <O>11      -0.3961
   4 C1        1.4620   -10.1610    -4.6040  C.ar    1  <O>11       0.1278
   5 C2        0.5399    -9.1590    -4.9133  C.ar    1  <O>11       0.0039
   6 C3       -0.8113    -9.4867    -5.0724  C.ar    1  <O>11       0.1290
   7 F1       -1.7189    -8.5040    -5.3730  F       1  <O>11      -0.2053
   8 C4       -1.2362   -10.8097    -4.9249  C.ar    1  <O>11       0.0161
   9 C5       -0.2999   -11.8034    -4.6201  C.ar    1  <O>11       0.1368
  10 O3       -0.7202   -13.0959    -4.4781  O.3     1  <O>11      -0.4235
  11 C6       -0.6651   -13.7336    -5.6962  C.ar    1  <O>11       0.3239
  12 N2        0.5248   -13.8332    -6.3325  N.ar    1  <O>11      -0.2030
  13 C7        0.5532   -14.4615    -7.5222  C.ar    1  <O>11       0.0350
  14 C8       -0.5554   -15.0022    -8.1208  C.ar    1  <O>11      -0.0173
  15 C9       -1.7233   -14.8611    -7.4164  C.ar    1  <O>11       0.0778
  16 C10      -2.9345   -15.3877    -7.9537  C.ar    1  <O>11       0.0006
  17 C11      -2.9164   -16.1367    -9.1416  C.ar    1  <O>11      -0.0526
  18 C12      -4.1066   -16.6439    -9.6752  C.ar    1  <O>11      -0.0611
  19 C13      -5.3235   -16.4094    -9.0276  C.ar    1  <O>11      -0.0617
  20 C14      -5.3402   -15.6674    -7.8422  C.ar    1  <O>11      -0.0611
  21 C15      -4.1573   -15.1624    -7.2998  C.ar    1  <O>11      -0.0526
  22 N3       -1.8034   -14.2412    -6.2231  N.ar    1  <O>11      -0.1946
  23 C16       1.0502   -11.4869    -4.4618  C.ar    1  <O>11       0.0110
  24 H1        4.5620   -10.9684    -4.1569  H       1  <O>11       0.3292
  25 H2        0.8532    -8.1820    -5.0240  H       1  <O>11       0.0669
  26 H3       -2.2328   -11.0518    -5.0398  H       1  <O>11       0.0683
  27 H4        1.4589   -14.5407    -8.0105  H       1  <O>11       0.0832
  28 H5       -0.5140   -15.4802    -9.0345  H       1  <O>11       0.0654
  29 H6       -2.0211   -16.3140    -9.6233  H       1  <O>11       0.0624
  30 H7       -4.0861   -17.1925   -10.5491  H       1  <O>11       0.0618
  31 H8       -6.2022   -16.7809    -9.4212  H       1  <O>11       0.0618
  32 H9       -6.2371   -15.4912    -7.3632  H       1  <O>11       0.0618
  33 H10      -4.1810   -14.6243    -6.4195  H       1  <O>11       0.0624
  34 H11       1.7367   -12.2254    -4.2419  H       1  <O>11       0.0677
@<TRIPOS>BOND
     1     1     2    2
     2     2     3    1
     3     2     4    1
     4     4     5   ar
     5     5     6   ar
     6     6     7    1
     7     6     8   ar
     8     8     9   ar
     9     9    10    1
    10    10    11    1
    11    11    12   ar
    12    12    13   ar
    13    13    14   ar
    14    14    15   ar
    15    15    16    1
    16    16    17   ar
    17    17    18   ar
    18    18    19   ar
    19    19    20   ar
    20    20    21   ar
    21    16    21   ar
    22    15    22   ar
    23    11    22   ar
    24     9    23   ar
    25     4    23   ar
    26     3    24    1
    27     5    25    1
    28     8    26    1
    29    13    27    1
    30    14    28    1
    31    17    29    1
    32    18    30    1
    33    19    31    1
    34    20    32    1
    35    21    33    1
    36    23    34    1
@<TRIPOS>MOLECULE
mol61_1_23
 34 36 0 0 0
SMALL
USER_CHARGES
****
VDW energy = 2.34
@<TRIPOS>ATOM
   1 O1        3.3127    -9.0776    -5.5893  O.2     1  <O>11      -0.1300
   2 N1        2.8495    -9.8143    -4.4295  N.4     1  <O>11       0.0062
   3 O2        3.6348   -11.0240    -4.2799  O.2     1  <O>11      -0.3961
   4 C1        1.4620   -10.1610    -4.6040  C.ar    1  <O>11       0.1278
   5 C2        0.5399    -9.1590    -4.9133  C.ar    1  <O>11       0.0039
   6 C3       -0.8113    -9.4867    -5.0724  C.ar    1  <O>11       0.1290
   7 F1       -1.7189    -8.5040    -5.3730  F       1  <O>11      -0.2053
   8 C4       -1.2362   -10.8097    -4.9249  C.ar    1  <O>11       0.0161
   9 C5       -0.2999   -11.8034    -4.6201  C.ar    1  <O>11       0.1368
  10 O3       -0.7202   -13.0959    -4.4781  O.3     1  <O>11      -0.4235
  11 C6       -1.6410   -13.1702    -3.4581  C.ar    1  <O>11       0.3239
  12 N2       -1.7224   -14.3064    -2.7280  N.ar    1  <O>11      -0.2030
  13 C7       -2.6303   -14.3549    -1.7359  C.ar    1  <O>11       0.0350
  14 C8       -3.4739   -13.3186    -1.4287  C.ar    1  <O>11      -0.0173
  15 C9       -3.3325   -12.2023    -2.2124  C.ar    1  <O>11       0.0778
  16 C10      -4.1644   -11.0690    -1.9753  C.ar    1  <O>11       0.0006
  17 C11      -3.5952    -9.8289    -1.6426  C.ar    1  <O>11      -0.0526
  18 C12      -4.4123    -8.7191    -1.3986  C.ar    1  <O>11      -0.0611
  19 C13      -5.8028    -8.8371    -1.4860  C.ar    1  <O>11      -0.0617
  20 C14      -6.3688   -10.0712    -1.8219  C.ar    1  <O>11      -0.0611
  21 C15      -5.5613   -11.1819    -2.0724  C.ar    1  <O>11      -0.0526
  22 N3       -2.4396   -12.1050    -3.2163  N.ar    1  <O>11      -0.1946
  23 C16       1.0502   -11.4869    -4.4618  C.ar    1  <O>11       0.0110
  24 H1        4.5620   -10.9684    -4.1569  H       1  <O>11       0.3292
  25 H2        0.8532    -8.1820    -5.0240  H       1  <O>11       0.0669
  26 H3       -2.2328   -11.0518    -5.0398  H       1  <O>11       0.0683
  27 H4       -2.6952   -15.2192    -1.1757  H       1  <O>11       0.0832
  28 H5       -4.1645   -13.3746    -0.6640  H       1  <O>11       0.0654
  29 H6       -2.5695    -9.7355    -1.5778  H       1  <O>11       0.0624
  30 H7       -3.9873    -7.8112    -1.1535  H       1  <O>11       0.0618
  31 H8       -6.4066    -8.0201    -1.3041  H       1  <O>11       0.0618
  32 H9       -7.3948   -10.1616    -1.8853  H       1  <O>11       0.0618
  33 H10      -5.9900   -12.0851    -2.3287  H       1  <O>11       0.0624
  34 H11       1.7367   -12.2254    -4.2419  H       1  <O>11       0.0677
@<TRIPOS>BOND
     1     1     2    2
     2     2     3    1
     3     2     4    1
     4     4     5   ar
     5     5     6   ar
     6     6     7    1
     7     6     8   ar
     8     8     9   ar
     9     9    10    1
    10    10    11    1
    11    11    12   ar
    12    12    13   ar
    13    13    14   ar
    14    14    15   ar
    15    15    16    1
    16    16    17   ar
    17    17    18   ar
    18    18    19   ar
    19    19    20   ar
    20    20    21   ar
    21    16    21   ar
    22    15    22   ar
    23    11    22   ar
    24     9    23   ar
    25     4    23   ar
    26     3    24    1
    27     5    25    1
    28     8    26    1
    29    13    27    1
    30    14    28    1
    31    17    29    1
    32    18    30    1
    33    19    31    1
    34    20    32    1
    35    21    33    1
    36    23    34    1
@<TRIPOS>MOLECULE
mol61_1_24
 34 36 0 0 0
SMALL
USER_CHARGES
****
VDW energy = 6.70
@<TRIPOS>ATOM
   1 O1        3.3127    -9.0776    -5.5893  O.2     1  <O>11      -0.1300
   2 N1        2.8495    -9.8143    -4.4295  N.4     1  <O>11       0.0062
   3 O2        3.6348   -11.0240    -4.2799  O.2     1  <O>11      -0.3961
   4 C1        1.4620   -10.1610    -4.6040  C.ar    1  <O>11       0.1278
   5 C2        0.5399    -9.1590    -4.9133  C.ar    1  <O>11       0.0039
   6 C3       -0.8113    -9.4867    -5.0724  C.ar    1  <O>11       0.1290
   7 F1       -1.7189    -8.5040    -5.3730  F       1  <O>11      -0.2053
   8 C4       -1.2362   -10.8097    -4.9249  C.ar    1  <O>11       0.0161
   9 C5       -0.2999   -11.8034    -4.6201  C.ar    1  <O>11       0.1368
  10 O3       -0.7202   -13.0959    -4.4781  O.3     1  <O>11      -0.4235
  11 C6        0.3570   -13.8997    -4.1828  C.ar    1  <O>11       0.3239
  12 N2        1.0498   -14.4684    -5.1962  N.ar    1  <O>11      -0.2030
  13 C7        2.0993   -15.2500    -4.8822  C.ar    1  <O>11       0.0350
  14 C8        2.5003   -15.4999    -3.5951  C.ar    1  <O>11      -0.0173
  15 C9        1.7493   -14.8897    -2.6236  C.ar    1  <O>11       0.0778
  16 C10       2.0831   -15.0873    -1.2516  C.ar    1  <O>11       0.0006
  17 C11       3.2329   -15.8127    -0.8990  C.ar    1  <O>11      -0.0526
  18 C12       3.5544   -16.0164     0.4477  C.ar    1  <O>11      -0.0611
  19 C13       2.7330   -15.4971     1.4530  C.ar    1  <O>11      -0.0617
  20 C14       1.5907   -14.7708     1.1012  C.ar    1  <O>11      -0.0611
  21 C15       1.2653   -14.5579    -0.2394  C.ar    1  <O>11      -0.0526
  22 N3        0.6908   -14.0992    -2.8867  N.ar    1  <O>11      -0.1946
  23 C16       1.0502   -11.4869    -4.4618  C.ar    1  <O>11       0.0110
  24 H1        4.5620   -10.9684    -4.1569  H       1  <O>11       0.3292
  25 H2        0.8532    -8.1820    -5.0240  H       1  <O>11       0.0669
  26 H3       -2.2328   -11.0518    -5.0398  H       1  <O>11       0.0683
  27 H4        2.6313   -15.6850    -5.6521  H       1  <O>11       0.0832
  28 H5        3.3080   -16.1029    -3.3738  H       1  <O>11       0.0654
  29 H6        3.8436   -16.1974    -1.6367  H       1  <O>11       0.0624
  30 H7        4.4002   -16.5515     0.6996  H       1  <O>11       0.0618
  31 H8        2.9677   -15.6485     2.4465  H       1  <O>11       0.0618
  32 H9        0.9816   -14.3879     1.8411  H       1  <O>11       0.0618
  33 H10       0.4249   -14.0123    -0.4868  H       1  <O>11       0.0624
  34 H11       1.7367   -12.2254    -4.2419  H       1  <O>11       0.0677
@<TRIPOS>BOND
     1     1     2    2
     2     2     3    1
     3     2     4    1
     4     4     5   ar
     5     5     6   ar
     6     6     7    1
     7     6     8   ar
     8     8     9   ar
     9     9    10    1
    10    10    11    1
    11    11    12   ar
    12    12    13   ar
    13    13    14   ar
    14    14    15   ar
    15    15    16    1
    16    16    17   ar
    17    17    18   ar
    18    18    19   ar
    19    19    20   ar
    20    20    21   ar
    21    16    21   ar
    22    15    22   ar
    23    11    22   ar
    24     9    23   ar
    25     4    23   ar
    26     3    24    1
    27     5    25    1
    28     8    26    1
    29    13    27    1
    30    14    28    1
    31    17    29    1
    32    18    30    1
    33    19    31    1
    34    20    32    1
    35    21    33    1
    36    23    34    1
@<TRIPOS>MOLECULE
mol61_1_25
 34 36 0 0 0
SMALL
USER_CHARGES
****
VDW energy = 6.82
@<TRIPOS>ATOM
   1 O1        3.3127    -9.0776    -5.5893  O.2     1  <O>11      -0.1300
   2 N1        2.8495    -9.8143    -4.4295  N.4     1  <O>11       0.0062
   3 O2        3.6348   -11.0240    -4.2799  O.2     1  <O>11      -0.3961
   4 C1        1.4620   -10.1610    -4.6040  C.ar    1  <O>11       0.1278
   5 C2        1.0679   -10.8494    -5.7532  C.ar    1  <O>11       0.0039
   6 C3       -0.2800   -11.1789    -5.9350  C.ar    1  <O>11       0.1290
   7 F1       -0.6697   -11.8519    -7.0641  F       1  <O>11      -0.2053
   8 C4       -1.2270   -10.8232    -4.9710  C.ar    1  <O>11       0.0161
   9 C5       -0.8162   -10.1384    -3.8224  C.ar    1  <O>11       0.1368
  10 O3       -1.7460    -9.7939    -2.8820  O.3     1  <O>11      -0.4235
  11 C6       -2.6913    -8.9709    -3.4503  C.ar    1  <O>11       0.3239
  12 N2       -3.2952    -8.0353    -2.6819  N.ar    1  <O>11      -0.2030
  13 C7       -4.2158    -7.2423    -3.2603  C.ar    1  <O>11       0.0350
  14 C8       -4.5729    -7.3335    -4.5809  C.ar    1  <O>11      -0.0173
  15 C9       -3.9188    -8.3049    -5.2941  C.ar    1  <O>11       0.0778
  16 C10      -4.2195    -8.4826    -6.6765  C.ar    1  <O>11       0.0006
  17 C11      -5.0988    -7.6034    -7.3294  C.ar    1  <O>11      -0.0526
  18 C12      -5.4029    -7.7845    -8.6834  C.ar    1  <O>11      -0.0611
  19 C13      -4.8314    -8.8425    -9.3969  C.ar    1  <O>11      -0.0617
  20 C14      -3.9522    -9.7149    -8.7472  C.ar    1  <O>11      -0.0611
  21 C15      -3.6388    -9.5385    -7.3985  C.ar    1  <O>11      -0.0526
  22 N3       -2.9904    -9.1227    -4.7612  N.ar    1  <O>11      -0.1946
  23 C16       0.5261    -9.8074    -3.6310  C.ar    1  <O>11       0.0110
  24 H1        4.5620   -10.9684    -4.1569  H       1  <O>11       0.3292
  25 H2        1.7670   -11.1138    -6.4648  H       1  <O>11       0.0669
  26 H3       -2.2216   -11.0638    -5.1053  H       1  <O>11       0.0683
  27 H4       -4.6783    -6.5266    -2.6782  H       1  <O>11       0.0832
  28 H5       -5.2820    -6.7165    -5.0069  H       1  <O>11       0.0654
  29 H6       -5.5226    -6.8200    -6.8082  H       1  <O>11       0.0624
  30 H7       -6.0508    -7.1353    -9.1566  H       1  <O>11       0.0618
  31 H8       -5.0566    -8.9785   -10.3948  H       1  <O>11       0.0618
  32 H9       -3.5305   -10.4977    -9.2709  H       1  <O>11       0.0618
  33 H10      -2.9813   -10.1831    -6.9323  H       1  <O>11       0.0624
  34 H11       0.8234    -9.3064    -2.7791  H       1  <O>11       0.0677
@<TRIPOS>BOND
     1     1     2    2
     2     2     3    1
     3     2     4    1
     4     4     5   ar
     5     5     6   ar
     6     6     7    1
     7     6     8   ar
     8     8     9   ar
     9     9    10    1
    10    10    11    1
    11    11    12   ar
    12    12    13   ar
    13    13    14   ar
    14    14    15   ar
    15    15    16    1
    16    16    17   ar
    17    17    18   ar
    18    18    19   ar
    19    19    20   ar
    20    20    21   ar
    21    16    21   ar
    22    15    22   ar
    23    11    22   ar
    24     9    23   ar
    25     4    23   ar
    26     3    24    1
    27     5    25    1
    28     8    26    1
    29    13    27    1
    30    14    28    1
    31    17    29    1
    32    18    30    1
    33    19    31    1
    34    20    32    1
    35    21    33    1
    36    23    34    1
@<TRIPOS>MOLECULE
mol61_1_26
 34 36 0 0 0
SMALL
USER_CHARGES
****
VDW energy = 7.24
@<TRIPOS>ATOM
   1 O1        3.3127    -9.0776    -5.5893  O.2     1  <O>11      -0.1300
   2 N1        2.8495    -9.8143    -4.4295  N.4     1  <O>11       0.0062
   3 O2        3.6348   -11.0240    -4.2799  O.2     1  <O>11      -0.3961
   4 C1        1.4620   -10.1610    -4.6040  C.ar    1  <O>11       0.1278
   5 C2        0.5399    -9.1590    -4.9133  C.ar    1  <O>11       0.0039
   6 C3       -0.8113    -9.4867    -5.0724  C.ar    1  <O>11       0.1290
   7 F1       -1.7189    -8.5040    -5.3730  F       1  <O>11      -0.2053
   8 C4       -1.2362   -10.8097    -4.9249  C.ar    1  <O>11       0.0161
   9 C5       -0.2999   -11.8034    -4.6201  C.ar    1  <O>11       0.1368
  10 O3       -0.7202   -13.0959    -4.4781  O.3     1  <O>11      -0.4235
  11 C6        0.3570   -13.8997    -4.1828  C.ar    1  <O>11       0.3239
  12 N2        1.3829   -13.9726    -5.0618  N.ar    1  <O>11      -0.2030
  13 C7        2.4250   -14.7651    -4.7505  C.ar    1  <O>11       0.0350
  14 C8        2.5004   -15.4998    -3.5954  C.ar    1  <O>11      -0.0173
  15 C9        1.4237   -15.3747    -2.7557  C.ar    1  <O>11       0.0778
  16 C10       1.4036   -16.0994    -1.5281  C.ar    1  <O>11       0.0006
  17 C11       1.9347   -15.5294    -0.3595  C.ar    1  <O>11      -0.0526
  18 C12       1.9255   -16.2452     0.8431  C.ar    1  <O>11      -0.0611
  19 C13       1.3854   -17.5340     0.8899  C.ar    1  <O>11      -0.0617
  20 C14       0.8524   -18.0993    -0.2731  C.ar    1  <O>11      -0.0611
  21 C15       0.8523   -17.3905    -1.4756  C.ar    1  <O>11      -0.0526
  22 N3        0.3578   -14.5952    -3.0220  N.ar    1  <O>11      -0.1946
  23 C16       1.0502   -11.4869    -4.4618  C.ar    1  <O>11       0.0110
  24 H1        4.5620   -10.9684    -4.1569  H       1  <O>11       0.3292
  25 H2        0.8532    -8.1820    -5.0240  H       1  <O>11       0.0669
  26 H3       -2.2328   -11.0518    -5.0398  H       1  <O>11       0.0683
  27 H4        3.2103   -14.8229    -5.4176  H       1  <O>11       0.0832
  28 H5        3.3082   -16.1028    -3.3742  H       1  <O>11       0.0654
  29 H6        2.3336   -14.5780    -0.3878  H       1  <O>11       0.0624
  30 H7        2.3185   -15.8206     1.6977  H       1  <O>11       0.0618
  31 H8        1.3800   -18.0639     1.7755  H       1  <O>11       0.0618
  32 H9        0.4549   -19.0511    -0.2418  H       1  <O>11       0.0618
  33 H10       0.4477   -17.8144    -2.3252  H       1  <O>11       0.0624
  34 H11       1.7367   -12.2254    -4.2419  H       1  <O>11       0.0677
@<TRIPOS>BOND
     1     1     2    2
     2     2     3    1
     3     2     4    1
     4     4     5   ar
     5     5     6   ar
     6     6     7    1
     7     6     8   ar
     8     8     9   ar
     9     9    10    1
    10    10    11    1
    11    11    12   ar
    12    12    13   ar
    13    13    14   ar
    14    14    15   ar
    15    15    16    1
    16    16    17   ar
    17    17    18   ar
    18    18    19   ar
    19    19    20   ar
    20    20    21   ar
    21    16    21   ar
    22    15    22   ar
    23    11    22   ar
    24     9    23   ar
    25     4    23   ar
    26     3    24    1
    27     5    25    1
    28     8    26    1
    29    13    27    1
    30    14    28    1
    31    17    29    1
    32    18    30    1
    33    19    31    1
    34    20    32    1
    35    21    33    1
    36    23    34    1
@<TRIPOS>MOLECULE
mol61_1_27
 34 36 0 0 0
SMALL
USER_CHARGES
****
VDW energy = 8.84
@<TRIPOS>ATOM
   1 O1        3.3127    -9.0776    -5.5893  O.2     1  <O>11      -0.1300
   2 N1        2.8495    -9.8143    -4.4295  N.4     1  <O>11       0.0062
   3 O2        3.6348   -11.0240    -4.2799  O.2     1  <O>11      -0.3961
   4 C1        1.4620   -10.1610    -4.6040  C.ar    1  <O>11       0.1278
   5 C2        0.9655   -10.3693    -5.8924  C.ar    1  <O>11       0.0039
   6 C3       -0.3840   -10.6945    -6.0702  C.ar    1  <O>11       0.1290
   7 F1       -0.8744   -10.8963    -7.3345  F       1  <O>11      -0.2053
   8 C4       -1.2305   -10.8127    -4.9646  C.ar    1  <O>11       0.0161
   9 C5       -0.7173   -10.6063    -3.6797  C.ar    1  <O>11       0.1368
  10 O3       -1.5488   -10.7242    -2.6017  O.3     1  <O>11      -0.4235
  11 C6       -2.5740    -9.8127    -2.7102  C.ar    1  <O>11       0.3239
  12 N2       -3.1178    -9.2982    -1.5832  N.ar    1  <O>11      -0.2030
  13 C7       -4.1188    -8.4085    -1.7151  C.ar    1  <O>11       0.0350
  14 C8       -4.6147    -7.9992    -2.9260  C.ar    1  <O>11      -0.0173
  15 C9       -4.0139    -8.5646    -4.0213  C.ar    1  <O>11       0.0778
  16 C10      -4.4580    -8.2065    -5.3279  C.ar    1  <O>11       0.0006
  17 C11      -5.4286    -7.2055    -5.4973  C.ar    1  <O>11      -0.0526
  18 C12      -5.8730    -6.8619    -6.7791  C.ar    1  <O>11      -0.0611
  19 C13      -5.3518    -7.5125    -7.9017  C.ar    1  <O>11      -0.0617
  20 C14      -4.3819    -8.5059    -7.7326  C.ar    1  <O>11      -0.0611
  21 C15      -3.9288    -8.8512    -6.4583  C.ar    1  <O>11      -0.0526
  22 N3       -3.0096    -9.4588    -3.9415  N.ar    1  <O>11      -0.1946
  23 C16       0.6276   -10.2838    -3.4920  C.ar    1  <O>11       0.0110
  24 H1        4.5620   -10.9684    -4.1569  H       1  <O>11       0.3292
  25 H2        1.5904   -10.2837    -6.7092  H       1  <O>11       0.0669
  26 H3       -2.2263   -11.0503    -5.0950  H       1  <O>11       0.0683
  27 H4       -4.5358    -8.0127    -0.8582  H       1  <O>11       0.0832
  28 H5       -5.3837    -7.3158    -3.0073  H       1  <O>11       0.0654
  29 H6       -5.8159    -6.7211    -4.6724  H       1  <O>11       0.0624
  30 H7       -6.5872    -6.1263    -6.8961  H       1  <O>11       0.0618
  31 H8       -5.6802    -7.2616    -8.8474  H       1  <O>11       0.0618
  32 H9       -3.9970    -8.9889    -8.5593  H       1  <O>11       0.0618
  33 H10      -3.2059    -9.5792    -6.3467  H       1  <O>11       0.0624
  34 H11       1.0011   -10.1376    -2.5411  H       1  <O>11       0.0677
@<TRIPOS>BOND
     1     1     2    2
     2     2     3    1
     3     2     4    1
     4     4     5   ar
     5     5     6   ar
     6     6     7    1
     7     6     8   ar
     8     8     9   ar
     9     9    10    1
    10    10    11    1
    11    11    12   ar
    12    12    13   ar
    13    13    14   ar
    14    14    15   ar
    15    15    16    1
    16    16    17   ar
    17    17    18   ar
    18    18    19   ar
    19    19    20   ar
    20    20    21   ar
    21    16    21   ar
    22    15    22   ar
    23    11    22   ar
    24     9    23   ar
    25     4    23   ar
    26     3    24    1
    27     5    25    1
    28     8    26    1
    29    13    27    1
    30    14    28    1
    31    17    29    1
    32    18    30    1
    33    19    31    1
    34    20    32    1
    35    21    33    1
    36    23    34    1
@<TRIPOS>MOLECULE
mol61_1_28
 34 36 0 0 0
SMALL
USER_CHARGES
****
VDW energy = 10.37
@<TRIPOS>ATOM
   1 O1        3.3127    -9.0776    -5.5893  O.2     1  <O>11      -0.1300
   2 N1        2.8495    -9.8143    -4.4295  N.4     1  <O>11       0.0062
   3 O2        3.6348   -11.0240    -4.2799  O.2     1  <O>11      -0.3961
   4 C1        1.4620   -10.1610    -4.6040  C.ar    1  <O>11       0.1278
   5 C2        0.7715   -10.7699    -3.5541  C.ar    1  <O>11       0.0039
   6 C3       -0.5731   -11.1203    -3.7207  C.ar    1  <O>11       0.1290
   7 F1       -1.2522   -11.7211    -2.6923  F       1  <O>11      -0.2053
   8 C4       -1.2228   -10.8606    -4.9303  C.ar    1  <O>11       0.0161
   9 C5       -0.5193   -10.2452    -5.9712  C.ar    1  <O>11       0.1368
  10 O3       -1.1595    -9.9923    -7.1517  O.3     1  <O>11      -0.4235
  11 C6       -1.6068   -11.1750    -7.6946  C.ar    1  <O>11       0.3239
  12 N2       -1.6814   -11.2935    -9.0403  N.ar    1  <O>11      -0.2030
  13 C7       -2.1214   -12.4599    -9.5473  C.ar    1  <O>11       0.0350
  14 C8       -2.4975   -13.5285    -8.7751  C.ar    1  <O>11      -0.0173
  15 C9       -2.3949   -13.3324    -7.4218  C.ar    1  <O>11       0.0778
  16 C10      -2.7634   -14.3828    -6.5310  C.ar    1  <O>11       0.0006
  17 C11      -3.1271   -15.6431    -7.0328  C.ar    1  <O>11      -0.0526
  18 C12      -3.4999   -16.6708    -6.1590  C.ar    1  <O>11      -0.0611
  19 C13      -3.5113   -16.4501    -4.7784  C.ar    1  <O>11      -0.0617
  20 C14      -3.1445   -15.1962    -4.2790  C.ar    1  <O>11      -0.0611
  21 C15      -2.7659   -14.1671    -5.1428  C.ar    1  <O>11      -0.0526
  22 N3       -1.9606   -12.1847    -6.8662  N.ar    1  <O>11      -0.1946
  23 C16       0.8212    -9.8900    -5.8138  C.ar    1  <O>11       0.0110
  24 H1        4.5620   -10.9684    -4.1569  H       1  <O>11       0.3292
  25 H2        1.2502   -10.9605    -2.6599  H       1  <O>11       0.0669
  26 H3       -2.2137   -11.1207    -5.0548  H       1  <O>11       0.0683
  27 H4       -2.1790   -12.5551   -10.5733  H       1  <O>11       0.0832
  28 H5       -2.8331   -14.4154    -9.1823  H       1  <O>11       0.0654
  29 H6       -3.1194   -15.8122    -8.0509  H       1  <O>11       0.0624
  30 H7       -3.7672   -17.5941    -6.5347  H       1  <O>11       0.0618
  31 H8       -3.7882   -17.2064    -4.1330  H       1  <O>11       0.0618
  32 H9       -3.1538   -15.0300    -3.2606  H       1  <O>11       0.0618
  33 H10      -2.4882   -13.2490    -4.7621  H       1  <O>11       0.0624
  34 H11       1.3332    -9.4317    -6.5839  H       1  <O>11       0.0677
@<TRIPOS>BOND
     1     1     2    2
     2     2     3    1
     3     2     4    1
     4     4     5   ar
     5     5     6   ar
     6     6     7    1
     7     6     8   ar
     8     8     9   ar
     9     9    10    1
    10    10    11    1
    11    11    12   ar
    12    12    13   ar
    13    13    14   ar
    14    14    15   ar
    15    15    16    1
    16    16    17   ar
    17    17    18   ar
    18    18    19   ar
    19    19    20   ar
    20    20    21   ar
    21    16    21   ar
    22    15    22   ar
    23    11    22   ar
    24     9    23   ar
    25     4    23   ar
    26     3    24    1
    27     5    25    1
    28     8    26    1
    29    13    27    1
    30    14    28    1
    31    17    29    1
    32    18    30    1
    33    19    31    1
    34    20    32    1
    35    21    33    1
    36    23    34    1
@<TRIPOS>MOLECULE
mol61_1_29
 34 36 0 0 0
SMALL
USER_CHARGES
****
VDW energy = 14.95
@<TRIPOS>ATOM
   1 O1        3.3127    -9.0776    -5.5893  O.2     1  <O>11      -0.1300
   2 N1        2.8495    -9.8143    -4.4295  N.4     1  <O>11       0.0062
   3 O2        3.6348   -11.0240    -4.2799  O.2     1  <O>11      -0.3961
   4 C1        1.4620   -10.1610    -4.6040  C.ar    1  <O>11       0.1278
   5 C2        0.5399    -9.1590    -4.9133  C.ar    1  <O>11       0.0039
   6 C3       -0.8113    -9.4867    -5.0724  C.ar    1  <O>11       0.1290
   7 F1       -1.7189    -8.5040    -5.3730  F       1  <O>11      -0.2053
   8 C4       -1.2362   -10.8097    -4.9249  C.ar    1  <O>11       0.0161
   9 C5       -0.2999   -11.8034    -4.6201  C.ar    1  <O>11       0.1368
  10 O3       -0.7202   -13.0959    -4.4781  O.3     1  <O>11      -0.4235
  11 C6       -1.6410   -13.1702    -3.4581  C.ar    1  <O>11       0.3239
  12 N2       -1.7224   -14.3064    -2.7280  N.ar    1  <O>11      -0.2030
  13 C7       -2.6303   -14.3549    -1.7359  C.ar    1  <O>11       0.0350
  14 C8       -3.4739   -13.3186    -1.4287  C.ar    1  <O>11      -0.0173
  15 C9       -3.3325   -12.2023    -2.2124  C.ar    1  <O>11       0.0778
  16 C10      -4.1644   -11.0690    -1.9753  C.ar    1  <O>11       0.0006
  17 C11      -5.0473   -11.0537    -0.8832  C.ar    1  <O>11      -0.0526
  18 C12      -5.8723    -9.9460    -0.6570  C.ar    1  <O>11      -0.0611
  19 C13      -5.8219    -8.8447    -1.5170  C.ar    1  <O>11      -0.0617
  20 C14      -4.9391    -8.8586    -2.6017  C.ar    1  <O>11      -0.0611
  21 C15      -4.1087    -9.9568    -2.8317  C.ar    1  <O>11      -0.0526
  22 N3       -2.4396   -12.1050    -3.2163  N.ar    1  <O>11      -0.1946
  23 C16       1.0502   -11.4869    -4.4618  C.ar    1  <O>11       0.0110
  24 H1        4.5620   -10.9684    -4.1569  H       1  <O>11       0.3292
  25 H2        0.8532    -8.1820    -5.0240  H       1  <O>11       0.0669
  26 H3       -2.2328   -11.0518    -5.0398  H       1  <O>11       0.0683
  27 H4       -2.6952   -15.2192    -1.1757  H       1  <O>11       0.0832
  28 H5       -4.1645   -13.3746    -0.6640  H       1  <O>11       0.0654
  29 H6       -5.0880   -11.8632    -0.2444  H       1  <O>11       0.0624
  30 H7       -6.5195    -9.9420     0.1468  H       1  <O>11       0.0618
  31 H8       -6.4313    -8.0281    -1.3527  H       1  <O>11       0.0618
  32 H9       -4.9012    -8.0479    -3.2391  H       1  <O>11       0.0618
  33 H10      -3.4545    -9.9516    -3.6299  H       1  <O>11       0.0624
  34 H11       1.7367   -12.2254    -4.2419  H       1  <O>11       0.0677
@<TRIPOS>BOND
     1     1     2    2
     2     2     3    1
     3     2     4    1
     4     4     5   ar
     5     5     6   ar
     6     6     7    1
     7     6     8   ar
     8     8     9   ar
     9     9    10    1
    10    10    11    1
    11    11    12   ar
    12    12    13   ar
    13    13    14   ar
    14    14    15   ar
    15    15    16    1
    16    16    17   ar
    17    17    18   ar
    18    18    19   ar
    19    19    20   ar
    20    20    21   ar
    21    16    21   ar
    22    15    22   ar
    23    11    22   ar
    24     9    23   ar
    25     4    23   ar
    26     3    24    1
    27     5    25    1
    28     8    26    1
    29    13    27    1
    30    14    28    1
    31    17    29    1
    32    18    30    1
    33    19    31    1
    34    20    32    1
    35    21    33    1
    36    23    34    1
@<TRIPOS>MOLECULE
mol61_1_30
 34 36 0 0 0
SMALL
USER_CHARGES
****
VDW energy = 19.86
@<TRIPOS>ATOM
   1 O1        3.3127    -9.0776    -5.5893  O.2     1  <O>11      -0.1300
   2 N1        2.8495    -9.8143    -4.4295  N.4     1  <O>11       0.0062
   3 O2        3.6348   -11.0240    -4.2799  O.2     1  <O>11      -0.3961
   4 C1        1.4620   -10.1610    -4.6040  C.ar    1  <O>11       0.1278
   5 C2        0.5399    -9.1590    -4.9133  C.ar    1  <O>11       0.0039
   6 C3       -0.8113    -9.4867    -5.0724  C.ar    1  <O>11       0.1290
   7 F1       -1.7189    -8.5040    -5.3730  F       1  <O>11      -0.2053
   8 C4       -1.2362   -10.8097    -4.9249  C.ar    1  <O>11       0.0161
   9 C5       -0.2999   -11.8034    -4.6201  C.ar    1  <O>11       0.1368
  10 O3       -0.7202   -13.0959    -4.4781  O.3     1  <O>11      -0.4235
  11 C6        0.3570   -13.8997    -4.1828  C.ar    1  <O>11       0.3239
  12 N2        1.3829   -13.9726    -5.0618  N.ar    1  <O>11      -0.2030
  13 C7        2.4250   -14.7651    -4.7505  C.ar    1  <O>11       0.0350
  14 C8        2.5004   -15.4998    -3.5954  C.ar    1  <O>11      -0.0173
  15 C9        1.4237   -15.3747    -2.7557  C.ar    1  <O>11       0.0778
  16 C10       1.4036   -16.0994    -1.5281  C.ar    1  <O>11       0.0006
  17 C11       2.5210   -16.8518    -1.1306  C.ar    1  <O>11      -0.0526
  18 C12       2.4972   -17.5725     0.0688  C.ar    1  <O>11      -0.0611
  19 C13       1.3599   -17.5471     0.8817  C.ar    1  <O>11      -0.0617
  20 C14       0.2492   -16.7939     0.4877  C.ar    1  <O>11      -0.0611
  21 C15       0.2661   -16.0676    -0.7042  C.ar    1  <O>11      -0.0526
  22 N3        0.3578   -14.5952    -3.0220  N.ar    1  <O>11      -0.1946
  23 C16       1.0502   -11.4869    -4.4618  C.ar    1  <O>11       0.0110
  24 H1        4.5620   -10.9684    -4.1569  H       1  <O>11       0.3292
  25 H2        0.8532    -8.1820    -5.0240  H       1  <O>11       0.0669
  26 H3       -2.2328   -11.0518    -5.0398  H       1  <O>11       0.0683
  27 H4        3.2103   -14.8229    -5.4176  H       1  <O>11       0.0832
  28 H5        3.3082   -16.1028    -3.3742  H       1  <O>11       0.0654
  29 H6        3.3637   -16.8733    -1.7260  H       1  <O>11       0.0624
  30 H7        3.3214   -18.1241     0.3541  H       1  <O>11       0.0618
  31 H8        1.3401   -18.0799     1.7654  H       1  <O>11       0.0618
  32 H9       -0.5922   -16.7749     1.0848  H       1  <O>11       0.0618
  33 H10      -0.5559   -15.5079    -0.9799  H       1  <O>11       0.0624
  34 H11       1.7367   -12.2254    -4.2419  H       1  <O>11       0.0677
@<TRIPOS>BOND
     1     1     2    2
     2     2     3    1
     3     2     4    1
     4     4     5   ar
     5     5     6   ar
     6     6     7    1
     7     6     8   ar
     8     8     9   ar
     9     9    10    1
    10    10    11    1
    11    11    12   ar
    12    12    13   ar
    13    13    14   ar
    14    14    15   ar
    15    15    16    1
    16    16    17   ar
    17    17    18   ar
    18    18    19   ar
    19    19    20   ar
    20    20    21   ar
    21    16    21   ar
    22    15    22   ar
    23    11    22   ar
    24     9    23   ar
    25     4    23   ar
    26     3    24    1
    27     5    25    1
    28     8    26    1
    29    13    27    1
    30    14    28    1
    31    17    29    1
    32    18    30    1
    33    19    31    1
    34    20    32    1
    35    21    33    1
    36    23    34    1
