@<TRIPOS>MOLECULE
mol63_1_1
 43 45 0 0 0
SMALL
USER_CHARGES
****
VDW energy = -206.19
@<TRIPOS>ATOM
   1 C1        2.7323    -8.7181    -6.6515  C.3     1  <O>11       0.0125
   2 C2        3.4528    -9.1250    -5.4100  C.2     1  <O>11       0.2141
   3 O1        4.6297    -8.8309    -5.2623  O.2     1  <O>11      -0.2758
   4 N1        2.7960    -9.8280    -4.4360  N.am    1  <O>11      -0.2857
   5 C3        3.4640   -10.2050    -3.2840  C.ar    1  <O>11       0.0334
   6 C4        3.4657    -9.3470    -2.1822  C.ar    1  <O>11      -0.0399
   7 C5        4.1495    -9.7165    -1.0180  C.ar    1  <O>11      -0.0508
   8 C6        4.8226   -10.9399    -0.9557  C.ar    1  <O>11       0.0006
   9 C7        5.5227   -11.3218     0.2261  C.ar    1  <O>11       0.0760
  10 C8        5.5317   -10.4543     1.3389  C.ar    1  <O>11      -0.0174
  11 C9        6.2282   -10.8983     2.4346  C.ar    1  <O>11       0.0332
  12 N2        6.8723   -12.0803     2.4796  N.ar    1  <O>11      -0.2226
  13 C10       6.8165   -12.8494     1.3802  C.ar    1  <O>11       0.2200
  14 N3        7.4754   -14.1310     1.3364  N.pl3   1  <O>11      -0.2836
  15 C11       7.3462   -14.9737     0.1616  C.ar    1  <O>11       0.0343
  16 C12       6.2995   -15.9076     0.0702  C.ar    1  <O>11      -0.0404
  17 C13       6.1827   -16.7260    -1.0573  C.ar    1  <O>11      -0.0593
  18 C14       7.1033   -16.6213    -2.1032  C.ar    1  <O>11      -0.0495
  19 C15       8.1417   -15.6858    -2.0145  C.ar    1  <O>11       0.0382
  20 C16       9.0924   -15.5797    -3.0998  C.2     1  <O>11       0.2416
  21 N4        8.6627   -15.6718    -4.3971  N.am    1  <O>11      -0.3253
  22 O2       10.2772   -15.4075    -2.8589  O.2     1  <O>11      -0.2704
  23 C17       8.2655   -14.8638    -0.8941  C.ar    1  <O>11      -0.0284
  24 N5        6.1593   -12.4974     0.2616  N.ar    1  <O>11      -0.2142
  25 C18       4.8063   -11.7922    -2.0656  C.ar    1  <O>11      -0.0508
  26 C19       4.1258   -11.4334    -3.2305  C.ar    1  <O>11      -0.0399
  27 H1        1.7006    -9.0664    -6.6035  H       1  <O>11       0.0323
  28 H2        3.2247    -9.1590    -7.5183  H       1  <O>11       0.0323
  29 H3        2.7453    -7.6318    -6.7397  H       1  <O>11       0.0323
  30 H4        1.8130   -10.0730    -4.5590  H       1  <O>11       0.1548
  31 H5        8.0323   -14.4450     2.1312  H       1  <O>11       0.1550
  32 H6        7.6728   -15.8157    -4.5977  H       1  <O>11       0.1453
  33 H7        9.3334   -15.5986    -5.1625  H       1  <O>11       0.1453
  34 H8        2.9655    -8.4453    -2.2260  H       1  <O>11       0.0636
  35 H9        4.1567    -9.0834    -0.2031  H       1  <O>11       0.0625
  36 H10       5.0456    -9.5440     1.3294  H       1  <O>11       0.0654
  37 H11       6.2603   -10.2934     3.2701  H       1  <O>11       0.0831
  38 H12       5.6149   -15.9894     0.8380  H       1  <O>11       0.0636
  39 H13       5.4129   -17.4107    -1.1175  H       1  <O>11       0.0618
  40 H14       7.0188   -17.2280    -2.9337  H       1  <O>11       0.0625
  41 H15       9.0324   -14.1753    -0.8412  H       1  <O>11       0.0644
  42 H16       5.3029   -12.6958    -2.0225  H       1  <O>11       0.0625
  43 H17       4.1120   -12.0692    -4.0433  H       1  <O>11       0.0636
@<TRIPOS>BOND
     1     1     2    1
     2     2     3    2
     3     2     4   am
     4     4     5    1
     5     5     6   ar
     6     6     7   ar
     7     7     8   ar
     8     8     9    1
     9     9    10   ar
    10    10    11   ar
    11    11    12   ar
    12    12    13   ar
    13    13    14    1
    14    14    15    1
    15    15    16   ar
    16    16    17   ar
    17    17    18   ar
    18    18    19   ar
    19    19    20    1
    20    20    21   am
    21    20    22    2
    22    19    23   ar
    23    15    23   ar
    24    13    24   ar
    25     9    24   ar
    26     8    25   ar
    27    25    26   ar
    28     5    26   ar
    29     1    27    1
    30     1    28    1
    31     1    29    1
    32     4    30    1
    33    14    31    1
    34    21    32    1
    35    21    33    1
    36     6    34    1
    37     7    35    1
    38    10    36    1
    39    11    37    1
    40    16    38    1
    41    17    39    1
    42    18    40    1
    43    23    41    1
    44    25    42    1
    45    26    43    1
@<TRIPOS>MOLECULE
mol63_1_2
 43 45 0 0 0
SMALL
USER_CHARGES
****
VDW energy = -204.38
@<TRIPOS>ATOM
   1 C1        2.7323    -8.7181    -6.6515  C.3     1  <O>11       0.0125
   2 C2        3.4528    -9.1250    -5.4100  C.2     1  <O>11       0.2141
   3 O1        4.6297    -8.8309    -5.2623  O.2     1  <O>11      -0.2758
   4 N1        2.7960    -9.8280    -4.4360  N.am    1  <O>11      -0.2857
   5 C3        1.4632   -10.1619    -4.6021  C.ar    1  <O>11       0.0334
   6 C4        1.1322   -11.3713    -5.2168  C.ar    1  <O>11      -0.0399
   7 C5       -0.2137   -11.7098    -5.3990  C.ar    1  <O>11      -0.0508
   8 C6       -1.2219   -10.8452    -4.9633  C.ar    1  <O>11       0.0006
   9 C7       -2.5947   -11.1827    -5.1474  C.ar    1  <O>11       0.0760
  10 C8       -2.9325   -12.4011    -5.7739  C.ar    1  <O>11      -0.0174
  11 C9       -4.2752   -12.6480    -5.9111  C.ar    1  <O>11       0.0332
  12 N2       -5.2354   -11.8047    -5.4861  N.ar    1  <O>11      -0.2226
  13 C10      -4.8332   -10.6657    -4.8995  C.ar    1  <O>11       0.2200
  14 N3       -5.7899    -9.7031    -4.4129  N.pl3   1  <O>11      -0.2836
  15 C11      -6.6642   -10.0448    -3.3056  C.ar    1  <O>11       0.0343
  16 C12      -6.1307   -10.2758    -2.0257  C.ar    1  <O>11      -0.0404
  17 C13      -6.9730   -10.6152    -0.9627  C.ar    1  <O>11      -0.0593
  18 C14      -8.3515   -10.7256    -1.1626  C.ar    1  <O>11      -0.0495
  19 C15      -8.8830   -10.4885    -2.4364  C.ar    1  <O>11       0.0382
  20 C16     -10.3108   -10.6029    -2.6393  C.2     1  <O>11       0.2416
  21 N4      -10.8558   -11.8056    -3.0033  N.am    1  <O>11      -0.3253
  22 O2      -11.0294    -9.6275    -2.4851  O.2     1  <O>11      -0.2704
  23 C17      -8.0506   -10.1477    -3.5029  C.ar    1  <O>11      -0.0284
  24 N5       -3.5414   -10.3391    -4.7220  N.ar    1  <O>11      -0.2142
  25 C18      -0.8747    -9.6397    -4.3430  C.ar    1  <O>11      -0.0508
  26 C19       0.4647    -9.2940    -4.1552  C.ar    1  <O>11      -0.0399
  27 H1        1.7006    -9.0664    -6.6035  H       1  <O>11       0.0323
  28 H2        3.2247    -9.1590    -7.5183  H       1  <O>11       0.0323
  29 H3        2.7453    -7.6318    -6.7397  H       1  <O>11       0.0323
  30 H4        3.2899   -10.1071    -3.5877  H       1  <O>11       0.1548
  31 H5       -5.8518    -8.7821    -4.8468  H       1  <O>11       0.1550
  32 H6      -10.2550   -12.6200    -3.1319  H       1  <O>11       0.1453
  33 H7      -11.8626   -11.8859    -3.1479  H       1  <O>11       0.1453
  34 H8        1.8760   -12.0121    -5.5351  H       1  <O>11       0.0636
  35 H9       -0.4625   -12.6007    -5.8566  H       1  <O>11       0.0625
  36 H10      -2.2154   -13.0640    -6.1076  H       1  <O>11       0.0654
  37 H11      -4.5652   -13.5284    -6.3649  H       1  <O>11       0.0831
  38 H12      -5.1138   -10.1945    -1.8703  H       1  <O>11       0.0636
  39 H13      -6.5747   -10.7850    -0.0259  H       1  <O>11       0.0618
  40 H14      -8.9725   -10.9796    -0.3785  H       1  <O>11       0.0625
  41 H15      -8.4537    -9.9715    -4.4365  H       1  <O>11       0.0644
  42 H16      -1.6170    -8.9993    -4.0208  H       1  <O>11       0.0625
  43 H17       0.7142    -8.4067    -3.6910  H       1  <O>11       0.0636
@<TRIPOS>BOND
     1     1     2    1
     2     2     3    2
     3     2     4   am
     4     4     5    1
     5     5     6   ar
     6     6     7   ar
     7     7     8   ar
     8     8     9    1
     9     9    10   ar
    10    10    11   ar
    11    11    12   ar
    12    12    13   ar
    13    13    14    1
    14    14    15    1
    15    15    16   ar
    16    16    17   ar
    17    17    18   ar
    18    18    19   ar
    19    19    20    1
    20    20    21   am
    21    20    22    2
    22    19    23   ar
    23    15    23   ar
    24    13    24   ar
    25     9    24   ar
    26     8    25   ar
    27    25    26   ar
    28     5    26   ar
    29     1    27    1
    30     1    28    1
    31     1    29    1
    32     4    30    1
    33    14    31    1
    34    21    32    1
    35    21    33    1
    36     6    34    1
    37     7    35    1
    38    10    36    1
    39    11    37    1
    40    16    38    1
    41    17    39    1
    42    18    40    1
    43    23    41    1
    44    25    42    1
    45    26    43    1
@<TRIPOS>MOLECULE
mol63_1_3
 43 45 0 0 0
SMALL
USER_CHARGES
****
VDW energy = -204.16
@<TRIPOS>ATOM
   1 C1        2.7323    -8.7181    -6.6515  C.3     1  <O>11       0.0125
   2 C2        3.4528    -9.1250    -5.4100  C.2     1  <O>11       0.2141
   3 O1        4.6297    -8.8309    -5.2623  O.2     1  <O>11      -0.2758
   4 N1        2.7960    -9.8280    -4.4360  N.am    1  <O>11      -0.2857
   5 C3        3.4640   -10.2050    -3.2840  C.ar    1  <O>11       0.0334
   6 C4        4.5859   -11.0307    -3.3827  C.ar    1  <O>11      -0.0399
   7 C5        5.2592   -11.4258    -2.2209  C.ar    1  <O>11      -0.0508
   8 C6        4.8151   -10.9923    -0.9684  C.ar    1  <O>11       0.0006
   9 C7        5.4948   -11.3924     0.2192  C.ar    1  <O>11       0.0760
  10 C8        6.6249   -12.2318     0.1233  C.ar    1  <O>11      -0.0174
  11 C9        7.2192   -12.5686     1.3133  C.ar    1  <O>11       0.0332
  12 N2        6.7794   -12.1429     2.5130  N.ar    1  <O>11      -0.2226
  13 C10       5.6981   -11.3466     2.5205  C.ar    1  <O>11       0.2200
  14 N3        5.1562   -10.8420     3.7575  N.pl3   1  <O>11      -0.2836
  15 C11       4.0272    -9.9299     3.7368  C.ar    1  <O>11       0.0343
  16 C12       4.2381    -8.5414     3.6762  C.ar    1  <O>11      -0.0404
  17 C13       3.1498    -7.6638     3.6670  C.ar    1  <O>11      -0.0593
  18 C14       1.8441    -8.1588     3.7158  C.ar    1  <O>11      -0.0495
  19 C15       1.6347    -9.5425     3.7691  C.ar    1  <O>11       0.0382
  20 C16       0.2813   -10.0513     3.8186  C.2     1  <O>11       0.2416
  21 N4       -0.6983    -9.4643     3.0624  N.am    1  <O>11      -0.3253
  22 O2        0.0131   -11.0042     4.5339  O.2     1  <O>11      -0.2704
  23 C17       2.7142   -10.4262     3.7771  C.ar    1  <O>11      -0.0284
  24 N5        5.0508   -10.9646     1.4060  N.ar    1  <O>11      -0.2142
  25 C18       3.6932   -10.1597    -0.8859  C.ar    1  <O>11      -0.0508
  26 C19       3.0161    -9.7588    -2.0390  C.ar    1  <O>11      -0.0399
  27 H1        1.7006    -9.0664    -6.6035  H       1  <O>11       0.0323
  28 H2        3.2247    -9.1590    -7.5183  H       1  <O>11       0.0323
  29 H3        2.7453    -7.6318    -6.7397  H       1  <O>11       0.0323
  30 H4        1.8130   -10.0730    -4.5590  H       1  <O>11       0.1548
  31 H5        5.5664   -11.1265     4.6471  H       1  <O>11       0.1550
  32 H6       -0.4737    -8.6683     2.4651  H       1  <O>11       0.1453
  33 H7       -1.6532    -9.8221     3.0986  H       1  <O>11       0.1453
  34 H8        4.9169   -11.3478    -4.3074  H       1  <O>11       0.0636
  35 H9        6.0862   -12.0393    -2.2892  H       1  <O>11       0.0625
  36 H10       6.9817   -12.5708    -0.7838  H       1  <O>11       0.0654
  37 H11       8.0489   -13.1818     1.2876  H       1  <O>11       0.0831
  38 H12       5.1996    -8.1686     3.6382  H       1  <O>11       0.0636
  39 H13       3.3116    -6.6455     3.6240  H       1  <O>11       0.0618
  40 H14       1.0412    -7.5105     3.7125  H       1  <O>11       0.0625
  41 H15       2.5479   -11.4440     3.8127  H       1  <O>11       0.0644
  42 H16       3.3628    -9.8386     0.0376  H       1  <O>11       0.0625
  43 H17       2.1934    -9.1393    -1.9719  H       1  <O>11       0.0636
@<TRIPOS>BOND
     1     1     2    1
     2     2     3    2
     3     2     4   am
     4     4     5    1
     5     5     6   ar
     6     6     7   ar
     7     7     8   ar
     8     8     9    1
     9     9    10   ar
    10    10    11   ar
    11    11    12   ar
    12    12    13   ar
    13    13    14    1
    14    14    15    1
    15    15    16   ar
    16    16    17   ar
    17    17    18   ar
    18    18    19   ar
    19    19    20    1
    20    20    21   am
    21    20    22    2
    22    19    23   ar
    23    15    23   ar
    24    13    24   ar
    25     9    24   ar
    26     8    25   ar
    27    25    26   ar
    28     5    26   ar
    29     1    27    1
    30     1    28    1
    31     1    29    1
    32     4    30    1
    33    14    31    1
    34    21    32    1
    35    21    33    1
    36     6    34    1
    37     7    35    1
    38    10    36    1
    39    11    37    1
    40    16    38    1
    41    17    39    1
    42    18    40    1
    43    23    41    1
    44    25    42    1
    45    26    43    1
@<TRIPOS>MOLECULE
mol63_1_4
 43 45 0 0 0
SMALL
USER_CHARGES
****
VDW energy = -203.77
@<TRIPOS>ATOM
   1 C1        2.7323    -8.7181    -6.6515  C.3     1  <O>11       0.0125
   2 C2        3.4528    -9.1250    -5.4100  C.2     1  <O>11       0.2141
   3 O1        4.6297    -8.8309    -5.2623  O.2     1  <O>11      -0.2758
   4 N1        2.7960    -9.8280    -4.4360  N.am    1  <O>11      -0.2857
   5 C3        3.4642   -10.2055    -3.2843  C.ar    1  <O>11       0.0334
   6 C4        3.4665    -9.3478    -2.1822  C.ar    1  <O>11      -0.0399
   7 C5        4.1505    -9.7178    -1.0184  C.ar    1  <O>11      -0.0508
   8 C6        4.8231   -10.9415    -0.9565  C.ar    1  <O>11       0.0006
   9 C7        5.5234   -11.3240     0.2250  C.ar    1  <O>11       0.0760
  10 C8        5.5331   -10.4568     1.3380  C.ar    1  <O>11      -0.0174
  11 C9        6.2297   -10.9014     2.4334  C.ar    1  <O>11       0.0332
  12 N2        6.8733   -12.0836     2.4779  N.ar    1  <O>11      -0.2226
  13 C10       6.8169   -12.8524     1.3783  C.ar    1  <O>11       0.2200
  14 N3        7.4753   -14.1342     1.3341  N.pl3   1  <O>11      -0.2836
  15 C11       7.0229   -15.2126     2.1942  C.ar    1  <O>11       0.0343
  16 C12       7.5900   -16.4940     2.0830  C.ar    1  <O>11      -0.0404
  17 C13       7.1457   -17.5341     2.9048  C.ar    1  <O>11      -0.0593
  18 C14       6.1366   -17.3086     3.8446  C.ar    1  <O>11      -0.0495
  19 C15       5.5771   -16.0299     3.9596  C.ar    1  <O>11       0.0382
  20 C16       4.5330   -15.8002     4.9344  C.2     1  <O>11       0.2416
  21 N4        3.2204   -15.9770     4.5854  N.am    1  <O>11      -0.3253
  22 O2        4.8225   -15.4494     6.0678  O.2     1  <O>11      -0.2704
  23 C17       6.0149   -14.9854     3.1450  C.ar    1  <O>11      -0.0284
  24 N5        6.1596   -12.4999     0.2600  N.ar    1  <O>11      -0.2142
  25 C18       4.8062   -11.7935    -2.0667  C.ar    1  <O>11      -0.0508
  26 C19       4.1255   -11.4342    -3.2313  C.ar    1  <O>11      -0.0399
  27 H1        1.7006    -9.0664    -6.6035  H       1  <O>11       0.0323
  28 H2        3.2247    -9.1590    -7.5183  H       1  <O>11       0.0323
  29 H3        2.7453    -7.6318    -6.7397  H       1  <O>11       0.0323
  30 H4        1.8129   -10.0726    -4.5588  H       1  <O>11       0.1548
  31 H5        8.2587   -14.2830     0.6981  H       1  <O>11       0.1550
  32 H6        2.9792   -16.2700     3.6384  H       1  <O>11       0.1453
  33 H7        2.4840   -15.8134     5.2724  H       1  <O>11       0.1453
  34 H8        2.9666    -8.4459    -2.2257  H       1  <O>11       0.0636
  35 H9        4.1582    -9.0850    -0.2033  H       1  <O>11       0.0625
  36 H10       5.0473    -9.5463     1.3288  H       1  <O>11       0.0654
  37 H11       6.2622   -10.2966     3.2690  H       1  <O>11       0.0831
  38 H12       8.3368   -16.6675     1.3923  H       1  <O>11       0.0636
  39 H13       7.5651   -18.4730     2.8169  H       1  <O>11       0.0618
  40 H14       5.8065   -18.0775     4.4486  H       1  <O>11       0.0625
  41 H15       5.5980   -14.0462     3.2411  H       1  <O>11       0.0644
  42 H16       5.3025   -12.6974    -2.0239  H       1  <O>11       0.0625
  43 H17       4.1112   -12.0698    -4.0442  H       1  <O>11       0.0636
@<TRIPOS>BOND
     1     1     2    1
     2     2     3    2
     3     2     4   am
     4     4     5    1
     5     5     6   ar
     6     6     7   ar
     7     7     8   ar
     8     8     9    1
     9     9    10   ar
    10    10    11   ar
    11    11    12   ar
    12    12    13   ar
    13    13    14    1
    14    14    15    1
    15    15    16   ar
    16    16    17   ar
    17    17    18   ar
    18    18    19   ar
    19    19    20    1
    20    20    21   am
    21    20    22    2
    22    19    23   ar
    23    15    23   ar
    24    13    24   ar
    25     9    24   ar
    26     8    25   ar
    27    25    26   ar
    28     5    26   ar
    29     1    27    1
    30     1    28    1
    31     1    29    1
    32     4    30    1
    33    14    31    1
    34    21    32    1
    35    21    33    1
    36     6    34    1
    37     7    35    1
    38    10    36    1
    39    11    37    1
    40    16    38    1
    41    17    39    1
    42    18    40    1
    43    23    41    1
    44    25    42    1
    45    26    43    1
@<TRIPOS>MOLECULE
mol63_1_5
 43 45 0 0 0
SMALL
USER_CHARGES
****
VDW energy = -203.50
@<TRIPOS>ATOM
   1 C1        2.7323    -8.7181    -6.6515  C.3     1  <O>11       0.0125
   2 C2        3.4528    -9.1250    -5.4100  C.2     1  <O>11       0.2141
   3 O1        4.6297    -8.8309    -5.2623  O.2     1  <O>11      -0.2758
   4 N1        2.7960    -9.8280    -4.4360  N.am    1  <O>11      -0.2857
   5 C3        3.4642   -10.2055    -3.2843  C.ar    1  <O>11       0.0334
   6 C4        3.4665    -9.3478    -2.1822  C.ar    1  <O>11      -0.0399
   7 C5        4.1505    -9.7178    -1.0184  C.ar    1  <O>11      -0.0508
   8 C6        4.8231   -10.9415    -0.9565  C.ar    1  <O>11       0.0006
   9 C7        5.5234   -11.3240     0.2250  C.ar    1  <O>11       0.0760
  10 C8        5.5331   -10.4568     1.3380  C.ar    1  <O>11      -0.0174
  11 C9        6.2297   -10.9014     2.4334  C.ar    1  <O>11       0.0332
  12 N2        6.8733   -12.0836     2.4779  N.ar    1  <O>11      -0.2226
  13 C10       6.8169   -12.8524     1.3783  C.ar    1  <O>11       0.2200
  14 N3        7.4753   -14.1342     1.3341  N.pl3   1  <O>11      -0.2836
  15 C11       8.9238   -14.2087     1.3949  C.ar    1  <O>11       0.0343
  16 C12       9.6061   -13.8127     2.5584  C.ar    1  <O>11      -0.0404
  17 C13      11.0018   -13.8750     2.6116  C.ar    1  <O>11      -0.0593
  18 C14      11.7298   -14.3330     1.5104  C.ar    1  <O>11      -0.0495
  19 C15      11.0489   -14.7340     0.3542  C.ar    1  <O>11       0.0382
  20 C16      11.8061   -15.2085    -0.7835  C.2     1  <O>11       0.2416
  21 N4       12.9803   -14.5933    -1.1284  N.am    1  <O>11      -0.3253
  22 O2       11.3986   -16.1575    -1.4353  O.2     1  <O>11      -0.2704
  23 C17       9.6563   -14.6769     0.2922  C.ar    1  <O>11      -0.0284
  24 N5        6.1596   -12.4999     0.2600  N.ar    1  <O>11      -0.2142
  25 C18       4.8062   -11.7935    -2.0667  C.ar    1  <O>11      -0.0508
  26 C19       4.1255   -11.4342    -3.2313  C.ar    1  <O>11      -0.0399
  27 H1        1.7006    -9.0664    -6.6035  H       1  <O>11       0.0323
  28 H2        3.2247    -9.1590    -7.5183  H       1  <O>11       0.0323
  29 H3        2.7453    -7.6318    -6.7397  H       1  <O>11       0.0323
  30 H4        1.8129   -10.0726    -4.5588  H       1  <O>11       0.1548
  31 H5        6.9229   -14.9885     1.2602  H       1  <O>11       0.1550
  32 H6       13.3202   -13.8005    -0.5836  H       1  <O>11       0.1453
  33 H7       13.5135   -14.9269    -1.9318  H       1  <O>11       0.1453
  34 H8        2.9666    -8.4459    -2.2257  H       1  <O>11       0.0636
  35 H9        4.1582    -9.0850    -0.2033  H       1  <O>11       0.0625
  36 H10       5.0473    -9.5463     1.3288  H       1  <O>11       0.0654
  37 H11       6.2622   -10.2966     3.2690  H       1  <O>11       0.0831
  38 H12       9.0749   -13.4749     3.3761  H       1  <O>11       0.0636
  39 H13      11.4967   -13.5813     3.4682  H       1  <O>11       0.0618
  40 H14      12.7602   -14.3755     1.5489  H       1  <O>11       0.0625
  41 H15       9.1649   -14.9785    -0.5636  H       1  <O>11       0.0644
  42 H16       5.3025   -12.6974    -2.0239  H       1  <O>11       0.0625
  43 H17       4.1112   -12.0698    -4.0442  H       1  <O>11       0.0636
@<TRIPOS>BOND
     1     1     2    1
     2     2     3    2
     3     2     4   am
     4     4     5    1
     5     5     6   ar
     6     6     7   ar
     7     7     8   ar
     8     8     9    1
     9     9    10   ar
    10    10    11   ar
    11    11    12   ar
    12    12    13   ar
    13    13    14    1
    14    14    15    1
    15    15    16   ar
    16    16    17   ar
    17    17    18   ar
    18    18    19   ar
    19    19    20    1
    20    20    21   am
    21    20    22    2
    22    19    23   ar
    23    15    23   ar
    24    13    24   ar
    25     9    24   ar
    26     8    25   ar
    27    25    26   ar
    28     5    26   ar
    29     1    27    1
    30     1    28    1
    31     1    29    1
    32     4    30    1
    33    14    31    1
    34    21    32    1
    35    21    33    1
    36     6    34    1
    37     7    35    1
    38    10    36    1
    39    11    37    1
    40    16    38    1
    41    17    39    1
    42    18    40    1
    43    23    41    1
    44    25    42    1
    45    26    43    1
@<TRIPOS>MOLECULE
mol63_1_6
 43 45 0 0 0
SMALL
USER_CHARGES
****
VDW energy = -202.73
@<TRIPOS>ATOM
   1 C1        2.7323    -8.7181    -6.6515  C.3     1  <O>11       0.0125
   2 C2        3.4528    -9.1250    -5.4100  C.2     1  <O>11       0.2141
   3 O1        4.6297    -8.8309    -5.2623  O.2     1  <O>11      -0.2758
   4 N1        2.7960    -9.8280    -4.4360  N.am    1  <O>11      -0.2857
   5 C3        3.4640   -10.2050    -3.2840  C.ar    1  <O>11       0.0334
   6 C4        3.4657    -9.3470    -2.1822  C.ar    1  <O>11      -0.0399
   7 C5        4.1495    -9.7165    -1.0180  C.ar    1  <O>11      -0.0508
   8 C6        4.8226   -10.9399    -0.9557  C.ar    1  <O>11       0.0006
   9 C7        5.5227   -11.3218     0.2261  C.ar    1  <O>11       0.0760
  10 C8        5.5317   -10.4543     1.3389  C.ar    1  <O>11      -0.0174
  11 C9        6.2282   -10.8983     2.4346  C.ar    1  <O>11       0.0332
  12 N2        6.8723   -12.0803     2.4796  N.ar    1  <O>11      -0.2226
  13 C10       6.8165   -12.8494     1.3802  C.ar    1  <O>11       0.2200
  14 N3        7.4754   -14.1310     1.3364  N.pl3   1  <O>11      -0.2836
  15 C11       7.3462   -14.9737     0.1616  C.ar    1  <O>11       0.0343
  16 C12       6.2995   -15.9076     0.0702  C.ar    1  <O>11      -0.0404
  17 C13       6.1827   -16.7260    -1.0573  C.ar    1  <O>11      -0.0593
  18 C14       7.1033   -16.6213    -2.1032  C.ar    1  <O>11      -0.0495
  19 C15       8.1417   -15.6858    -2.0145  C.ar    1  <O>11       0.0382
  20 C16       9.0924   -15.5797    -3.0998  C.2     1  <O>11       0.2416
  21 N4        9.9997   -14.5537    -3.1167  N.am    1  <O>11      -0.3253
  22 O2        9.0861   -16.4053    -3.9998  O.2     1  <O>11      -0.2704
  23 C17       8.2655   -14.8638    -0.8941  C.ar    1  <O>11      -0.0284
  24 N5        6.1593   -12.4974     0.2616  N.ar    1  <O>11      -0.2142
  25 C18       4.8063   -11.7922    -2.0656  C.ar    1  <O>11      -0.0508
  26 C19       4.1258   -11.4334    -3.2305  C.ar    1  <O>11      -0.0399
  27 H1        1.7006    -9.0664    -6.6035  H       1  <O>11       0.0323
  28 H2        3.2247    -9.1590    -7.5183  H       1  <O>11       0.0323
  29 H3        2.7453    -7.6318    -6.7397  H       1  <O>11       0.0323
  30 H4        1.8130   -10.0730    -4.5590  H       1  <O>11       0.1548
  31 H5        8.0323   -14.4450     2.1312  H       1  <O>11       0.1550
  32 H6       10.0044   -13.8644    -2.3647  H       1  <O>11       0.1453
  33 H7       10.6691   -14.4780    -3.8830  H       1  <O>11       0.1453
  34 H8        2.9655    -8.4453    -2.2260  H       1  <O>11       0.0636
  35 H9        4.1567    -9.0834    -0.2031  H       1  <O>11       0.0625
  36 H10       5.0456    -9.5440     1.3294  H       1  <O>11       0.0654
  37 H11       6.2603   -10.2934     3.2701  H       1  <O>11       0.0831
  38 H12       5.6149   -15.9894     0.8380  H       1  <O>11       0.0636
  39 H13       5.4129   -17.4107    -1.1175  H       1  <O>11       0.0618
  40 H14       7.0188   -17.2280    -2.9337  H       1  <O>11       0.0625
  41 H15       9.0324   -14.1753    -0.8412  H       1  <O>11       0.0644
  42 H16       5.3029   -12.6958    -2.0225  H       1  <O>11       0.0625
  43 H17       4.1120   -12.0692    -4.0433  H       1  <O>11       0.0636
@<TRIPOS>BOND
     1     1     2    1
     2     2     3    2
     3     2     4   am
     4     4     5    1
     5     5     6   ar
     6     6     7   ar
     7     7     8   ar
     8     8     9    1
     9     9    10   ar
    10    10    11   ar
    11    11    12   ar
    12    12    13   ar
    13    13    14    1
    14    14    15    1
    15    15    16   ar
    16    16    17   ar
    17    17    18   ar
    18    18    19   ar
    19    19    20    1
    20    20    21   am
    21    20    22    2
    22    19    23   ar
    23    15    23   ar
    24    13    24   ar
    25     9    24   ar
    26     8    25   ar
    27    25    26   ar
    28     5    26   ar
    29     1    27    1
    30     1    28    1
    31     1    29    1
    32     4    30    1
    33    14    31    1
    34    21    32    1
    35    21    33    1
    36     6    34    1
    37     7    35    1
    38    10    36    1
    39    11    37    1
    40    16    38    1
    41    17    39    1
    42    18    40    1
    43    23    41    1
    44    25    42    1
    45    26    43    1
@<TRIPOS>MOLECULE
mol63_1_7
 43 45 0 0 0
SMALL
USER_CHARGES
****
VDW energy = -202.37
@<TRIPOS>ATOM
   1 C1        2.7323    -8.7181    -6.6515  C.3     1  <O>11       0.0125
   2 C2        3.4528    -9.1250    -5.4100  C.2     1  <O>11       0.2141
   3 O1        4.6297    -8.8309    -5.2623  O.2     1  <O>11      -0.2758
   4 N1        2.7960    -9.8280    -4.4360  N.am    1  <O>11      -0.2857
   5 C3        1.4632   -10.1619    -4.6021  C.ar    1  <O>11       0.0334
   6 C4        1.1322   -11.3713    -5.2168  C.ar    1  <O>11      -0.0399
   7 C5       -0.2137   -11.7098    -5.3990  C.ar    1  <O>11      -0.0508
   8 C6       -1.2219   -10.8452    -4.9633  C.ar    1  <O>11       0.0006
   9 C7       -2.5947   -11.1827    -5.1474  C.ar    1  <O>11       0.0760
  10 C8       -2.9325   -12.4011    -5.7739  C.ar    1  <O>11      -0.0174
  11 C9       -4.2752   -12.6480    -5.9111  C.ar    1  <O>11       0.0332
  12 N2       -5.2354   -11.8047    -5.4861  N.ar    1  <O>11      -0.2226
  13 C10      -4.8332   -10.6657    -4.8995  C.ar    1  <O>11       0.2200
  14 N3       -5.7899    -9.7031    -4.4129  N.pl3   1  <O>11      -0.2836
  15 C11      -5.3327    -8.5104    -3.7232  C.ar    1  <O>11       0.0343
  16 C12      -5.1652    -8.5183    -2.3275  C.ar    1  <O>11      -0.0404
  17 C13      -4.7351    -7.3656    -1.6635  C.ar    1  <O>11      -0.0593
  18 C14      -4.4661    -6.1972    -2.3811  C.ar    1  <O>11      -0.0495
  19 C15      -4.6265    -6.1922    -3.7724  C.ar    1  <O>11       0.0382
  20 C16      -4.3462    -4.9808    -4.5120  C.2     1  <O>11       0.2416
  21 N4       -3.2737    -4.2017    -4.1675  N.am    1  <O>11      -0.3253
  22 O2       -5.0654    -4.6540    -5.4434  O.2     1  <O>11      -0.2704
  23 C17      -5.0538    -7.3380    -4.4439  C.ar    1  <O>11      -0.0284
  24 N5       -3.5414   -10.3391    -4.7220  N.ar    1  <O>11      -0.2142
  25 C18      -0.8747    -9.6397    -4.3430  C.ar    1  <O>11      -0.0508
  26 C19       0.4647    -9.2940    -4.1552  C.ar    1  <O>11      -0.0399
  27 H1        1.7006    -9.0664    -6.6035  H       1  <O>11       0.0323
  28 H2        3.2247    -9.1590    -7.5183  H       1  <O>11       0.0323
  29 H3        2.7453    -7.6318    -6.7397  H       1  <O>11       0.0323
  30 H4        3.2899   -10.1071    -3.5877  H       1  <O>11       0.1548
  31 H5       -6.7878    -9.8605    -4.5536  H       1  <O>11       0.1550
  32 H6       -2.6733    -4.4752    -3.3893  H       1  <O>11       0.1453
  33 H7       -3.0770    -3.3465    -4.6880  H       1  <O>11       0.1453
  34 H8        1.8760   -12.0121    -5.5351  H       1  <O>11       0.0636
  35 H9       -0.4625   -12.6007    -5.8566  H       1  <O>11       0.0625
  36 H10      -2.2154   -13.0640    -6.1076  H       1  <O>11       0.0654
  37 H11      -4.5652   -13.5284    -6.3649  H       1  <O>11       0.0831
  38 H12      -5.3604    -9.3781    -1.7912  H       1  <O>11       0.0636
  39 H13      -4.6157    -7.3777    -0.6386  H       1  <O>11       0.0618
  40 H14      -4.1520    -5.3455    -1.8902  H       1  <O>11       0.0625
  41 H15      -5.1648    -7.3239    -5.4698  H       1  <O>11       0.0644
  42 H16      -1.6170    -8.9993    -4.0208  H       1  <O>11       0.0625
  43 H17       0.7142    -8.4067    -3.6910  H       1  <O>11       0.0636
@<TRIPOS>BOND
     1     1     2    1
     2     2     3    2
     3     2     4   am
     4     4     5    1
     5     5     6   ar
     6     6     7   ar
     7     7     8   ar
     8     8     9    1
     9     9    10   ar
    10    10    11   ar
    11    11    12   ar
    12    12    13   ar
    13    13    14    1
    14    14    15    1
    15    15    16   ar
    16    16    17   ar
    17    17    18   ar
    18    18    19   ar
    19    19    20    1
    20    20    21   am
    21    20    22    2
    22    19    23   ar
    23    15    23   ar
    24    13    24   ar
    25     9    24   ar
    26     8    25   ar
    27    25    26   ar
    28     5    26   ar
    29     1    27    1
    30     1    28    1
    31     1    29    1
    32     4    30    1
    33    14    31    1
    34    21    32    1
    35    21    33    1
    36     6    34    1
    37     7    35    1
    38    10    36    1
    39    11    37    1
    40    16    38    1
    41    17    39    1
    42    18    40    1
    43    23    41    1
    44    25    42    1
    45    26    43    1
@<TRIPOS>MOLECULE
mol63_1_8
 43 45 0 0 0
SMALL
USER_CHARGES
****
VDW energy = -201.83
@<TRIPOS>ATOM
   1 C1        2.7323    -8.7181    -6.6515  C.3     1  <O>11       0.0125
   2 C2        3.4528    -9.1250    -5.4100  C.2     1  <O>11       0.2141
   3 O1        4.6297    -8.8309    -5.2623  O.2     1  <O>11      -0.2758
   4 N1        2.7960    -9.8280    -4.4360  N.am    1  <O>11      -0.2857
   5 C3        3.4640   -10.2050    -3.2840  C.ar    1  <O>11       0.0334
   6 C4        4.0169    -9.2217    -2.4608  C.ar    1  <O>11      -0.0399
   7 C5        4.7044    -9.5964    -1.3005  C.ar    1  <O>11      -0.0508
   8 C6        4.8325   -10.9469    -0.9637  C.ar    1  <O>11       0.0006
   9 C7        5.5330   -11.3358     0.2155  C.ar    1  <O>11       0.0760
  10 C8        6.0984   -10.3451     1.0461  C.ar    1  <O>11      -0.0174
  11 C9        6.7545   -10.8051     2.1599  C.ar    1  <O>11       0.0332
  12 N2        6.8698   -12.1103     2.4712  N.ar    1  <O>11      -0.2226
  13 C10       6.3043   -12.9918     1.6306  C.ar    1  <O>11       0.2200
  14 N3        6.3763   -14.4094     1.8826  N.pl3   1  <O>11      -0.2836
  15 C11       5.7043   -14.9764     3.0377  C.ar    1  <O>11       0.0343
  16 C12       5.6819   -16.3682     3.2328  C.ar    1  <O>11      -0.0404
  17 C13       5.0250   -16.9133     4.3402  C.ar    1  <O>11      -0.0593
  18 C14       4.3876   -16.0798     5.2629  C.ar    1  <O>11      -0.0495
  19 C15       4.4165   -14.6928     5.0715  C.ar    1  <O>11       0.0382
  20 C16       3.7561   -13.8330     6.0294  C.2     1  <O>11       0.2416
  21 N4        2.4414   -13.4928     5.8509  N.am    1  <O>11      -0.3253
  22 O2        4.3708   -13.4117     6.9970  O.2     1  <O>11      -0.2704
  23 C17       5.0706   -14.1395     3.9704  C.ar    1  <O>11      -0.0284
  24 N5        5.6424   -12.6344     0.5166  N.ar    1  <O>11      -0.2142
  25 C18       4.2673   -11.9206    -1.7951  C.ar    1  <O>11      -0.0508
  26 C19       3.5784   -11.5568    -2.9534  C.ar    1  <O>11      -0.0399
  27 H1        1.7006    -9.0664    -6.6035  H       1  <O>11       0.0323
  28 H2        3.2247    -9.1590    -7.5183  H       1  <O>11       0.0323
  29 H3        2.7453    -7.6318    -6.7397  H       1  <O>11       0.0323
  30 H4        1.8130   -10.0730    -4.5590  H       1  <O>11       0.1548
  31 H5        6.8994   -15.0137     1.2489  H       1  <O>11       0.1550
  32 H6        1.9285   -13.8450     5.0424  H       1  <O>11       0.1453
  33 H7        1.9761   -12.8851     6.5256  H       1  <O>11       0.1453
  34 H8        3.9192    -8.2241    -2.7066  H       1  <O>11       0.0636
  35 H9        5.1180    -8.8731    -0.6917  H       1  <O>11       0.0625
  36 H10       6.0232    -9.3388     0.8296  H       1  <O>11       0.0654
  37 H11       7.1831   -10.1128     2.7940  H       1  <O>11       0.0831
  38 H12       6.1518   -16.9899     2.5564  H       1  <O>11       0.0636
  39 H13       5.0109   -17.9361     4.4768  H       1  <O>11       0.0618
  40 H14       3.9000   -16.4828     6.0782  H       1  <O>11       0.0625
  41 H15       5.0888   -13.1158     3.8415  H       1  <O>11       0.0644
  42 H16       4.3609   -12.9185    -1.5491  H       1  <O>11       0.0625
  43 H17       3.1581   -12.2792    -3.5589  H       1  <O>11       0.0636
@<TRIPOS>BOND
     1     1     2    1
     2     2     3    2
     3     2     4   am
     4     4     5    1
     5     5     6   ar
     6     6     7   ar
     7     7     8   ar
     8     8     9    1
     9     9    10   ar
    10    10    11   ar
    11    11    12   ar
    12    12    13   ar
    13    13    14    1
    14    14    15    1
    15    15    16   ar
    16    16    17   ar
    17    17    18   ar
    18    18    19   ar
    19    19    20    1
    20    20    21   am
    21    20    22    2
    22    19    23   ar
    23    15    23   ar
    24    13    24   ar
    25     9    24   ar
    26     8    25   ar
    27    25    26   ar
    28     5    26   ar
    29     1    27    1
    30     1    28    1
    31     1    29    1
    32     4    30    1
    33    14    31    1
    34    21    32    1
    35    21    33    1
    36     6    34    1
    37     7    35    1
    38    10    36    1
    39    11    37    1
    40    16    38    1
    41    17    39    1
    42    18    40    1
    43    23    41    1
    44    25    42    1
    45    26    43    1
@<TRIPOS>MOLECULE
mol63_1_9
 43 45 0 0 0
SMALL
USER_CHARGES
****
VDW energy = -201.48
@<TRIPOS>ATOM
   1 C1        2.7323    -8.7181    -6.6515  C.3     1  <O>11       0.0125
   2 C2        3.4528    -9.1250    -5.4100  C.2     1  <O>11       0.2141
   3 O1        4.6297    -8.8309    -5.2623  O.2     1  <O>11      -0.2758
   4 N1        2.7960    -9.8280    -4.4360  N.am    1  <O>11      -0.2857
   5 C3        3.4640   -10.2050    -3.2840  C.ar    1  <O>11       0.0334
   6 C4        3.4657    -9.3470    -2.1822  C.ar    1  <O>11      -0.0399
   7 C5        4.1495    -9.7165    -1.0180  C.ar    1  <O>11      -0.0508
   8 C6        4.8226   -10.9399    -0.9557  C.ar    1  <O>11       0.0006
   9 C7        5.5227   -11.3218     0.2261  C.ar    1  <O>11       0.0760
  10 C8        5.5317   -10.4543     1.3389  C.ar    1  <O>11      -0.0174
  11 C9        6.2282   -10.8983     2.4346  C.ar    1  <O>11       0.0332
  12 N2        6.8723   -12.0803     2.4796  N.ar    1  <O>11      -0.2226
  13 C10       6.8165   -12.8494     1.3802  C.ar    1  <O>11       0.2200
  14 N3        7.4754   -14.1310     1.3364  N.pl3   1  <O>11      -0.2836
  15 C11       7.3462   -14.9737     0.1616  C.ar    1  <O>11       0.0343
  16 C12       6.0979   -15.5178    -0.1872  C.ar    1  <O>11      -0.0404
  17 C13       5.9772   -16.3380    -1.3131  C.ar    1  <O>11      -0.0593
  18 C14       7.0951   -16.6220    -2.1018  C.ar    1  <O>11      -0.0495
  19 C15       8.3370   -16.0738    -1.7576  C.ar    1  <O>11       0.0382
  20 C16       9.4919   -16.3695    -2.5772  C.2     1  <O>11       0.2416
  21 N4       10.6690   -15.7015    -2.3670  N.am    1  <O>11      -0.3253
  22 O2        9.4170   -17.2149    -3.4554  O.2     1  <O>11      -0.2704
  23 C17       8.4669   -15.2531    -0.6370  C.ar    1  <O>11      -0.0284
  24 N5        6.1593   -12.4974     0.2616  N.ar    1  <O>11      -0.2142
  25 C18       4.8063   -11.7922    -2.0656  C.ar    1  <O>11      -0.0508
  26 C19       4.1258   -11.4334    -3.2305  C.ar    1  <O>11      -0.0399
  27 H1        1.7006    -9.0664    -6.6035  H       1  <O>11       0.0323
  28 H2        3.2247    -9.1590    -7.5183  H       1  <O>11       0.0323
  29 H3        2.7453    -7.6318    -6.7397  H       1  <O>11       0.0323
  30 H4        1.8130   -10.0730    -4.5590  H       1  <O>11       0.1548
  31 H5        8.0323   -14.4450     2.1312  H       1  <O>11       0.1550
  32 H6       10.7310   -14.9953    -1.6333  H       1  <O>11       0.1453
  33 H7       11.4830   -15.9088    -2.9462  H       1  <O>11       0.1453
  34 H8        2.9655    -8.4453    -2.2260  H       1  <O>11       0.0636
  35 H9        4.1567    -9.0834    -0.2031  H       1  <O>11       0.0625
  36 H10       5.0456    -9.5440     1.3294  H       1  <O>11       0.0654
  37 H11       6.2603   -10.2934     3.2701  H       1  <O>11       0.0831
  38 H12       5.2676   -15.3111     0.3897  H       1  <O>11       0.0636
  39 H13       5.0582   -16.7356    -1.5627  H       1  <O>11       0.0618
  40 H14       7.0062   -17.2303    -2.9307  H       1  <O>11       0.0625
  41 H15       9.3862   -14.8516    -0.3950  H       1  <O>11       0.0644
  42 H16       5.3029   -12.6958    -2.0225  H       1  <O>11       0.0625
  43 H17       4.1120   -12.0692    -4.0433  H       1  <O>11       0.0636
@<TRIPOS>BOND
     1     1     2    1
     2     2     3    2
     3     2     4   am
     4     4     5    1
     5     5     6   ar
     6     6     7   ar
     7     7     8   ar
     8     8     9    1
     9     9    10   ar
    10    10    11   ar
    11    11    12   ar
    12    12    13   ar
    13    13    14    1
    14    14    15    1
    15    15    16   ar
    16    16    17   ar
    17    17    18   ar
    18    18    19   ar
    19    19    20    1
    20    20    21   am
    21    20    22    2
    22    19    23   ar
    23    15    23   ar
    24    13    24   ar
    25     9    24   ar
    26     8    25   ar
    27    25    26   ar
    28     5    26   ar
    29     1    27    1
    30     1    28    1
    31     1    29    1
    32     4    30    1
    33    14    31    1
    34    21    32    1
    35    21    33    1
    36     6    34    1
    37     7    35    1
    38    10    36    1
    39    11    37    1
    40    16    38    1
    41    17    39    1
    42    18    40    1
    43    23    41    1
    44    25    42    1
    45    26    43    1
@<TRIPOS>MOLECULE
mol63_1_10
 43 45 0 0 0
SMALL
USER_CHARGES
****
VDW energy = -200.41
@<TRIPOS>ATOM
   1 C1        2.7323    -8.7181    -6.6515  C.3     1  <O>11       0.0125
   2 C2        3.4528    -9.1250    -5.4100  C.2     1  <O>11       0.2141
   3 O1        4.6297    -8.8309    -5.2623  O.2     1  <O>11      -0.2758
   4 N1        2.7960    -9.8280    -4.4360  N.am    1  <O>11      -0.2857
   5 C3        3.4642   -10.2055    -3.2843  C.ar    1  <O>11       0.0334
   6 C4        3.4665    -9.3478    -2.1822  C.ar    1  <O>11      -0.0399
   7 C5        4.1505    -9.7178    -1.0184  C.ar    1  <O>11      -0.0508
   8 C6        4.8231   -10.9415    -0.9565  C.ar    1  <O>11       0.0006
   9 C7        5.5234   -11.3240     0.2250  C.ar    1  <O>11       0.0760
  10 C8        5.5331   -10.4568     1.3380  C.ar    1  <O>11      -0.0174
  11 C9        6.2297   -10.9014     2.4334  C.ar    1  <O>11       0.0332
  12 N2        6.8733   -12.0836     2.4779  N.ar    1  <O>11      -0.2226
  13 C10       6.8169   -12.8524     1.3783  C.ar    1  <O>11       0.2200
  14 N3        7.4753   -14.1342     1.3341  N.pl3   1  <O>11      -0.2836
  15 C11       7.0229   -15.2126     2.1942  C.ar    1  <O>11       0.0343
  16 C12       7.5900   -16.4940     2.0830  C.ar    1  <O>11      -0.0404
  17 C13       7.1457   -17.5341     2.9048  C.ar    1  <O>11      -0.0593
  18 C14       6.1366   -17.3086     3.8446  C.ar    1  <O>11      -0.0495
  19 C15       5.5771   -16.0299     3.9596  C.ar    1  <O>11       0.0382
  20 C16       4.5330   -15.8002     4.9344  C.2     1  <O>11       0.2416
  21 N4        3.5653   -16.7481     5.1366  N.am    1  <O>11      -0.3253
  22 O2        4.5155   -14.7617     5.5768  O.2     1  <O>11      -0.2704
  23 C17       6.0149   -14.9854     3.1450  C.ar    1  <O>11      -0.0284
  24 N5        6.1596   -12.4999     0.2600  N.ar    1  <O>11      -0.2142
  25 C18       4.8062   -11.7935    -2.0667  C.ar    1  <O>11      -0.0508
  26 C19       4.1255   -11.4342    -3.2313  C.ar    1  <O>11      -0.0399
  27 H1        1.7006    -9.0664    -6.6035  H       1  <O>11       0.0323
  28 H2        3.2247    -9.1590    -7.5183  H       1  <O>11       0.0323
  29 H3        2.7453    -7.6318    -6.7397  H       1  <O>11       0.0323
  30 H4        1.8129   -10.0726    -4.5588  H       1  <O>11       0.1548
  31 H5        8.2587   -14.2830     0.6981  H       1  <O>11       0.1550
  32 H6        3.5804   -17.6154     4.5995  H       1  <O>11       0.1453
  33 H7        2.8280   -16.5853     5.8229  H       1  <O>11       0.1453
  34 H8        2.9666    -8.4459    -2.2257  H       1  <O>11       0.0636
  35 H9        4.1582    -9.0850    -0.2033  H       1  <O>11       0.0625
  36 H10       5.0473    -9.5463     1.3288  H       1  <O>11       0.0654
  37 H11       6.2622   -10.2966     3.2690  H       1  <O>11       0.0831
  38 H12       8.3368   -16.6675     1.3923  H       1  <O>11       0.0636
  39 H13       7.5651   -18.4730     2.8169  H       1  <O>11       0.0618
  40 H14       5.8065   -18.0775     4.4486  H       1  <O>11       0.0625
  41 H15       5.5980   -14.0462     3.2411  H       1  <O>11       0.0644
  42 H16       5.3025   -12.6974    -2.0239  H       1  <O>11       0.0625
  43 H17       4.1112   -12.0698    -4.0442  H       1  <O>11       0.0636
@<TRIPOS>BOND
     1     1     2    1
     2     2     3    2
     3     2     4   am
     4     4     5    1
     5     5     6   ar
     6     6     7   ar
     7     7     8   ar
     8     8     9    1
     9     9    10   ar
    10    10    11   ar
    11    11    12   ar
    12    12    13   ar
    13    13    14    1
    14    14    15    1
    15    15    16   ar
    16    16    17   ar
    17    17    18   ar
    18    18    19   ar
    19    19    20    1
    20    20    21   am
    21    20    22    2
    22    19    23   ar
    23    15    23   ar
    24    13    24   ar
    25     9    24   ar
    26     8    25   ar
    27    25    26   ar
    28     5    26   ar
    29     1    27    1
    30     1    28    1
    31     1    29    1
    32     4    30    1
    33    14    31    1
    34    21    32    1
    35    21    33    1
    36     6    34    1
    37     7    35    1
    38    10    36    1
    39    11    37    1
    40    16    38    1
    41    17    39    1
    42    18    40    1
    43    23    41    1
    44    25    42    1
    45    26    43    1
@<TRIPOS>MOLECULE
mol63_1_11
 43 45 0 0 0
SMALL
USER_CHARGES
****
VDW energy = -199.91
@<TRIPOS>ATOM
   1 C1        2.7323    -8.7181    -6.6515  C.3     1  <O>11       0.0125
   2 C2        3.4528    -9.1250    -5.4100  C.2     1  <O>11       0.2141
   3 O1        4.6297    -8.8309    -5.2623  O.2     1  <O>11      -0.2758
   4 N1        2.7960    -9.8280    -4.4360  N.am    1  <O>11      -0.2857
   5 C3        1.4632   -10.1619    -4.6021  C.ar    1  <O>11       0.0334
   6 C4        1.1322   -11.3713    -5.2168  C.ar    1  <O>11      -0.0399
   7 C5       -0.2137   -11.7098    -5.3990  C.ar    1  <O>11      -0.0508
   8 C6       -1.2219   -10.8452    -4.9633  C.ar    1  <O>11       0.0006
   9 C7       -2.5947   -11.1827    -5.1474  C.ar    1  <O>11       0.0760
  10 C8       -2.9325   -12.4011    -5.7739  C.ar    1  <O>11      -0.0174
  11 C9       -4.2752   -12.6480    -5.9111  C.ar    1  <O>11       0.0332
  12 N2       -5.2354   -11.8047    -5.4861  N.ar    1  <O>11      -0.2226
  13 C10      -4.8332   -10.6657    -4.8995  C.ar    1  <O>11       0.2200
  14 N3       -5.7899    -9.7031    -4.4129  N.pl3   1  <O>11      -0.2836
  15 C11      -6.6642   -10.0448    -3.3056  C.ar    1  <O>11       0.0343
  16 C12      -7.5256    -9.0785    -2.7578  C.ar    1  <O>11      -0.0404
  17 C13      -8.3594    -9.4062    -1.6844  C.ar    1  <O>11      -0.0593
  18 C14      -8.3452   -10.6967    -1.1487  C.ar    1  <O>11      -0.0495
  19 C15      -7.4917   -11.6607    -1.6996  C.ar    1  <O>11       0.0382
  20 C16      -7.4805   -12.9960    -1.1428  C.2     1  <O>11       0.2416
  21 N4       -6.6210   -13.3042    -0.1218  N.am    1  <O>11      -0.3253
  22 O2       -8.2376   -13.8472    -1.5827  O.2     1  <O>11      -0.2704
  23 C17      -6.6573   -11.3435    -2.7717  C.ar    1  <O>11      -0.0284
  24 N5       -3.5414   -10.3391    -4.7220  N.ar    1  <O>11      -0.2142
  25 C18      -0.8747    -9.6397    -4.3430  C.ar    1  <O>11      -0.0508
  26 C19       0.4647    -9.2940    -4.1552  C.ar    1  <O>11      -0.0399
  27 H1        1.7006    -9.0664    -6.6035  H       1  <O>11       0.0323
  28 H2        3.2247    -9.1590    -7.5183  H       1  <O>11       0.0323
  29 H3        2.7453    -7.6318    -6.7397  H       1  <O>11       0.0323
  30 H4        3.2899   -10.1071    -3.5877  H       1  <O>11       0.1548
  31 H5       -5.8518    -8.7821    -4.8468  H       1  <O>11       0.1550
  32 H6       -5.9887   -12.5926     0.2452  H       1  <O>11       0.1453
  33 H7       -6.6119   -14.2463     0.2698  H       1  <O>11       0.1453
  34 H8        1.8760   -12.0121    -5.5351  H       1  <O>11       0.0636
  35 H9       -0.4625   -12.6007    -5.8566  H       1  <O>11       0.0625
  36 H10      -2.2154   -13.0640    -6.1076  H       1  <O>11       0.0654
  37 H11      -4.5652   -13.5284    -6.3649  H       1  <O>11       0.0831
  38 H12      -7.5427    -8.1238    -3.1493  H       1  <O>11       0.0636
  39 H13      -8.9883    -8.6917    -1.2858  H       1  <O>11       0.0618
  40 H14      -8.9582   -10.9372    -0.3541  H       1  <O>11       0.0625
  41 H15      -6.0352   -12.0630    -3.1722  H       1  <O>11       0.0644
  42 H16      -1.6170    -8.9993    -4.0208  H       1  <O>11       0.0625
  43 H17       0.7142    -8.4067    -3.6910  H       1  <O>11       0.0636
@<TRIPOS>BOND
     1     1     2    1
     2     2     3    2
     3     2     4   am
     4     4     5    1
     5     5     6   ar
     6     6     7   ar
     7     7     8   ar
     8     8     9    1
     9     9    10   ar
    10    10    11   ar
    11    11    12   ar
    12    12    13   ar
    13    13    14    1
    14    14    15    1
    15    15    16   ar
    16    16    17   ar
    17    17    18   ar
    18    18    19   ar
    19    19    20    1
    20    20    21   am
    21    20    22    2
    22    19    23   ar
    23    15    23   ar
    24    13    24   ar
    25     9    24   ar
    26     8    25   ar
    27    25    26   ar
    28     5    26   ar
    29     1    27    1
    30     1    28    1
    31     1    29    1
    32     4    30    1
    33    14    31    1
    34    21    32    1
    35    21    33    1
    36     6    34    1
    37     7    35    1
    38    10    36    1
    39    11    37    1
    40    16    38    1
    41    17    39    1
    42    18    40    1
    43    23    41    1
    44    25    42    1
    45    26    43    1
@<TRIPOS>MOLECULE
mol63_1_12
 43 45 0 0 0
SMALL
USER_CHARGES
****
VDW energy = -199.63
@<TRIPOS>ATOM
   1 C1        2.7323    -8.7181    -6.6515  C.3     1  <O>11       0.0125
   2 C2        3.4528    -9.1250    -5.4100  C.2     1  <O>11       0.2141
   3 O1        4.6297    -8.8309    -5.2623  O.2     1  <O>11      -0.2758
   4 N1        2.7960    -9.8280    -4.4360  N.am    1  <O>11      -0.2857
   5 C3        1.4632   -10.1619    -4.6021  C.ar    1  <O>11       0.0334
   6 C4        1.1322   -11.3713    -5.2168  C.ar    1  <O>11      -0.0399
   7 C5       -0.2137   -11.7098    -5.3990  C.ar    1  <O>11      -0.0508
   8 C6       -1.2219   -10.8452    -4.9633  C.ar    1  <O>11       0.0006
   9 C7       -2.5947   -11.1827    -5.1474  C.ar    1  <O>11       0.0760
  10 C8       -2.9325   -12.4011    -5.7739  C.ar    1  <O>11      -0.0174
  11 C9       -4.2752   -12.6480    -5.9111  C.ar    1  <O>11       0.0332
  12 N2       -5.2354   -11.8047    -5.4861  N.ar    1  <O>11      -0.2226
  13 C10      -4.8332   -10.6657    -4.8995  C.ar    1  <O>11       0.2200
  14 N3       -5.7899    -9.7031    -4.4129  N.pl3   1  <O>11      -0.2836
  15 C11      -6.6498    -8.9987    -5.3465  C.ar    1  <O>11       0.0343
  16 C12      -7.6171    -9.6998    -6.0872  C.ar    1  <O>11      -0.0404
  17 C13      -8.4374    -9.0216    -6.9938  C.ar    1  <O>11      -0.0593
  18 C14      -8.3043    -7.6418    -7.1697  C.ar    1  <O>11      -0.0495
  19 C15      -7.3450    -6.9430    -6.4261  C.ar    1  <O>11       0.0382
  20 C16      -7.2108    -5.5143    -6.6104  C.2     1  <O>11       0.2416
  21 N4       -7.3060    -4.9746    -7.8656  N.am    1  <O>11      -0.3253
  22 O2       -7.0136    -4.7904    -5.6468  O.2     1  <O>11      -0.2704
  23 C17      -6.5231    -7.6108    -5.5180  C.ar    1  <O>11      -0.0284
  24 N5       -3.5414   -10.3391    -4.7220  N.ar    1  <O>11      -0.2142
  25 C18      -0.8747    -9.6397    -4.3430  C.ar    1  <O>11      -0.0508
  26 C19       0.4647    -9.2940    -4.1552  C.ar    1  <O>11      -0.0399
  27 H1        1.7006    -9.0664    -6.6035  H       1  <O>11       0.0323
  28 H2        3.2247    -9.1590    -7.5183  H       1  <O>11       0.0323
  29 H3        2.7453    -7.6318    -6.7397  H       1  <O>11       0.0323
  30 H4        3.2899   -10.1071    -3.5877  H       1  <O>11       0.1548
  31 H5       -5.8622    -9.5175    -3.4125  H       1  <O>11       0.1550
  32 H6       -7.4707    -5.5798    -8.6702  H       1  <O>11       0.1453
  33 H7       -7.2097    -3.9672    -7.9958  H       1  <O>11       0.1453
  34 H8        1.8760   -12.0121    -5.5351  H       1  <O>11       0.0636
  35 H9       -0.4625   -12.6007    -5.8566  H       1  <O>11       0.0625
  36 H10      -2.2154   -13.0640    -6.1076  H       1  <O>11       0.0654
  37 H11      -4.5652   -13.5284    -6.3649  H       1  <O>11       0.0831
  38 H12      -7.7222   -10.7187    -5.9614  H       1  <O>11       0.0636
  39 H13      -9.1445    -9.5425    -7.5357  H       1  <O>11       0.0618
  40 H14      -8.9075    -7.1421    -7.8416  H       1  <O>11       0.0625
  41 H15      -5.8222    -7.0851    -4.9727  H       1  <O>11       0.0644
  42 H16      -1.6170    -8.9993    -4.0208  H       1  <O>11       0.0625
  43 H17       0.7142    -8.4067    -3.6910  H       1  <O>11       0.0636
@<TRIPOS>BOND
     1     1     2    1
     2     2     3    2
     3     2     4   am
     4     4     5    1
     5     5     6   ar
     6     6     7   ar
     7     7     8   ar
     8     8     9    1
     9     9    10   ar
    10    10    11   ar
    11    11    12   ar
    12    12    13   ar
    13    13    14    1
    14    14    15    1
    15    15    16   ar
    16    16    17   ar
    17    17    18   ar
    18    18    19   ar
    19    19    20    1
    20    20    21   am
    21    20    22    2
    22    19    23   ar
    23    15    23   ar
    24    13    24   ar
    25     9    24   ar
    26     8    25   ar
    27    25    26   ar
    28     5    26   ar
    29     1    27    1
    30     1    28    1
    31     1    29    1
    32     4    30    1
    33    14    31    1
    34    21    32    1
    35    21    33    1
    36     6    34    1
    37     7    35    1
    38    10    36    1
    39    11    37    1
    40    16    38    1
    41    17    39    1
    42    18    40    1
    43    23    41    1
    44    25    42    1
    45    26    43    1
@<TRIPOS>MOLECULE
mol63_1_13
 43 45 0 0 0
SMALL
USER_CHARGES
****
VDW energy = -198.53
@<TRIPOS>ATOM
   1 C1        2.7323    -8.7181    -6.6515  C.3     1  <O>11       0.0125
   2 C2        3.4528    -9.1250    -5.4100  C.2     1  <O>11       0.2141
   3 O1        4.6297    -8.8309    -5.2623  O.2     1  <O>11      -0.2758
   4 N1        2.7960    -9.8280    -4.4360  N.am    1  <O>11      -0.2857
   5 C3        3.4640   -10.2050    -3.2840  C.ar    1  <O>11       0.0334
   6 C4        3.4657    -9.3470    -2.1822  C.ar    1  <O>11      -0.0399
   7 C5        4.1495    -9.7165    -1.0180  C.ar    1  <O>11      -0.0508
   8 C6        4.8226   -10.9399    -0.9557  C.ar    1  <O>11       0.0006
   9 C7        5.5227   -11.3218     0.2261  C.ar    1  <O>11       0.0760
  10 C8        5.5317   -10.4543     1.3389  C.ar    1  <O>11      -0.0174
  11 C9        6.2282   -10.8983     2.4346  C.ar    1  <O>11       0.0332
  12 N2        6.8723   -12.0803     2.4796  N.ar    1  <O>11      -0.2226
  13 C10       6.8165   -12.8494     1.3802  C.ar    1  <O>11       0.2200
  14 N3        7.4754   -14.1310     1.3364  N.pl3   1  <O>11      -0.2836
  15 C11       8.8489   -14.2256     0.8764  C.ar    1  <O>11       0.0343
  16 C12       9.5317   -15.4532     0.9293  C.ar    1  <O>11      -0.0404
  17 C13      10.8580   -15.5403     0.4958  C.ar    1  <O>11      -0.0593
  18 C14      11.5152   -14.4093     0.0046  C.ar    1  <O>11      -0.0495
  19 C15      10.8320   -13.1882    -0.0543  C.ar    1  <O>11       0.0382
  20 C16      11.5156   -12.0195    -0.5643  C.2     1  <O>11       0.2416
  21 N4       10.8153   -10.8664    -0.8010  N.am    1  <O>11      -0.3253
  22 O2       12.7164   -12.0615    -0.7827  O.2     1  <O>11      -0.2704
  23 C17       9.5080   -13.0918     0.3746  C.ar    1  <O>11      -0.0284
  24 N5        6.1593   -12.4974     0.2616  N.ar    1  <O>11      -0.2142
  25 C18       4.8063   -11.7922    -2.0656  C.ar    1  <O>11      -0.0508
  26 C19       4.1258   -11.4334    -3.2305  C.ar    1  <O>11      -0.0399
  27 H1        1.7006    -9.0664    -6.6035  H       1  <O>11       0.0323
  28 H2        3.2247    -9.1590    -7.5183  H       1  <O>11       0.0323
  29 H3        2.7453    -7.6318    -6.7397  H       1  <O>11       0.0323
  30 H4        1.8130   -10.0730    -4.5590  H       1  <O>11       0.1548
  31 H5        6.9760   -14.9709     1.6290  H       1  <O>11       0.1550
  32 H6        9.8122   -10.8320    -0.6184  H       1  <O>11       0.1453
  33 H7       11.2971   -10.0427    -1.1622  H       1  <O>11       0.1453
  34 H8        2.9655    -8.4453    -2.2260  H       1  <O>11       0.0636
  35 H9        4.1567    -9.0834    -0.2031  H       1  <O>11       0.0625
  36 H10       5.0456    -9.5440     1.3294  H       1  <O>11       0.0654
  37 H11       6.2603   -10.2934     3.2701  H       1  <O>11       0.0831
  38 H12       9.0522   -16.2931     1.2894  H       1  <O>11       0.0636
  39 H13      11.3540   -16.4442     0.5388  H       1  <O>11       0.0618
  40 H14      12.4953   -14.4732    -0.3120  H       1  <O>11       0.0625
  41 H15       9.0132   -12.1876     0.3230  H       1  <O>11       0.0644
  42 H16       5.3029   -12.6958    -2.0225  H       1  <O>11       0.0625
  43 H17       4.1120   -12.0692    -4.0433  H       1  <O>11       0.0636
@<TRIPOS>BOND
     1     1     2    1
     2     2     3    2
     3     2     4   am
     4     4     5    1
     5     5     6   ar
     6     6     7   ar
     7     7     8   ar
     8     8     9    1
     9     9    10   ar
    10    10    11   ar
    11    11    12   ar
    12    12    13   ar
    13    13    14    1
    14    14    15    1
    15    15    16   ar
    16    16    17   ar
    17    17    18   ar
    18    18    19   ar
    19    19    20    1
    20    20    21   am
    21    20    22    2
    22    19    23   ar
    23    15    23   ar
    24    13    24   ar
    25     9    24   ar
    26     8    25   ar
    27    25    26   ar
    28     5    26   ar
    29     1    27    1
    30     1    28    1
    31     1    29    1
    32     4    30    1
    33    14    31    1
    34    21    32    1
    35    21    33    1
    36     6    34    1
    37     7    35    1
    38    10    36    1
    39    11    37    1
    40    16    38    1
    41    17    39    1
    42    18    40    1
    43    23    41    1
    44    25    42    1
    45    26    43    1
@<TRIPOS>MOLECULE
mol63_1_14
 43 45 0 0 0
SMALL
USER_CHARGES
****
VDW energy = -197.80
@<TRIPOS>ATOM
   1 C1        2.7323    -8.7181    -6.6515  C.3     1  <O>11       0.0125
   2 C2        3.4528    -9.1250    -5.4100  C.2     1  <O>11       0.2141
   3 O1        4.6297    -8.8309    -5.2623  O.2     1  <O>11      -0.2758
   4 N1        2.7960    -9.8280    -4.4360  N.am    1  <O>11      -0.2857
   5 C3        3.4640   -10.2050    -3.2840  C.ar    1  <O>11       0.0334
   6 C4        3.4657    -9.3470    -2.1822  C.ar    1  <O>11      -0.0399
   7 C5        4.1495    -9.7165    -1.0180  C.ar    1  <O>11      -0.0508
   8 C6        4.8226   -10.9399    -0.9557  C.ar    1  <O>11       0.0006
   9 C7        5.5227   -11.3218     0.2261  C.ar    1  <O>11       0.0760
  10 C8        5.5317   -10.4543     1.3389  C.ar    1  <O>11      -0.0174
  11 C9        6.2282   -10.8983     2.4346  C.ar    1  <O>11       0.0332
  12 N2        6.8723   -12.0803     2.4796  N.ar    1  <O>11      -0.2226
  13 C10       6.8165   -12.8494     1.3802  C.ar    1  <O>11       0.2200
  14 N3        7.4754   -14.1310     1.3364  N.pl3   1  <O>11      -0.2836
  15 C11       7.0232   -15.2093     2.1967  C.ar    1  <O>11       0.0343
  16 C12       7.5907   -16.4905     2.0860  C.ar    1  <O>11      -0.0404
  17 C13       7.1466   -17.5306     2.9079  C.ar    1  <O>11      -0.0593
  18 C14       6.1372   -17.3052     3.8474  C.ar    1  <O>11      -0.0495
  19 C15       5.5771   -16.0267     3.9619  C.ar    1  <O>11       0.0382
  20 C16       4.5327   -15.7971     4.9364  C.2     1  <O>11       0.2416
  21 N4        4.1029   -14.5217     5.1908  N.am    1  <O>11      -0.3253
  22 O2        4.0344   -16.7403     5.5309  O.2     1  <O>11      -0.2704
  23 C17       6.0147   -14.9822     3.1472  C.ar    1  <O>11      -0.0284
  24 N5        6.1593   -12.4974     0.2616  N.ar    1  <O>11      -0.2142
  25 C18       4.8063   -11.7922    -2.0656  C.ar    1  <O>11      -0.0508
  26 C19       4.1258   -11.4334    -3.2305  C.ar    1  <O>11      -0.0399
  27 H1        1.7006    -9.0664    -6.6035  H       1  <O>11       0.0323
  28 H2        3.2247    -9.1590    -7.5183  H       1  <O>11       0.0323
  29 H3        2.7453    -7.6318    -6.7397  H       1  <O>11       0.0323
  30 H4        1.8130   -10.0730    -4.5590  H       1  <O>11       0.1548
  31 H5        8.2590   -14.2796     0.7007  H       1  <O>11       0.1550
  32 H6        4.5196   -13.7342     4.6938  H       1  <O>11       0.1453
  33 H7        3.3675   -14.3596     5.8792  H       1  <O>11       0.1453
  34 H8        2.9655    -8.4453    -2.2260  H       1  <O>11       0.0636
  35 H9        4.1567    -9.0834    -0.2031  H       1  <O>11       0.0625
  36 H10       5.0456    -9.5440     1.3294  H       1  <O>11       0.0654
  37 H11       6.2603   -10.2934     3.2701  H       1  <O>11       0.0831
  38 H12       8.3378   -16.6639     1.3955  H       1  <O>11       0.0636
  39 H13       7.5664   -18.4693     2.8205  H       1  <O>11       0.0618
  40 H14       5.8072   -18.0741     4.4515  H       1  <O>11       0.0625
  41 H15       5.5975   -14.0432     3.2430  H       1  <O>11       0.0644
  42 H16       5.3029   -12.6958    -2.0225  H       1  <O>11       0.0625
  43 H17       4.1120   -12.0692    -4.0433  H       1  <O>11       0.0636
@<TRIPOS>BOND
     1     1     2    1
     2     2     3    2
     3     2     4   am
     4     4     5    1
     5     5     6   ar
     6     6     7   ar
     7     7     8   ar
     8     8     9    1
     9     9    10   ar
    10    10    11   ar
    11    11    12   ar
    12    12    13   ar
    13    13    14    1
    14    14    15    1
    15    15    16   ar
    16    16    17   ar
    17    17    18   ar
    18    18    19   ar
    19    19    20    1
    20    20    21   am
    21    20    22    2
    22    19    23   ar
    23    15    23   ar
    24    13    24   ar
    25     9    24   ar
    26     8    25   ar
    27    25    26   ar
    28     5    26   ar
    29     1    27    1
    30     1    28    1
    31     1    29    1
    32     4    30    1
    33    14    31    1
    34    21    32    1
    35    21    33    1
    36     6    34    1
    37     7    35    1
    38    10    36    1
    39    11    37    1
    40    16    38    1
    41    17    39    1
    42    18    40    1
    43    23    41    1
    44    25    42    1
    45    26    43    1
@<TRIPOS>MOLECULE
mol63_1_15
 43 45 0 0 0
SMALL
USER_CHARGES
****
VDW energy = -197.70
@<TRIPOS>ATOM
   1 C1        2.7323    -8.7181    -6.6515  C.3     1  <O>11       0.0125
   2 C2        3.4528    -9.1250    -5.4100  C.2     1  <O>11       0.2141
   3 O1        4.6297    -8.8309    -5.2623  O.2     1  <O>11      -0.2758
   4 N1        2.7960    -9.8280    -4.4360  N.am    1  <O>11      -0.2857
   5 C3        1.4632   -10.1619    -4.6021  C.ar    1  <O>11       0.0334
   6 C4        1.1322   -11.3713    -5.2168  C.ar    1  <O>11      -0.0399
   7 C5       -0.2137   -11.7098    -5.3990  C.ar    1  <O>11      -0.0508
   8 C6       -1.2219   -10.8452    -4.9633  C.ar    1  <O>11       0.0006
   9 C7       -2.5947   -11.1827    -5.1474  C.ar    1  <O>11       0.0760
  10 C8       -2.9325   -12.4011    -5.7739  C.ar    1  <O>11      -0.0174
  11 C9       -4.2752   -12.6480    -5.9111  C.ar    1  <O>11       0.0332
  12 N2       -5.2354   -11.8047    -5.4861  N.ar    1  <O>11      -0.2226
  13 C10      -4.8332   -10.6657    -4.8995  C.ar    1  <O>11       0.2200
  14 N3       -5.7899    -9.7031    -4.4129  N.pl3   1  <O>11      -0.2836
  15 C11      -6.6498    -8.9987    -5.3465  C.ar    1  <O>11       0.0343
  16 C12      -7.6551    -8.1375    -4.8735  C.ar    1  <O>11      -0.0404
  17 C13      -8.4894    -7.4681    -5.7738  C.ar    1  <O>11      -0.0593
  18 C14      -8.3300    -7.6475    -7.1503  C.ar    1  <O>11      -0.0495
  19 C15      -7.3236    -8.5002    -7.6208  C.ar    1  <O>11       0.0382
  20 C16      -7.1611    -8.6827    -9.0467  C.2     1  <O>11       0.2416
  21 N4       -7.2941    -7.6138    -9.8928  N.am    1  <O>11      -0.3253
  22 O2       -6.9046    -9.7893    -9.4952  O.2     1  <O>11      -0.2704
  23 C17      -6.4853    -9.1713    -6.7303  C.ar    1  <O>11      -0.0284
  24 N5       -3.5414   -10.3391    -4.7220  N.ar    1  <O>11      -0.2142
  25 C18      -0.8747    -9.6397    -4.3430  C.ar    1  <O>11      -0.0508
  26 C19       0.4647    -9.2940    -4.1552  C.ar    1  <O>11      -0.0399
  27 H1        1.7006    -9.0664    -6.6035  H       1  <O>11       0.0323
  28 H2        3.2247    -9.1590    -7.5183  H       1  <O>11       0.0323
  29 H3        2.7453    -7.6318    -6.7397  H       1  <O>11       0.0323
  30 H4        3.2899   -10.1071    -3.5877  H       1  <O>11       0.1548
  31 H5       -5.8622    -9.5175    -3.4125  H       1  <O>11       0.1550
  32 H6       -7.5084    -6.6896    -9.5175  H       1  <O>11       0.1453
  33 H7       -7.1811    -7.7428   -10.8986  H       1  <O>11       0.1453
  34 H8        1.8760   -12.0121    -5.5351  H       1  <O>11       0.0636
  35 H9       -0.4625   -12.6007    -5.8566  H       1  <O>11       0.0625
  36 H10      -2.2154   -13.0640    -6.1076  H       1  <O>11       0.0654
  37 H11      -4.5652   -13.5284    -6.3649  H       1  <O>11       0.0831
  38 H12      -7.7777    -7.9989    -3.8583  H       1  <O>11       0.0636
  39 H13      -9.2266    -6.8385    -5.4200  H       1  <O>11       0.0618
  40 H14      -8.9483    -7.1559    -7.8144  H       1  <O>11       0.0625
  41 H15      -5.7445    -9.7943    -7.0884  H       1  <O>11       0.0644
  42 H16      -1.6170    -8.9993    -4.0208  H       1  <O>11       0.0625
  43 H17       0.7142    -8.4067    -3.6910  H       1  <O>11       0.0636
@<TRIPOS>BOND
     1     1     2    1
     2     2     3    2
     3     2     4   am
     4     4     5    1
     5     5     6   ar
     6     6     7   ar
     7     7     8   ar
     8     8     9    1
     9     9    10   ar
    10    10    11   ar
    11    11    12   ar
    12    12    13   ar
    13    13    14    1
    14    14    15    1
    15    15    16   ar
    16    16    17   ar
    17    17    18   ar
    18    18    19   ar
    19    19    20    1
    20    20    21   am
    21    20    22    2
    22    19    23   ar
    23    15    23   ar
    24    13    24   ar
    25     9    24   ar
    26     8    25   ar
    27    25    26   ar
    28     5    26   ar
    29     1    27    1
    30     1    28    1
    31     1    29    1
    32     4    30    1
    33    14    31    1
    34    21    32    1
    35    21    33    1
    36     6    34    1
    37     7    35    1
    38    10    36    1
    39    11    37    1
    40    16    38    1
    41    17    39    1
    42    18    40    1
    43    23    41    1
    44    25    42    1
    45    26    43    1
@<TRIPOS>MOLECULE
mol63_1_16
 43 45 0 0 0
SMALL
USER_CHARGES
****
VDW energy = -196.98
@<TRIPOS>ATOM
   1 C1        2.7323    -8.7181    -6.6515  C.3     1  <O>11       0.0125
   2 C2        3.4528    -9.1250    -5.4100  C.2     1  <O>11       0.2141
   3 O1        4.6297    -8.8309    -5.2623  O.2     1  <O>11      -0.2758
   4 N1        2.7960    -9.8280    -4.4360  N.am    1  <O>11      -0.2857
   5 C3        1.4632   -10.1619    -4.6021  C.ar    1  <O>11       0.0334
   6 C4        1.1322   -11.3713    -5.2168  C.ar    1  <O>11      -0.0399
   7 C5       -0.2137   -11.7098    -5.3990  C.ar    1  <O>11      -0.0508
   8 C6       -1.2219   -10.8452    -4.9633  C.ar    1  <O>11       0.0006
   9 C7       -2.5947   -11.1827    -5.1474  C.ar    1  <O>11       0.0760
  10 C8       -2.9325   -12.4011    -5.7739  C.ar    1  <O>11      -0.0174
  11 C9       -4.2752   -12.6480    -5.9111  C.ar    1  <O>11       0.0332
  12 N2       -5.2354   -11.8047    -5.4861  N.ar    1  <O>11      -0.2226
  13 C10      -4.8332   -10.6657    -4.8995  C.ar    1  <O>11       0.2200
  14 N3       -5.7899    -9.7031    -4.4129  N.pl3   1  <O>11      -0.2836
  15 C11      -5.3327    -8.5104    -3.7232  C.ar    1  <O>11       0.0343
  16 C12      -4.5868    -7.5363    -4.4093  C.ar    1  <O>11      -0.0404
  17 C13      -4.1381    -6.3932    -3.7409  C.ar    1  <O>11      -0.0593
  18 C14      -4.4289    -6.2082    -2.3868  C.ar    1  <O>11      -0.0495
  19 C15      -5.1781    -7.1758    -1.7057  C.ar    1  <O>11       0.0382
  20 C16      -5.4779    -6.9802    -0.3040  C.2     1  <O>11       0.2416
  21 N4       -6.3579    -7.8164     0.3305  N.am    1  <O>11      -0.3253
  22 O2       -4.9458    -6.0705     0.3130  O.2     1  <O>11      -0.2704
  23 C17      -5.6314    -8.3189    -2.3645  C.ar    1  <O>11      -0.0284
  24 N5       -3.5414   -10.3391    -4.7220  N.ar    1  <O>11      -0.2142
  25 C18      -0.8747    -9.6397    -4.3430  C.ar    1  <O>11      -0.0508
  26 C19       0.4647    -9.2940    -4.1552  C.ar    1  <O>11      -0.0399
  27 H1        1.7006    -9.0664    -6.6035  H       1  <O>11       0.0323
  28 H2        3.2247    -9.1590    -7.5183  H       1  <O>11       0.0323
  29 H3        2.7453    -7.6318    -6.7397  H       1  <O>11       0.0323
  30 H4        3.2899   -10.1071    -3.5877  H       1  <O>11       0.1548
  31 H5       -6.7878    -9.8605    -4.5536  H       1  <O>11       0.1550
  32 H6       -6.8021    -8.5762    -0.1855  H       1  <O>11       0.1453
  33 H7       -6.5706    -7.6775     1.3187  H       1  <O>11       0.1453
  34 H8        1.8760   -12.0121    -5.5351  H       1  <O>11       0.0636
  35 H9       -0.4625   -12.6007    -5.8566  H       1  <O>11       0.0625
  36 H10      -2.2154   -13.0640    -6.1076  H       1  <O>11       0.0654
  37 H11      -4.5652   -13.5284    -6.3649  H       1  <O>11       0.0831
  38 H12      -4.3696    -7.6655    -5.4098  H       1  <O>11       0.0636
  39 H13      -3.5896    -5.6827    -4.2501  H       1  <O>11       0.0618
  40 H14      -4.0946    -5.3660    -1.8930  H       1  <O>11       0.0625
  41 H15      -6.1860    -9.0235    -1.8536  H       1  <O>11       0.0644
  42 H16      -1.6170    -8.9993    -4.0208  H       1  <O>11       0.0625
  43 H17       0.7142    -8.4067    -3.6910  H       1  <O>11       0.0636
@<TRIPOS>BOND
     1     1     2    1
     2     2     3    2
     3     2     4   am
     4     4     5    1
     5     5     6   ar
     6     6     7   ar
     7     7     8   ar
     8     8     9    1
     9     9    10   ar
    10    10    11   ar
    11    11    12   ar
    12    12    13   ar
    13    13    14    1
    14    14    15    1
    15    15    16   ar
    16    16    17   ar
    17    17    18   ar
    18    18    19   ar
    19    19    20    1
    20    20    21   am
    21    20    22    2
    22    19    23   ar
    23    15    23   ar
    24    13    24   ar
    25     9    24   ar
    26     8    25   ar
    27    25    26   ar
    28     5    26   ar
    29     1    27    1
    30     1    28    1
    31     1    29    1
    32     4    30    1
    33    14    31    1
    34    21    32    1
    35    21    33    1
    36     6    34    1
    37     7    35    1
    38    10    36    1
    39    11    37    1
    40    16    38    1
    41    17    39    1
    42    18    40    1
    43    23    41    1
    44    25    42    1
    45    26    43    1
@<TRIPOS>MOLECULE
mol63_1_17
 43 45 0 0 0
SMALL
USER_CHARGES
****
VDW energy = -196.64
@<TRIPOS>ATOM
   1 C1        2.7323    -8.7181    -6.6515  C.3     1  <O>11       0.0125
   2 C2        3.4528    -9.1250    -5.4100  C.2     1  <O>11       0.2141
   3 O1        4.6297    -8.8309    -5.2623  O.2     1  <O>11      -0.2758
   4 N1        2.7960    -9.8280    -4.4360  N.am    1  <O>11      -0.2857
   5 C3        1.4632   -10.1619    -4.6021  C.ar    1  <O>11       0.0334
   6 C4        1.1322   -11.3713    -5.2168  C.ar    1  <O>11      -0.0399
   7 C5       -0.2137   -11.7098    -5.3990  C.ar    1  <O>11      -0.0508
   8 C6       -1.2219   -10.8452    -4.9633  C.ar    1  <O>11       0.0006
   9 C7       -2.5947   -11.1827    -5.1474  C.ar    1  <O>11       0.0760
  10 C8       -2.9325   -12.4011    -5.7739  C.ar    1  <O>11      -0.0174
  11 C9       -4.2752   -12.6480    -5.9111  C.ar    1  <O>11       0.0332
  12 N2       -5.2354   -11.8047    -5.4861  N.ar    1  <O>11      -0.2226
  13 C10      -4.8332   -10.6657    -4.8995  C.ar    1  <O>11       0.2200
  14 N3       -5.7899    -9.7031    -4.4129  N.pl3   1  <O>11      -0.2836
  15 C11      -6.6642   -10.0448    -3.3056  C.ar    1  <O>11       0.0343
  16 C12      -7.5256    -9.0785    -2.7578  C.ar    1  <O>11      -0.0404
  17 C13      -8.3594    -9.4062    -1.6844  C.ar    1  <O>11      -0.0593
  18 C14      -8.3452   -10.6967    -1.1487  C.ar    1  <O>11      -0.0495
  19 C15      -7.4917   -11.6607    -1.6996  C.ar    1  <O>11       0.0382
  20 C16      -7.4805   -12.9960    -1.1428  C.2     1  <O>11       0.2416
  21 N4       -7.5633   -13.1725     0.2130  N.am    1  <O>11      -0.3253
  22 O2       -7.3979   -13.9648    -1.8817  O.2     1  <O>11      -0.2704
  23 C17      -6.6573   -11.3435    -2.7717  C.ar    1  <O>11      -0.0284
  24 N5       -3.5414   -10.3391    -4.7220  N.ar    1  <O>11      -0.2142
  25 C18      -0.8747    -9.6397    -4.3430  C.ar    1  <O>11      -0.0508
  26 C19       0.4647    -9.2940    -4.1552  C.ar    1  <O>11      -0.0399
  27 H1        1.7006    -9.0664    -6.6035  H       1  <O>11       0.0323
  28 H2        3.2247    -9.1590    -7.5183  H       1  <O>11       0.0323
  29 H3        2.7453    -7.6318    -6.7397  H       1  <O>11       0.0323
  30 H4        3.2899   -10.1071    -3.5877  H       1  <O>11       0.1548
  31 H5       -5.8518    -8.7821    -4.8468  H       1  <O>11       0.1550
  32 H6       -7.6322   -12.3627     0.8297  H       1  <O>11       0.1453
  33 H7       -7.5537   -14.1141     0.6058  H       1  <O>11       0.1453
  34 H8        1.8760   -12.0121    -5.5351  H       1  <O>11       0.0636
  35 H9       -0.4625   -12.6007    -5.8566  H       1  <O>11       0.0625
  36 H10      -2.2154   -13.0640    -6.1076  H       1  <O>11       0.0654
  37 H11      -4.5652   -13.5284    -6.3649  H       1  <O>11       0.0831
  38 H12      -7.5427    -8.1238    -3.1493  H       1  <O>11       0.0636
  39 H13      -8.9883    -8.6917    -1.2858  H       1  <O>11       0.0618
  40 H14      -8.9582   -10.9372    -0.3541  H       1  <O>11       0.0625
  41 H15      -6.0352   -12.0630    -3.1722  H       1  <O>11       0.0644
  42 H16      -1.6170    -8.9993    -4.0208  H       1  <O>11       0.0625
  43 H17       0.7142    -8.4067    -3.6910  H       1  <O>11       0.0636
@<TRIPOS>BOND
     1     1     2    1
     2     2     3    2
     3     2     4   am
     4     4     5    1
     5     5     6   ar
     6     6     7   ar
     7     7     8   ar
     8     8     9    1
     9     9    10   ar
    10    10    11   ar
    11    11    12   ar
    12    12    13   ar
    13    13    14    1
    14    14    15    1
    15    15    16   ar
    16    16    17   ar
    17    17    18   ar
    18    18    19   ar
    19    19    20    1
    20    20    21   am
    21    20    22    2
    22    19    23   ar
    23    15    23   ar
    24    13    24   ar
    25     9    24   ar
    26     8    25   ar
    27    25    26   ar
    28     5    26   ar
    29     1    27    1
    30     1    28    1
    31     1    29    1
    32     4    30    1
    33    14    31    1
    34    21    32    1
    35    21    33    1
    36     6    34    1
    37     7    35    1
    38    10    36    1
    39    11    37    1
    40    16    38    1
    41    17    39    1
    42    18    40    1
    43    23    41    1
    44    25    42    1
    45    26    43    1
@<TRIPOS>MOLECULE
mol63_1_18
 43 45 0 0 0
SMALL
USER_CHARGES
****
VDW energy = -196.02
@<TRIPOS>ATOM
   1 C1        2.7323    -8.7181    -6.6515  C.3     1  <O>11       0.0125
   2 C2        3.4528    -9.1250    -5.4100  C.2     1  <O>11       0.2141
   3 O1        4.6297    -8.8309    -5.2623  O.2     1  <O>11      -0.2758
   4 N1        2.7960    -9.8280    -4.4360  N.am    1  <O>11      -0.2857
   5 C3        1.4632   -10.1619    -4.6021  C.ar    1  <O>11       0.0334
   6 C4        1.1322   -11.3713    -5.2168  C.ar    1  <O>11      -0.0399
   7 C5       -0.2137   -11.7098    -5.3990  C.ar    1  <O>11      -0.0508
   8 C6       -1.2219   -10.8452    -4.9633  C.ar    1  <O>11       0.0006
   9 C7       -2.5947   -11.1827    -5.1474  C.ar    1  <O>11       0.0760
  10 C8       -2.9325   -12.4011    -5.7739  C.ar    1  <O>11      -0.0174
  11 C9       -4.2752   -12.6480    -5.9111  C.ar    1  <O>11       0.0332
  12 N2       -5.2354   -11.8047    -5.4861  N.ar    1  <O>11      -0.2226
  13 C10      -4.8332   -10.6657    -4.8995  C.ar    1  <O>11       0.2200
  14 N3       -5.7899    -9.7031    -4.4129  N.pl3   1  <O>11      -0.2836
  15 C11      -6.6498    -8.9987    -5.3465  C.ar    1  <O>11       0.0343
  16 C12      -7.6171    -9.6998    -6.0872  C.ar    1  <O>11      -0.0404
  17 C13      -8.4374    -9.0216    -6.9938  C.ar    1  <O>11      -0.0593
  18 C14      -8.3043    -7.6418    -7.1697  C.ar    1  <O>11      -0.0495
  19 C15      -7.3450    -6.9430    -6.4261  C.ar    1  <O>11       0.0382
  20 C16      -7.2108    -5.5143    -6.6104  C.2     1  <O>11       0.2416
  21 N4       -6.4124    -4.7879    -5.7673  N.am    1  <O>11      -0.3253
  22 O2       -7.8087    -4.9570    -7.5178  O.2     1  <O>11      -0.2704
  23 C17      -6.5231    -7.6108    -5.5180  C.ar    1  <O>11      -0.0284
  24 N5       -3.5414   -10.3391    -4.7220  N.ar    1  <O>11      -0.2142
  25 C18      -0.8747    -9.6397    -4.3430  C.ar    1  <O>11      -0.0508
  26 C19       0.4647    -9.2940    -4.1552  C.ar    1  <O>11      -0.0399
  27 H1        1.7006    -9.0664    -6.6035  H       1  <O>11       0.0323
  28 H2        3.2247    -9.1590    -7.5183  H       1  <O>11       0.0323
  29 H3        2.7453    -7.6318    -6.7397  H       1  <O>11       0.0323
  30 H4        3.2899   -10.1071    -3.5877  H       1  <O>11       0.1548
  31 H5       -5.8622    -9.5175    -3.4125  H       1  <O>11       0.1550
  32 H6       -5.9132    -5.2540    -5.0094  H       1  <O>11       0.1453
  33 H7       -6.3190    -3.7801    -5.8962  H       1  <O>11       0.1453
  34 H8        1.8760   -12.0121    -5.5351  H       1  <O>11       0.0636
  35 H9       -0.4625   -12.6007    -5.8566  H       1  <O>11       0.0625
  36 H10      -2.2154   -13.0640    -6.1076  H       1  <O>11       0.0654
  37 H11      -4.5652   -13.5284    -6.3649  H       1  <O>11       0.0831
  38 H12      -7.7222   -10.7187    -5.9614  H       1  <O>11       0.0636
  39 H13      -9.1445    -9.5425    -7.5357  H       1  <O>11       0.0618
  40 H14      -8.9075    -7.1421    -7.8416  H       1  <O>11       0.0625
  41 H15      -5.8222    -7.0851    -4.9727  H       1  <O>11       0.0644
  42 H16      -1.6170    -8.9993    -4.0208  H       1  <O>11       0.0625
  43 H17       0.7142    -8.4067    -3.6910  H       1  <O>11       0.0636
@<TRIPOS>BOND
     1     1     2    1
     2     2     3    2
     3     2     4   am
     4     4     5    1
     5     5     6   ar
     6     6     7   ar
     7     7     8   ar
     8     8     9    1
     9     9    10   ar
    10    10    11   ar
    11    11    12   ar
    12    12    13   ar
    13    13    14    1
    14    14    15    1
    15    15    16   ar
    16    16    17   ar
    17    17    18   ar
    18    18    19   ar
    19    19    20    1
    20    20    21   am
    21    20    22    2
    22    19    23   ar
    23    15    23   ar
    24    13    24   ar
    25     9    24   ar
    26     8    25   ar
    27    25    26   ar
    28     5    26   ar
    29     1    27    1
    30     1    28    1
    31     1    29    1
    32     4    30    1
    33    14    31    1
    34    21    32    1
    35    21    33    1
    36     6    34    1
    37     7    35    1
    38    10    36    1
    39    11    37    1
    40    16    38    1
    41    17    39    1
    42    18    40    1
    43    23    41    1
    44    25    42    1
    45    26    43    1
@<TRIPOS>MOLECULE
mol63_1_19
 43 45 0 0 0
SMALL
USER_CHARGES
****
VDW energy = -195.92
@<TRIPOS>ATOM
   1 C1        2.7323    -8.7181    -6.6515  C.3     1  <O>11       0.0125
   2 C2        3.4528    -9.1250    -5.4100  C.2     1  <O>11       0.2141
   3 O1        4.6297    -8.8309    -5.2623  O.2     1  <O>11      -0.2758
   4 N1        2.7960    -9.8280    -4.4360  N.am    1  <O>11      -0.2857
   5 C3        3.4640   -10.2050    -3.2840  C.ar    1  <O>11       0.0334
   6 C4        4.0169    -9.2217    -2.4608  C.ar    1  <O>11      -0.0399
   7 C5        4.7044    -9.5964    -1.3005  C.ar    1  <O>11      -0.0508
   8 C6        4.8325   -10.9469    -0.9637  C.ar    1  <O>11       0.0006
   9 C7        5.5330   -11.3358     0.2155  C.ar    1  <O>11       0.0760
  10 C8        6.0984   -10.3451     1.0461  C.ar    1  <O>11      -0.0174
  11 C9        6.7545   -10.8051     2.1599  C.ar    1  <O>11       0.0332
  12 N2        6.8698   -12.1103     2.4712  N.ar    1  <O>11      -0.2226
  13 C10       6.3043   -12.9918     1.6306  C.ar    1  <O>11       0.2200
  14 N3        6.3763   -14.4094     1.8826  N.pl3   1  <O>11      -0.2836
  15 C11       5.7043   -14.9764     3.0377  C.ar    1  <O>11       0.0343
  16 C12       5.6819   -16.3682     3.2328  C.ar    1  <O>11      -0.0404
  17 C13       5.0250   -16.9133     4.3402  C.ar    1  <O>11      -0.0593
  18 C14       4.3876   -16.0798     5.2629  C.ar    1  <O>11      -0.0495
  19 C15       4.4165   -14.6928     5.0715  C.ar    1  <O>11       0.0382
  20 C16       3.7561   -13.8330     6.0294  C.2     1  <O>11       0.2416
  21 N4        3.9272   -12.4757     5.9623  N.am    1  <O>11      -0.3253
  22 O2        3.0461   -14.3176     6.8969  O.2     1  <O>11      -0.2704
  23 C17       5.0706   -14.1395     3.9704  C.ar    1  <O>11      -0.0284
  24 N5        5.6424   -12.6344     0.5166  N.ar    1  <O>11      -0.2142
  25 C18       4.2673   -11.9206    -1.7951  C.ar    1  <O>11      -0.0508
  26 C19       3.5784   -11.5568    -2.9534  C.ar    1  <O>11      -0.0399
  27 H1        1.7006    -9.0664    -6.6035  H       1  <O>11       0.0323
  28 H2        3.2247    -9.1590    -7.5183  H       1  <O>11       0.0323
  29 H3        2.7453    -7.6318    -6.7397  H       1  <O>11       0.0323
  30 H4        1.8130   -10.0730    -4.5590  H       1  <O>11       0.1548
  31 H5        6.8994   -15.0137     1.2489  H       1  <O>11       0.1550
  32 H6        4.5205   -12.0714     5.2374  H       1  <O>11       0.1453
  33 H7        3.4627   -11.8694     6.6389  H       1  <O>11       0.1453
  34 H8        3.9192    -8.2241    -2.7066  H       1  <O>11       0.0636
  35 H9        5.1180    -8.8731    -0.6917  H       1  <O>11       0.0625
  36 H10       6.0232    -9.3388     0.8296  H       1  <O>11       0.0654
  37 H11       7.1831   -10.1128     2.7940  H       1  <O>11       0.0831
  38 H12       6.1518   -16.9899     2.5564  H       1  <O>11       0.0636
  39 H13       5.0109   -17.9361     4.4768  H       1  <O>11       0.0618
  40 H14       3.9000   -16.4828     6.0782  H       1  <O>11       0.0625
  41 H15       5.0888   -13.1158     3.8415  H       1  <O>11       0.0644
  42 H16       4.3609   -12.9185    -1.5491  H       1  <O>11       0.0625
  43 H17       3.1581   -12.2792    -3.5589  H       1  <O>11       0.0636
@<TRIPOS>BOND
     1     1     2    1
     2     2     3    2
     3     2     4   am
     4     4     5    1
     5     5     6   ar
     6     6     7   ar
     7     7     8   ar
     8     8     9    1
     9     9    10   ar
    10    10    11   ar
    11    11    12   ar
    12    12    13   ar
    13    13    14    1
    14    14    15    1
    15    15    16   ar
    16    16    17   ar
    17    17    18   ar
    18    18    19   ar
    19    19    20    1
    20    20    21   am
    21    20    22    2
    22    19    23   ar
    23    15    23   ar
    24    13    24   ar
    25     9    24   ar
    26     8    25   ar
    27    25    26   ar
    28     5    26   ar
    29     1    27    1
    30     1    28    1
    31     1    29    1
    32     4    30    1
    33    14    31    1
    34    21    32    1
    35    21    33    1
    36     6    34    1
    37     7    35    1
    38    10    36    1
    39    11    37    1
    40    16    38    1
    41    17    39    1
    42    18    40    1
    43    23    41    1
    44    25    42    1
    45    26    43    1
@<TRIPOS>MOLECULE
mol63_1_20
 43 45 0 0 0
SMALL
USER_CHARGES
****
VDW energy = -193.87
@<TRIPOS>ATOM
   1 C1        2.7323    -8.7181    -6.6515  C.3     1  <O>11       0.0125
   2 C2        3.4528    -9.1250    -5.4100  C.2     1  <O>11       0.2141
   3 O1        4.6297    -8.8309    -5.2623  O.2     1  <O>11      -0.2758
   4 N1        2.7960    -9.8280    -4.4360  N.am    1  <O>11      -0.2857
   5 C3        1.4632   -10.1619    -4.6021  C.ar    1  <O>11       0.0334
   6 C4        1.1322   -11.3713    -5.2168  C.ar    1  <O>11      -0.0399
   7 C5       -0.2137   -11.7098    -5.3990  C.ar    1  <O>11      -0.0508
   8 C6       -1.2219   -10.8452    -4.9633  C.ar    1  <O>11       0.0006
   9 C7       -2.5947   -11.1827    -5.1474  C.ar    1  <O>11       0.0760
  10 C8       -2.9325   -12.4011    -5.7739  C.ar    1  <O>11      -0.0174
  11 C9       -4.2752   -12.6480    -5.9111  C.ar    1  <O>11       0.0332
  12 N2       -5.2354   -11.8047    -5.4861  N.ar    1  <O>11      -0.2226
  13 C10      -4.8332   -10.6657    -4.8995  C.ar    1  <O>11       0.2200
  14 N3       -5.7899    -9.7031    -4.4129  N.pl3   1  <O>11      -0.2836
  15 C11      -6.6498    -8.9987    -5.3465  C.ar    1  <O>11       0.0343
  16 C12      -7.6551    -8.1375    -4.8735  C.ar    1  <O>11      -0.0404
  17 C13      -8.4894    -7.4681    -5.7738  C.ar    1  <O>11      -0.0593
  18 C14      -8.3300    -7.6475    -7.1503  C.ar    1  <O>11      -0.0495
  19 C15      -7.3236    -8.5002    -7.6208  C.ar    1  <O>11       0.0382
  20 C16      -7.1611    -8.6827    -9.0467  C.2     1  <O>11       0.2416
  21 N4       -6.0745    -9.3625    -9.5299  N.am    1  <O>11      -0.3253
  22 O2       -7.9929    -8.2315    -9.8187  O.2     1  <O>11      -0.2704
  23 C17      -6.4853    -9.1713    -6.7303  C.ar    1  <O>11      -0.0284
  24 N5       -3.5414   -10.3391    -4.7220  N.ar    1  <O>11      -0.2142
  25 C18      -0.8747    -9.6397    -4.3430  C.ar    1  <O>11      -0.0508
  26 C19       0.4647    -9.2940    -4.1552  C.ar    1  <O>11      -0.0399
  27 H1        1.7006    -9.0664    -6.6035  H       1  <O>11       0.0323
  28 H2        3.2247    -9.1590    -7.5183  H       1  <O>11       0.0323
  29 H3        2.7453    -7.6318    -6.7397  H       1  <O>11       0.0323
  30 H4        3.2899   -10.1071    -3.5877  H       1  <O>11       0.1548
  31 H5       -5.8622    -9.5175    -3.4125  H       1  <O>11       0.1550
  32 H6       -5.3800    -9.7392    -8.8846  H       1  <O>11       0.1453
  33 H7       -5.9591    -9.4898   -10.5357  H       1  <O>11       0.1453
  34 H8        1.8760   -12.0121    -5.5351  H       1  <O>11       0.0636
  35 H9       -0.4625   -12.6007    -5.8566  H       1  <O>11       0.0625
  36 H10      -2.2154   -13.0640    -6.1076  H       1  <O>11       0.0654
  37 H11      -4.5652   -13.5284    -6.3649  H       1  <O>11       0.0831
  38 H12      -7.7777    -7.9989    -3.8583  H       1  <O>11       0.0636
  39 H13      -9.2266    -6.8385    -5.4200  H       1  <O>11       0.0618
  40 H14      -8.9483    -7.1559    -7.8144  H       1  <O>11       0.0625
  41 H15      -5.7445    -9.7943    -7.0884  H       1  <O>11       0.0644
  42 H16      -1.6170    -8.9993    -4.0208  H       1  <O>11       0.0625
  43 H17       0.7142    -8.4067    -3.6910  H       1  <O>11       0.0636
@<TRIPOS>BOND
     1     1     2    1
     2     2     3    2
     3     2     4   am
     4     4     5    1
     5     5     6   ar
     6     6     7   ar
     7     7     8   ar
     8     8     9    1
     9     9    10   ar
    10    10    11   ar
    11    11    12   ar
    12    12    13   ar
    13    13    14    1
    14    14    15    1
    15    15    16   ar
    16    16    17   ar
    17    17    18   ar
    18    18    19   ar
    19    19    20    1
    20    20    21   am
    21    20    22    2
    22    19    23   ar
    23    15    23   ar
    24    13    24   ar
    25     9    24   ar
    26     8    25   ar
    27    25    26   ar
    28     5    26   ar
    29     1    27    1
    30     1    28    1
    31     1    29    1
    32     4    30    1
    33    14    31    1
    34    21    32    1
    35    21    33    1
    36     6    34    1
    37     7    35    1
    38    10    36    1
    39    11    37    1
    40    16    38    1
    41    17    39    1
    42    18    40    1
    43    23    41    1
    44    25    42    1
    45    26    43    1
@<TRIPOS>MOLECULE
mol63_1_21
 43 45 0 0 0
SMALL
USER_CHARGES
****
VDW energy = -193.73
@<TRIPOS>ATOM
   1 C1        2.7323    -8.7181    -6.6515  C.3     1  <O>11       0.0125
   2 C2        3.4528    -9.1250    -5.4100  C.2     1  <O>11       0.2141
   3 O1        4.6297    -8.8309    -5.2623  O.2     1  <O>11      -0.2758
   4 N1        2.7960    -9.8280    -4.4360  N.am    1  <O>11      -0.2857
   5 C3        1.4632   -10.1619    -4.6021  C.ar    1  <O>11       0.0334
   6 C4        1.1322   -11.3713    -5.2168  C.ar    1  <O>11      -0.0399
   7 C5       -0.2137   -11.7098    -5.3990  C.ar    1  <O>11      -0.0508
   8 C6       -1.2219   -10.8452    -4.9633  C.ar    1  <O>11       0.0006
   9 C7       -2.5947   -11.1827    -5.1474  C.ar    1  <O>11       0.0760
  10 C8       -2.9325   -12.4011    -5.7739  C.ar    1  <O>11      -0.0174
  11 C9       -4.2752   -12.6480    -5.9111  C.ar    1  <O>11       0.0332
  12 N2       -5.2354   -11.8047    -5.4861  N.ar    1  <O>11      -0.2226
  13 C10      -4.8332   -10.6657    -4.8995  C.ar    1  <O>11       0.2200
  14 N3       -5.7899    -9.7031    -4.4129  N.pl3   1  <O>11      -0.2836
  15 C11      -6.6642   -10.0448    -3.3056  C.ar    1  <O>11       0.0343
  16 C12      -7.5256    -9.0785    -2.7578  C.ar    1  <O>11      -0.0404
  17 C13      -8.3594    -9.4062    -1.6844  C.ar    1  <O>11      -0.0593
  18 C14      -8.3452   -10.6967    -1.1487  C.ar    1  <O>11      -0.0495
  19 C15      -7.4917   -11.6607    -1.6996  C.ar    1  <O>11       0.0382
  20 C16      -7.4805   -12.9960    -1.1428  C.2     1  <O>11       0.2416
  21 N4       -6.7944   -13.9965    -1.7786  N.am    1  <O>11      -0.3253
  22 O2       -8.0820   -13.2301    -0.1060  O.2     1  <O>11      -0.2704
  23 C17      -6.6573   -11.3435    -2.7717  C.ar    1  <O>11      -0.0284
  24 N5       -3.5414   -10.3391    -4.7220  N.ar    1  <O>11      -0.2142
  25 C18      -0.8747    -9.6397    -4.3430  C.ar    1  <O>11      -0.0508
  26 C19       0.4647    -9.2940    -4.1552  C.ar    1  <O>11      -0.0399
  27 H1        1.7006    -9.0664    -6.6035  H       1  <O>11       0.0323
  28 H2        3.2247    -9.1590    -7.5183  H       1  <O>11       0.0323
  29 H3        2.7453    -7.6318    -6.7397  H       1  <O>11       0.0323
  30 H4        3.2899   -10.1071    -3.5877  H       1  <O>11       0.1548
  31 H5       -5.8518    -8.7821    -4.8468  H       1  <O>11       0.1550
  32 H6       -6.2921   -13.8003    -2.6447  H       1  <O>11       0.1453
  33 H7       -6.7878   -14.9386    -1.3868  H       1  <O>11       0.1453
  34 H8        1.8760   -12.0121    -5.5351  H       1  <O>11       0.0636
  35 H9       -0.4625   -12.6007    -5.8566  H       1  <O>11       0.0625
  36 H10      -2.2154   -13.0640    -6.1076  H       1  <O>11       0.0654
  37 H11      -4.5652   -13.5284    -6.3649  H       1  <O>11       0.0831
  38 H12      -7.5427    -8.1238    -3.1493  H       1  <O>11       0.0636
  39 H13      -8.9883    -8.6917    -1.2858  H       1  <O>11       0.0618
  40 H14      -8.9582   -10.9372    -0.3541  H       1  <O>11       0.0625
  41 H15      -6.0352   -12.0630    -3.1722  H       1  <O>11       0.0644
  42 H16      -1.6170    -8.9993    -4.0208  H       1  <O>11       0.0625
  43 H17       0.7142    -8.4067    -3.6910  H       1  <O>11       0.0636
@<TRIPOS>BOND
     1     1     2    1
     2     2     3    2
     3     2     4   am
     4     4     5    1
     5     5     6   ar
     6     6     7   ar
     7     7     8   ar
     8     8     9    1
     9     9    10   ar
    10    10    11   ar
    11    11    12   ar
    12    12    13   ar
    13    13    14    1
    14    14    15    1
    15    15    16   ar
    16    16    17   ar
    17    17    18   ar
    18    18    19   ar
    19    19    20    1
    20    20    21   am
    21    20    22    2
    22    19    23   ar
    23    15    23   ar
    24    13    24   ar
    25     9    24   ar
    26     8    25   ar
    27    25    26   ar
    28     5    26   ar
    29     1    27    1
    30     1    28    1
    31     1    29    1
    32     4    30    1
    33    14    31    1
    34    21    32    1
    35    21    33    1
    36     6    34    1
    37     7    35    1
    38    10    36    1
    39    11    37    1
    40    16    38    1
    41    17    39    1
    42    18    40    1
    43    23    41    1
    44    25    42    1
    45    26    43    1
@<TRIPOS>MOLECULE
mol63_1_22
 43 45 0 0 0
SMALL
USER_CHARGES
****
VDW energy = -193.28
@<TRIPOS>ATOM
   1 C1        2.7323    -8.7181    -6.6515  C.3     1  <O>11       0.0125
   2 C2        3.4528    -9.1250    -5.4100  C.2     1  <O>11       0.2141
   3 O1        4.6297    -8.8309    -5.2623  O.2     1  <O>11      -0.2758
   4 N1        2.7960    -9.8280    -4.4360  N.am    1  <O>11      -0.2857
   5 C3        1.4632   -10.1619    -4.6021  C.ar    1  <O>11       0.0334
   6 C4        0.5186    -9.1463    -4.7654  C.ar    1  <O>11      -0.0399
   7 C5       -0.8327    -9.4762    -4.9216  C.ar    1  <O>11      -0.0508
   8 C6       -1.2349   -10.8149    -4.9200  C.ar    1  <O>11       0.0006
   9 C7       -2.6097   -11.1580    -5.0768  C.ar    1  <O>11       0.0760
  10 C8       -3.5674   -10.1340    -5.2356  C.ar    1  <O>11      -0.0174
  11 C9       -4.8667   -10.5510    -5.3803  C.ar    1  <O>11       0.0332
  12 N2       -5.2389   -11.8453    -5.3766  N.ar    1  <O>11      -0.2226
  13 C10      -4.2685   -12.7603    -5.2207  C.ar    1  <O>11       0.2200
  14 N3       -4.5724   -14.1695    -5.2045  N.pl3   1  <O>11      -0.2836
  15 C11      -5.0836   -14.8155    -6.3997  C.ar    1  <O>11       0.0343
  16 C12      -5.2833   -16.2067    -6.4238  C.ar    1  <O>11      -0.0404
  17 C13      -5.7656   -16.8288    -7.5793  C.ar    1  <O>11      -0.0593
  18 C14      -6.0551   -16.0734    -8.7185  C.ar    1  <O>11      -0.0495
  19 C15      -5.8626   -14.6865    -8.6914  C.ar    1  <O>11       0.0382
  20 C16      -6.1643   -13.9076    -9.8726  C.2     1  <O>11       0.2416
  21 N4       -5.1931   -13.6865   -10.8128  N.am    1  <O>11      -0.3253
  22 O2       -7.2848   -13.4484   -10.0313  O.2     1  <O>11      -0.2704
  23 C17      -5.3832   -14.0566    -7.5426  C.ar    1  <O>11      -0.0284
  24 N5       -2.9700   -12.4460    -5.0719  N.ar    1  <O>11      -0.2142
  25 C18      -0.2759   -11.8218    -4.7621  C.ar    1  <O>11      -0.0508
  26 C19       1.0743   -11.5030    -4.6072  C.ar    1  <O>11      -0.0399
  27 H1        1.7006    -9.0664    -6.6035  H       1  <O>11       0.0323
  28 H2        3.2247    -9.1590    -7.5183  H       1  <O>11       0.0323
  29 H3        2.7453    -7.6318    -6.7397  H       1  <O>11       0.0323
  30 H4        3.2899   -10.1071    -3.5877  H       1  <O>11       0.1548
  31 H5       -4.4279   -14.7122    -4.3530  H       1  <O>11       0.1550
  32 H6       -4.2572   -14.0703   -10.6796  H       1  <O>11       0.1453
  33 H7       -5.4054   -13.1358   -11.6450  H       1  <O>11       0.1453
  34 H8        0.8153    -8.1578    -4.7708  H       1  <O>11       0.0636
  35 H9       -1.5344    -8.7286    -5.0384  H       1  <O>11       0.0625
  36 H10      -3.3073    -9.1354    -5.2425  H       1  <O>11       0.0654
  37 H11      -5.5988    -9.8333    -5.4986  H       1  <O>11       0.0831
  38 H12      -5.0731   -16.7709    -5.5856  H       1  <O>11       0.0636
  39 H13      -5.9084   -17.8508    -7.5909  H       1  <O>11       0.0618
  40 H14      -6.4078   -16.5334    -9.5723  H       1  <O>11       0.0625
  41 H15      -5.2488   -13.0335    -7.5327  H       1  <O>11       0.0644
  42 H16      -0.5701   -12.8110    -4.7600  H       1  <O>11       0.0625
  43 H17       1.7775   -12.2504    -4.4978  H       1  <O>11       0.0636
@<TRIPOS>BOND
     1     1     2    1
     2     2     3    2
     3     2     4   am
     4     4     5    1
     5     5     6   ar
     6     6     7   ar
     7     7     8   ar
     8     8     9    1
     9     9    10   ar
    10    10    11   ar
    11    11    12   ar
    12    12    13   ar
    13    13    14    1
    14    14    15    1
    15    15    16   ar
    16    16    17   ar
    17    17    18   ar
    18    18    19   ar
    19    19    20    1
    20    20    21   am
    21    20    22    2
    22    19    23   ar
    23    15    23   ar
    24    13    24   ar
    25     9    24   ar
    26     8    25   ar
    27    25    26   ar
    28     5    26   ar
    29     1    27    1
    30     1    28    1
    31     1    29    1
    32     4    30    1
    33    14    31    1
    34    21    32    1
    35    21    33    1
    36     6    34    1
    37     7    35    1
    38    10    36    1
    39    11    37    1
    40    16    38    1
    41    17    39    1
    42    18    40    1
    43    23    41    1
    44    25    42    1
    45    26    43    1
@<TRIPOS>MOLECULE
mol63_1_23
 43 45 0 0 0
SMALL
USER_CHARGES
****
VDW energy = -190.39
@<TRIPOS>ATOM
   1 C1        2.7323    -8.7181    -6.6515  C.3     1  <O>11       0.0125
   2 C2        3.4528    -9.1250    -5.4100  C.2     1  <O>11       0.2141
   3 O1        4.6297    -8.8309    -5.2623  O.2     1  <O>11      -0.2758
   4 N1        2.7960    -9.8280    -4.4360  N.am    1  <O>11      -0.2857
   5 C3        1.4632   -10.1619    -4.6021  C.ar    1  <O>11       0.0334
   6 C4        1.0867   -10.9552    -5.6879  C.ar    1  <O>11      -0.0399
   7 C5       -0.2612   -11.2866    -5.8689  C.ar    1  <O>11      -0.0508
   8 C6       -1.2252   -10.8311    -4.9651  C.ar    1  <O>11       0.0006
   9 C7       -2.6000   -11.1632    -5.1443  C.ar    1  <O>11       0.0760
  10 C8       -2.9846   -11.9594    -6.2440  C.ar    1  <O>11      -0.0174
  11 C9       -4.3258   -12.2320    -6.3417  C.ar    1  <O>11       0.0332
  12 N2       -5.2432   -11.7856    -5.4626  N.ar    1  <O>11      -0.2226
  13 C10      -4.7979   -11.0338    -4.4428  C.ar    1  <O>11       0.2200
  14 N3       -5.7068   -10.5123    -3.4527  N.pl3   1  <O>11      -0.2836
  15 C11      -5.1947    -9.7578    -2.3232  C.ar    1  <O>11       0.0343
  16 C12      -4.5775    -8.5110    -2.5243  C.ar    1  <O>11      -0.0404
  17 C13      -4.0753    -7.7905    -1.4365  C.ar    1  <O>11      -0.0593
  18 C14      -4.1843    -8.3021    -0.1408  C.ar    1  <O>11      -0.0495
  19 C15      -4.8056    -9.5411     0.0594  C.ar    1  <O>11       0.0382
  20 C16      -4.9173   -10.0671     1.4025  C.2     1  <O>11       0.2416
  21 N4       -5.6783   -11.1810     1.6398  N.am    1  <O>11      -0.3253
  22 O2       -4.3327    -9.5183     2.3236  O.2     1  <O>11      -0.2704
  23 C17      -5.3111   -10.2667    -1.0196  C.ar    1  <O>11      -0.0284
  24 N5       -3.5039   -10.7155    -4.2661  N.ar    1  <O>11      -0.2142
  25 C18      -0.8318   -10.0424    -3.8780  C.ar    1  <O>11      -0.0508
  26 C19       0.5102    -9.7080    -3.6880  C.ar    1  <O>11      -0.0399
  27 H1        1.7006    -9.0664    -6.6035  H       1  <O>11       0.0323
  28 H2        3.2247    -9.1590    -7.5183  H       1  <O>11       0.0323
  29 H3        2.7453    -7.6318    -6.7397  H       1  <O>11       0.0323
  30 H4        3.2899   -10.1071    -3.5877  H       1  <O>11       0.1548
  31 H5       -6.7096   -10.6736    -3.5463  H       1  <O>11       0.1550
  32 H6       -6.1665   -11.6390     0.8699  H       1  <O>11       0.1453
  33 H7       -5.7584   -11.5510     2.5873  H       1  <O>11       0.1453
  34 H8        1.7984   -11.2954    -6.3534  H       1  <O>11       0.0636
  35 H9       -0.5441   -11.8692    -6.6723  H       1  <O>11       0.0625
  36 H10      -2.3008   -12.3140    -6.9308  H       1  <O>11       0.0654
  37 H11      -4.6493   -12.8109    -7.1324  H       1  <O>11       0.0831
  38 H12      -4.4949    -8.1261    -3.4782  H       1  <O>11       0.0636
  39 H13      -3.6219    -6.8764    -1.5912  H       1  <O>11       0.0618
  40 H14      -3.8103    -7.7715     0.6614  H       1  <O>11       0.0625
  41 H15      -5.7704   -11.1769    -0.8598  H       1  <O>11       0.0644
  42 H16      -1.5415    -9.7043    -3.2094  H       1  <O>11       0.0625
  43 H17       0.7948    -9.1316    -2.8806  H       1  <O>11       0.0636
@<TRIPOS>BOND
     1     1     2    1
     2     2     3    2
     3     2     4   am
     4     4     5    1
     5     5     6   ar
     6     6     7   ar
     7     7     8   ar
     8     8     9    1
     9     9    10   ar
    10    10    11   ar
    11    11    12   ar
    12    12    13   ar
    13    13    14    1
    14    14    15    1
    15    15    16   ar
    16    16    17   ar
    17    17    18   ar
    18    18    19   ar
    19    19    20    1
    20    20    21   am
    21    20    22    2
    22    19    23   ar
    23    15    23   ar
    24    13    24   ar
    25     9    24   ar
    26     8    25   ar
    27    25    26   ar
    28     5    26   ar
    29     1    27    1
    30     1    28    1
    31     1    29    1
    32     4    30    1
    33    14    31    1
    34    21    32    1
    35    21    33    1
    36     6    34    1
    37     7    35    1
    38    10    36    1
    39    11    37    1
    40    16    38    1
    41    17    39    1
    42    18    40    1
    43    23    41    1
    44    25    42    1
    45    26    43    1
@<TRIPOS>MOLECULE
mol63_1_24
 43 45 0 0 0
SMALL
USER_CHARGES
****
VDW energy = -190.33
@<TRIPOS>ATOM
   1 C1        2.7323    -8.7181    -6.6515  C.3     1  <O>11       0.0125
   2 C2        3.4528    -9.1250    -5.4100  C.2     1  <O>11       0.2141
   3 O1        4.6297    -8.8309    -5.2623  O.2     1  <O>11      -0.2758
   4 N1        2.7960    -9.8280    -4.4360  N.am    1  <O>11      -0.2857
   5 C3        1.4632   -10.1619    -4.6021  C.ar    1  <O>11       0.0334
   6 C4        0.5186    -9.1463    -4.7654  C.ar    1  <O>11      -0.0399
   7 C5       -0.8327    -9.4762    -4.9216  C.ar    1  <O>11      -0.0508
   8 C6       -1.2349   -10.8149    -4.9200  C.ar    1  <O>11       0.0006
   9 C7       -2.6097   -11.1580    -5.0768  C.ar    1  <O>11       0.0760
  10 C8       -3.5674   -10.1340    -5.2356  C.ar    1  <O>11      -0.0174
  11 C9       -4.8667   -10.5510    -5.3803  C.ar    1  <O>11       0.0332
  12 N2       -5.2389   -11.8453    -5.3766  N.ar    1  <O>11      -0.2226
  13 C10      -4.2685   -12.7603    -5.2207  C.ar    1  <O>11       0.2200
  14 N3       -4.5724   -14.1695    -5.2045  N.pl3   1  <O>11      -0.2836
  15 C11      -3.4998   -15.1422    -5.1010  C.ar    1  <O>11       0.0343
  16 C12      -2.7219   -15.2185    -3.9328  C.ar    1  <O>11      -0.0404
  17 C13      -1.6823   -16.1487    -3.8388  C.ar    1  <O>11      -0.0593
  18 C14      -1.4093   -17.0112    -4.9037  C.ar    1  <O>11      -0.0495
  19 C15      -2.1894   -16.9392    -6.0645  C.ar    1  <O>11       0.0382
  20 C16      -1.9042   -17.8345    -7.1646  C.2     1  <O>11       0.2416
  21 N4       -2.7639   -17.9066    -8.2284  N.am    1  <O>11      -0.3253
  22 O2       -0.8969   -18.5248    -7.1446  O.2     1  <O>11      -0.2704
  23 C17      -3.2297   -16.0154    -6.1670  C.ar    1  <O>11      -0.0284
  24 N5       -2.9700   -12.4460    -5.0719  N.ar    1  <O>11      -0.2142
  25 C18      -0.2759   -11.8218    -4.7621  C.ar    1  <O>11      -0.0508
  26 C19       1.0743   -11.5030    -4.6072  C.ar    1  <O>11      -0.0399
  27 H1        1.7006    -9.0664    -6.6035  H       1  <O>11       0.0323
  28 H2        3.2247    -9.1590    -7.5183  H       1  <O>11       0.0323
  29 H3        2.7453    -7.6318    -6.7397  H       1  <O>11       0.0323
  30 H4        3.2899   -10.1071    -3.5877  H       1  <O>11       0.1548
  31 H5       -5.5413   -14.4826    -5.2655  H       1  <O>11       0.1550
  32 H6       -3.6052   -17.3298    -8.2446  H       1  <O>11       0.1453
  33 H7       -2.5636   -18.5393    -9.0035  H       1  <O>11       0.1453
  34 H8        0.8153    -8.1578    -4.7708  H       1  <O>11       0.0636
  35 H9       -1.5344    -8.7286    -5.0384  H       1  <O>11       0.0625
  36 H10      -3.3073    -9.1354    -5.2425  H       1  <O>11       0.0654
  37 H11      -5.5988    -9.8333    -5.4986  H       1  <O>11       0.0831
  38 H12      -2.9188   -14.5858    -3.1416  H       1  <O>11       0.0636
  39 H13      -1.1139   -16.1985    -2.9789  H       1  <O>11       0.0618
  40 H14      -0.6396   -17.6953    -4.8353  H       1  <O>11       0.0625
  41 H15      -3.8005   -15.9739    -7.0257  H       1  <O>11       0.0644
  42 H16      -0.5701   -12.8110    -4.7600  H       1  <O>11       0.0625
  43 H17       1.7775   -12.2504    -4.4978  H       1  <O>11       0.0636
@<TRIPOS>BOND
     1     1     2    1
     2     2     3    2
     3     2     4   am
     4     4     5    1
     5     5     6   ar
     6     6     7   ar
     7     7     8   ar
     8     8     9    1
     9     9    10   ar
    10    10    11   ar
    11    11    12   ar
    12    12    13   ar
    13    13    14    1
    14    14    15    1
    15    15    16   ar
    16    16    17   ar
    17    17    18   ar
    18    18    19   ar
    19    19    20    1
    20    20    21   am
    21    20    22    2
    22    19    23   ar
    23    15    23   ar
    24    13    24   ar
    25     9    24   ar
    26     8    25   ar
    27    25    26   ar
    28     5    26   ar
    29     1    27    1
    30     1    28    1
    31     1    29    1
    32     4    30    1
    33    14    31    1
    34    21    32    1
    35    21    33    1
    36     6    34    1
    37     7    35    1
    38    10    36    1
    39    11    37    1
    40    16    38    1
    41    17    39    1
    42    18    40    1
    43    23    41    1
    44    25    42    1
    45    26    43    1
@<TRIPOS>MOLECULE
mol63_1_25
 43 45 0 0 0
SMALL
USER_CHARGES
****
VDW energy = -185.92
@<TRIPOS>ATOM
   1 C1        2.7323    -8.7181    -6.6515  C.3     1  <O>11       0.0125
   2 C2        3.4528    -9.1250    -5.4100  C.2     1  <O>11       0.2141
   3 O1        4.6297    -8.8309    -5.2623  O.2     1  <O>11      -0.2758
   4 N1        2.7960    -9.8280    -4.4360  N.am    1  <O>11      -0.2857
   5 C3        3.4640   -10.2050    -3.2840  C.ar    1  <O>11       0.0334
   6 C4        2.7595   -10.8479    -2.2639  C.ar    1  <O>11      -0.0399
   7 C5        3.4261   -11.2211    -1.0910  C.ar    1  <O>11      -0.0508
   8 C6        4.7908   -10.9572    -0.9428  C.ar    1  <O>11       0.0006
   9 C7        5.4756   -11.3328     0.2498  C.ar    1  <O>11       0.0760
  10 C8        6.0752   -12.6073     0.3344  C.ar    1  <O>11      -0.0174
  11 C9        6.7136   -12.8878     1.5161  C.ar    1  <O>11       0.0332
  12 N2        6.7834   -12.0259     2.5485  N.ar    1  <O>11      -0.2226
  13 C10       6.1879   -10.8327     2.3904  C.ar    1  <O>11       0.2200
  14 N3        6.2114    -9.8461     3.4413  N.pl3   1  <O>11      -0.2836
  15 C11       5.6182    -8.5392     3.2233  C.ar    1  <O>11       0.0343
  16 C12       6.3921    -7.4867     2.7045  C.ar    1  <O>11      -0.0404
  17 C13       5.8222    -6.2257     2.5051  C.ar    1  <O>11      -0.0593
  18 C14       4.4788    -6.0015     2.8176  C.ar    1  <O>11      -0.0495
  19 C15       3.7067    -7.0525     3.3279  C.ar    1  <O>11       0.0382
  20 C16       2.3160    -6.8167     3.6494  C.2     1  <O>11       0.2416
  21 N4        1.5473    -6.0344     2.8289  N.am    1  <O>11      -0.3253
  22 O2        1.8280    -7.3158     4.6515  O.2     1  <O>11      -0.2704
  23 C17       4.2662    -8.3146     3.5288  C.ar    1  <O>11      -0.0284
  24 N5        5.5399   -10.4701     1.2698  N.ar    1  <O>11      -0.2142
  25 C18       5.4847   -10.3182    -1.9766  C.ar    1  <O>11      -0.0508
  26 C19       4.8292    -9.9437    -3.1508  C.ar    1  <O>11      -0.0399
  27 H1        1.7006    -9.0664    -6.6035  H       1  <O>11       0.0323
  28 H2        3.2247    -9.1590    -7.5183  H       1  <O>11       0.0323
  29 H3        2.7453    -7.6318    -6.7397  H       1  <O>11       0.0323
  30 H4        1.8130   -10.0730    -4.5590  H       1  <O>11       0.1548
  31 H5        6.6446   -10.0668     4.3380  H       1  <O>11       0.1550
  32 H6        1.9555    -5.6177     1.9920  H       1  <O>11       0.1453
  33 H7        0.5669    -5.8667     3.0566  H       1  <O>11       0.1453
  34 H8        1.7529   -11.0468    -2.3742  H       1  <O>11       0.0636
  35 H9        2.9083   -11.6926    -0.3330  H       1  <O>11       0.0625
  36 H10       6.0361   -13.2851    -0.4429  H       1  <O>11       0.0654
  37 H11       7.1651   -13.8101     1.6194  H       1  <O>11       0.0831
  38 H12       7.3845    -7.6453     2.4699  H       1  <O>11       0.0636
  39 H13       6.3963    -5.4568     2.1253  H       1  <O>11       0.0618
  40 H14       4.0594    -5.0696     2.6735  H       1  <O>11       0.0625
  41 H15       3.6867    -9.0828     3.9018  H       1  <O>11       0.0644
  42 H16       6.4922   -10.1217    -1.8697  H       1  <O>11       0.0625
  43 H17       5.3480    -9.4787    -3.9123  H       1  <O>11       0.0636
@<TRIPOS>BOND
     1     1     2    1
     2     2     3    2
     3     2     4   am
     4     4     5    1
     5     5     6   ar
     6     6     7   ar
     7     7     8   ar
     8     8     9    1
     9     9    10   ar
    10    10    11   ar
    11    11    12   ar
    12    12    13   ar
    13    13    14    1
    14    14    15    1
    15    15    16   ar
    16    16    17   ar
    17    17    18   ar
    18    18    19   ar
    19    19    20    1
    20    20    21   am
    21    20    22    2
    22    19    23   ar
    23    15    23   ar
    24    13    24   ar
    25     9    24   ar
    26     8    25   ar
    27    25    26   ar
    28     5    26   ar
    29     1    27    1
    30     1    28    1
    31     1    29    1
    32     4    30    1
    33    14    31    1
    34    21    32    1
    35    21    33    1
    36     6    34    1
    37     7    35    1
    38    10    36    1
    39    11    37    1
    40    16    38    1
    41    17    39    1
    42    18    40    1
    43    23    41    1
    44    25    42    1
    45    26    43    1
@<TRIPOS>MOLECULE
mol63_1_26
 43 45 0 0 0
SMALL
USER_CHARGES
****
VDW energy = -185.85
@<TRIPOS>ATOM
   1 C1        2.7323    -8.7181    -6.6515  C.3     1  <O>11       0.0125
   2 C2        3.4528    -9.1250    -5.4100  C.2     1  <O>11       0.2141
   3 O1        4.6297    -8.8309    -5.2623  O.2     1  <O>11      -0.2758
   4 N1        2.7960    -9.8280    -4.4360  N.am    1  <O>11      -0.2857
   5 C3        3.4640   -10.2050    -3.2840  C.ar    1  <O>11       0.0334
   6 C4        2.7595   -10.8479    -2.2639  C.ar    1  <O>11      -0.0399
   7 C5        3.4261   -11.2211    -1.0910  C.ar    1  <O>11      -0.0508
   8 C6        4.7908   -10.9572    -0.9428  C.ar    1  <O>11       0.0006
   9 C7        5.4756   -11.3328     0.2498  C.ar    1  <O>11       0.0760
  10 C8        5.5433   -10.4242     1.3273  C.ar    1  <O>11      -0.0174
  11 C9        6.2203   -10.8650     2.4364  C.ar    1  <O>11       0.0332
  12 N2        6.7943   -12.0801     2.5252  N.ar    1  <O>11      -0.2226
  13 C10       6.6859   -12.8872     1.4574  C.ar    1  <O>11       0.2200
  14 N3        7.2683   -14.2061     1.4614  N.pl3   1  <O>11      -0.2836
  15 C11       7.0816   -15.0853     0.3215  C.ar    1  <O>11       0.0343
  16 C12       5.9815   -15.9589     0.2723  C.ar    1  <O>11      -0.0404
  17 C13       5.8090   -16.8127    -0.8214  C.ar    1  <O>11      -0.0593
  18 C14       6.7268   -16.8036    -1.8749  C.ar    1  <O>11      -0.0495
  19 C15       7.8187   -15.9279    -1.8283  C.ar    1  <O>11       0.0382
  20 C16       8.7663   -15.9207    -2.9215  C.2     1  <O>11       0.2416
  21 N4        8.3228   -16.0383    -4.2121  N.am    1  <O>11      -0.3253
  22 O2        9.9608   -15.8091    -2.6932  O.2     1  <O>11      -0.2704
  23 C17       7.9984   -15.0712    -0.7420  C.ar    1  <O>11      -0.0284
  24 N5        6.0425   -12.5415     0.3289  N.ar    1  <O>11      -0.2142
  25 C18       5.4847   -10.3182    -1.9766  C.ar    1  <O>11      -0.0508
  26 C19       4.8292    -9.9437    -3.1508  C.ar    1  <O>11      -0.0399
  27 H1        1.7006    -9.0664    -6.6035  H       1  <O>11       0.0323
  28 H2        3.2247    -9.1590    -7.5183  H       1  <O>11       0.0323
  29 H3        2.7453    -7.6318    -6.7397  H       1  <O>11       0.0323
  30 H4        1.8130   -10.0730    -4.5590  H       1  <O>11       0.1548
  31 H5        7.8115   -14.5208     2.2653  H       1  <O>11       0.1550
  32 H6        7.3248   -16.1315    -4.4021  H       1  <O>11       0.1453
  33 H7        8.9912   -16.0348    -4.9829  H       1  <O>11       0.1453
  34 H8        1.7529   -11.0468    -2.3742  H       1  <O>11       0.0636
  35 H9        2.9083   -11.6926    -0.3330  H       1  <O>11       0.0625
  36 H10       5.1112    -9.4880     1.2839  H       1  <O>11       0.0654
  37 H11       6.2936   -10.2306     3.2470  H       1  <O>11       0.0831
  38 H12       5.2987   -15.9701     1.0460  H       1  <O>11       0.0636
  39 H13       5.0000   -17.4528    -0.8506  H       1  <O>11       0.0618
  40 H14       6.6010   -17.4364    -2.6803  H       1  <O>11       0.0625
  41 H15       8.8046   -14.4274    -0.7201  H       1  <O>11       0.0644
  42 H16       6.4922   -10.1217    -1.8697  H       1  <O>11       0.0625
  43 H17       5.3480    -9.4787    -3.9123  H       1  <O>11       0.0636
@<TRIPOS>BOND
     1     1     2    1
     2     2     3    2
     3     2     4   am
     4     4     5    1
     5     5     6   ar
     6     6     7   ar
     7     7     8   ar
     8     8     9    1
     9     9    10   ar
    10    10    11   ar
    11    11    12   ar
    12    12    13   ar
    13    13    14    1
    14    14    15    1
    15    15    16   ar
    16    16    17   ar
    17    17    18   ar
    18    18    19   ar
    19    19    20    1
    20    20    21   am
    21    20    22    2
    22    19    23   ar
    23    15    23   ar
    24    13    24   ar
    25     9    24   ar
    26     8    25   ar
    27    25    26   ar
    28     5    26   ar
    29     1    27    1
    30     1    28    1
    31     1    29    1
    32     4    30    1
    33    14    31    1
    34    21    32    1
    35    21    33    1
    36     6    34    1
    37     7    35    1
    38    10    36    1
    39    11    37    1
    40    16    38    1
    41    17    39    1
    42    18    40    1
    43    23    41    1
    44    25    42    1
    45    26    43    1
@<TRIPOS>MOLECULE
mol63_1_27
 43 45 0 0 0
SMALL
USER_CHARGES
****
VDW energy = -174.89
@<TRIPOS>ATOM
   1 C1        2.7323    -8.7181    -6.6515  C.3     1  <O>11       0.0125
   2 C2        3.4528    -9.1250    -5.4100  C.2     1  <O>11       0.2141
   3 O1        4.6297    -8.8309    -5.2623  O.2     1  <O>11      -0.2758
   4 N1        2.7960    -9.8280    -4.4360  N.am    1  <O>11      -0.2857
   5 C3        3.4640   -10.2050    -3.2840  C.ar    1  <O>11       0.0334
   6 C4        2.7595   -10.8479    -2.2639  C.ar    1  <O>11      -0.0399
   7 C5        3.4261   -11.2211    -1.0910  C.ar    1  <O>11      -0.0508
   8 C6        4.7908   -10.9572    -0.9428  C.ar    1  <O>11       0.0006
   9 C7        5.4756   -11.3328     0.2498  C.ar    1  <O>11       0.0760
  10 C8        4.7653   -11.9768     1.2851  C.ar    1  <O>11      -0.0174
  11 C9        5.4997   -12.3039     2.3971  C.ar    1  <O>11       0.0332
  12 N2        6.8147   -12.0428     2.5253  N.ar    1  <O>11      -0.2226
  13 C10       7.4192   -11.4276     1.4960  C.ar    1  <O>11       0.2200
  14 N3        8.8243   -11.1084     1.5434  N.pl3   1  <O>11      -0.2836
  15 C11       9.4703   -10.5030     0.3930  C.ar    1  <O>11       0.0343
  16 C12      10.0510   -11.3102    -0.6006  C.ar    1  <O>11      -0.0404
  17 C13      10.6821   -10.7255    -1.7027  C.ar    1  <O>11      -0.0593
  18 C14      10.7392    -9.3349    -1.8270  C.ar    1  <O>11      -0.0495
  19 C15      10.1542    -8.5316    -0.8402  C.ar    1  <O>11       0.0382
  20 C16      10.2146    -7.0922    -0.9729  C.2     1  <O>11       0.2416
  21 N4       10.0468    -6.5109    -2.2017  N.am    1  <O>11      -0.3253
  22 O2       10.4143    -6.3963     0.0106  O.2     1  <O>11      -0.2704
  23 C17       9.5209    -9.1058     0.2623  C.ar    1  <O>11      -0.0284
  24 N5        6.7815   -11.0695     0.3681  N.ar    1  <O>11      -0.2142
  25 C18       5.4847   -10.3182    -1.9766  C.ar    1  <O>11      -0.0508
  26 C19       4.8292    -9.9437    -3.1508  C.ar    1  <O>11      -0.0399
  27 H1        1.7006    -9.0664    -6.6035  H       1  <O>11       0.0323
  28 H2        3.2247    -9.1590    -7.5183  H       1  <O>11       0.0323
  29 H3        2.7453    -7.6318    -6.7397  H       1  <O>11       0.0323
  30 H4        1.8130   -10.0730    -4.5590  H       1  <O>11       0.1548
  31 H5        9.3641   -11.3078     2.3856  H       1  <O>11       0.1550
  32 H6        9.8800    -7.0927    -3.0230  H       1  <O>11       0.1453
  33 H7       10.0910    -5.4958    -2.2956  H       1  <O>11       0.1453
  34 H8        1.7529   -11.0468    -2.3742  H       1  <O>11       0.0636
  35 H9        2.9083   -11.6926    -0.3330  H       1  <O>11       0.0625
  36 H10       3.7580   -12.1882     1.2107  H       1  <O>11       0.0654
  37 H11       5.0178   -12.7759     3.1781  H       1  <O>11       0.0831
  38 H12      10.0113   -12.3379    -0.5163  H       1  <O>11       0.0636
  39 H13      11.1079   -11.3238    -2.4278  H       1  <O>11       0.0618
  40 H14      11.2082    -8.9038    -2.6388  H       1  <O>11       0.0625
  41 H15       9.0899    -8.5041     0.9814  H       1  <O>11       0.0644
  42 H16       6.4922   -10.1217    -1.8697  H       1  <O>11       0.0625
  43 H17       5.3480    -9.4787    -3.9123  H       1  <O>11       0.0636
@<TRIPOS>BOND
     1     1     2    1
     2     2     3    2
     3     2     4   am
     4     4     5    1
     5     5     6   ar
     6     6     7   ar
     7     7     8   ar
     8     8     9    1
     9     9    10   ar
    10    10    11   ar
    11    11    12   ar
    12    12    13   ar
    13    13    14    1
    14    14    15    1
    15    15    16   ar
    16    16    17   ar
    17    17    18   ar
    18    18    19   ar
    19    19    20    1
    20    20    21   am
    21    20    22    2
    22    19    23   ar
    23    15    23   ar
    24    13    24   ar
    25     9    24   ar
    26     8    25   ar
    27    25    26   ar
    28     5    26   ar
    29     1    27    1
    30     1    28    1
    31     1    29    1
    32     4    30    1
    33    14    31    1
    34    21    32    1
    35    21    33    1
    36     6    34    1
    37     7    35    1
    38    10    36    1
    39    11    37    1
    40    16    38    1
    41    17    39    1
    42    18    40    1
    43    23    41    1
    44    25    42    1
    45    26    43    1
@<TRIPOS>MOLECULE
mol63_1_28
 43 45 0 0 0
SMALL
USER_CHARGES
****
VDW energy = -168.90
@<TRIPOS>ATOM
   1 C1        2.7323    -8.7181    -6.6515  C.3     1  <O>11       0.0125
   2 C2        3.4528    -9.1250    -5.4100  C.2     1  <O>11       0.2141
   3 O1        4.6297    -8.8309    -5.2623  O.2     1  <O>11      -0.2758
   4 N1        2.7960    -9.8280    -4.4360  N.am    1  <O>11      -0.2857
   5 C3        3.4640   -10.2050    -3.2840  C.ar    1  <O>11       0.0334
   6 C4        2.7595   -10.8479    -2.2639  C.ar    1  <O>11      -0.0399
   7 C5        3.4261   -11.2211    -1.0910  C.ar    1  <O>11      -0.0508
   8 C6        4.7908   -10.9572    -0.9428  C.ar    1  <O>11       0.0006
   9 C7        5.4756   -11.3328     0.2498  C.ar    1  <O>11       0.0760
  10 C8        4.7653   -11.9768     1.2851  C.ar    1  <O>11      -0.0174
  11 C9        5.4997   -12.3039     2.3971  C.ar    1  <O>11       0.0332
  12 N2        6.8147   -12.0428     2.5253  N.ar    1  <O>11      -0.2226
  13 C10       7.4192   -11.4276     1.4960  C.ar    1  <O>11       0.2200
  14 N3        8.8243   -11.1084     1.5434  N.pl3   1  <O>11      -0.2836
  15 C11       9.4703   -10.5030     0.3930  C.ar    1  <O>11       0.0343
  16 C12       9.5956   -11.2207    -0.8092  C.ar    1  <O>11      -0.0404
  17 C13      10.2275   -10.6402    -1.9130  C.ar    1  <O>11      -0.0593
  18 C14      10.7376    -9.3419    -1.8315  C.ar    1  <O>11      -0.0495
  19 C15      10.6061    -8.6250    -0.6357  C.ar    1  <O>11       0.0382
  20 C16      11.1347    -7.2807    -0.5554  C.2     1  <O>11       0.2416
  21 N4       10.8567    -6.5003     0.5353  N.am    1  <O>11      -0.3253
  22 O2       11.8290    -6.8428    -1.4597  O.2     1  <O>11      -0.2704
  23 C17       9.9758    -9.1953     0.4706  C.ar    1  <O>11      -0.0284
  24 N5        6.7815   -11.0695     0.3681  N.ar    1  <O>11      -0.2142
  25 C18       5.4847   -10.3182    -1.9766  C.ar    1  <O>11      -0.0508
  26 C19       4.8292    -9.9437    -3.1508  C.ar    1  <O>11      -0.0399
  27 H1        1.7006    -9.0664    -6.6035  H       1  <O>11       0.0323
  28 H2        3.2247    -9.1590    -7.5183  H       1  <O>11       0.0323
  29 H3        2.7453    -7.6318    -6.7397  H       1  <O>11       0.0323
  30 H4        1.8130   -10.0730    -4.5590  H       1  <O>11       0.1548
  31 H5        9.3641   -11.3078     2.3856  H       1  <O>11       0.1550
  32 H6       10.2766    -6.8666     1.2904  H       1  <O>11       0.1453
  33 H7       11.2281    -5.5516     0.5911  H       1  <O>11       0.1453
  34 H8        1.7529   -11.0468    -2.3742  H       1  <O>11       0.0636
  35 H9        2.9083   -11.6926    -0.3330  H       1  <O>11       0.0625
  36 H10       3.7580   -12.1882     1.2107  H       1  <O>11       0.0654
  37 H11       5.0178   -12.7759     3.1781  H       1  <O>11       0.0831
  38 H12       9.2199   -12.1794    -0.8772  H       1  <O>11       0.0636
  39 H13      10.3177   -11.1731    -2.7922  H       1  <O>11       0.0618
  40 H14      11.2071    -8.9150    -2.6454  H       1  <O>11       0.0625
  41 H15       9.8811    -8.6563     1.3455  H       1  <O>11       0.0644
  42 H16       6.4922   -10.1217    -1.8697  H       1  <O>11       0.0625
  43 H17       5.3480    -9.4787    -3.9123  H       1  <O>11       0.0636
@<TRIPOS>BOND
     1     1     2    1
     2     2     3    2
     3     2     4   am
     4     4     5    1
     5     5     6   ar
     6     6     7   ar
     7     7     8   ar
     8     8     9    1
     9     9    10   ar
    10    10    11   ar
    11    11    12   ar
    12    12    13   ar
    13    13    14    1
    14    14    15    1
    15    15    16   ar
    16    16    17   ar
    17    17    18   ar
    18    18    19   ar
    19    19    20    1
    20    20    21   am
    21    20    22    2
    22    19    23   ar
    23    15    23   ar
    24    13    24   ar
    25     9    24   ar
    26     8    25   ar
    27    25    26   ar
    28     5    26   ar
    29     1    27    1
    30     1    28    1
    31     1    29    1
    32     4    30    1
    33    14    31    1
    34    21    32    1
    35    21    33    1
    36     6    34    1
    37     7    35    1
    38    10    36    1
    39    11    37    1
    40    16    38    1
    41    17    39    1
    42    18    40    1
    43    23    41    1
    44    25    42    1
    45    26    43    1
@<TRIPOS>MOLECULE
mol63_1_29
 43 45 0 0 0
SMALL
USER_CHARGES
****
VDW energy = -165.54
@<TRIPOS>ATOM
   1 C1        2.7323    -8.7181    -6.6515  C.3     1  <O>11       0.0125
   2 C2        3.4528    -9.1250    -5.4100  C.2     1  <O>11       0.2141
   3 O1        4.6297    -8.8309    -5.2623  O.2     1  <O>11      -0.2758
   4 N1        2.7960    -9.8280    -4.4360  N.am    1  <O>11      -0.2857
   5 C3        3.4640   -10.2050    -3.2840  C.ar    1  <O>11       0.0334
   6 C4        2.7595   -10.8479    -2.2639  C.ar    1  <O>11      -0.0399
   7 C5        3.4261   -11.2211    -1.0910  C.ar    1  <O>11      -0.0508
   8 C6        4.7908   -10.9572    -0.9428  C.ar    1  <O>11       0.0006
   9 C7        5.4756   -11.3328     0.2498  C.ar    1  <O>11       0.0760
  10 C8        4.7653   -11.9768     1.2851  C.ar    1  <O>11      -0.0174
  11 C9        5.4997   -12.3039     2.3971  C.ar    1  <O>11       0.0332
  12 N2        6.8147   -12.0428     2.5253  N.ar    1  <O>11      -0.2226
  13 C10       7.4192   -11.4276     1.4960  C.ar    1  <O>11       0.2200
  14 N3        8.8243   -11.1084     1.5434  N.pl3   1  <O>11      -0.2836
  15 C11       9.8099   -12.1736     1.5742  C.ar    1  <O>11       0.0343
  16 C12      11.1817   -11.8726     1.5149  C.ar    1  <O>11      -0.0404
  17 C13      12.1294   -12.9003     1.5339  C.ar    1  <O>11      -0.0593
  18 C14      11.7216   -14.2344     1.6141  C.ar    1  <O>11      -0.0495
  19 C15      10.3550   -14.5331     1.6803  C.ar    1  <O>11       0.0382
  20 C16       9.9367   -15.9155     1.7641  C.2     1  <O>11       0.2416
  21 N4        8.6246   -16.2192     2.0133  N.am    1  <O>11      -0.3253
  22 O2       10.7533   -16.8107     1.6119  O.2     1  <O>11      -0.2704
  23 C17       9.4020   -13.5143     1.6634  C.ar    1  <O>11      -0.0284
  24 N5        6.7815   -11.0695     0.3681  N.ar    1  <O>11      -0.2142
  25 C18       5.4847   -10.3182    -1.9766  C.ar    1  <O>11      -0.0508
  26 C19       4.8292    -9.9437    -3.1508  C.ar    1  <O>11      -0.0399
  27 H1        1.7006    -9.0664    -6.6035  H       1  <O>11       0.0323
  28 H2        3.2247    -9.1590    -7.5183  H       1  <O>11       0.0323
  29 H3        2.7453    -7.6318    -6.7397  H       1  <O>11       0.0323
  30 H4        1.8130   -10.0730    -4.5590  H       1  <O>11       0.1548
  31 H5        9.1254   -10.1339     1.5551  H       1  <O>11       0.1550
  32 H6        7.9428   -15.4709     2.1405  H       1  <O>11       0.1453
  33 H7        8.3299   -17.1942     2.0741  H       1  <O>11       0.1453
  34 H8        1.7529   -11.0468    -2.3742  H       1  <O>11       0.0636
  35 H9        2.9083   -11.6926    -0.3330  H       1  <O>11       0.0625
  36 H10       3.7580   -12.1882     1.2107  H       1  <O>11       0.0654
  37 H11       5.0178   -12.7759     3.1781  H       1  <O>11       0.0831
  38 H12      11.4904   -10.8896     1.4572  H       1  <O>11       0.0636
  39 H13      13.1350   -12.6726     1.4885  H       1  <O>11       0.0618
  40 H14      12.4214   -14.9928     1.6246  H       1  <O>11       0.0625
  41 H15       8.3977   -13.7459     1.7165  H       1  <O>11       0.0644
  42 H16       6.4922   -10.1217    -1.8697  H       1  <O>11       0.0625
  43 H17       5.3480    -9.4787    -3.9123  H       1  <O>11       0.0636
@<TRIPOS>BOND
     1     1     2    1
     2     2     3    2
     3     2     4   am
     4     4     5    1
     5     5     6   ar
     6     6     7   ar
     7     7     8   ar
     8     8     9    1
     9     9    10   ar
    10    10    11   ar
    11    11    12   ar
    12    12    13   ar
    13    13    14    1
    14    14    15    1
    15    15    16   ar
    16    16    17   ar
    17    17    18   ar
    18    18    19   ar
    19    19    20    1
    20    20    21   am
    21    20    22    2
    22    19    23   ar
    23    15    23   ar
    24    13    24   ar
    25     9    24   ar
    26     8    25   ar
    27    25    26   ar
    28     5    26   ar
    29     1    27    1
    30     1    28    1
    31     1    29    1
    32     4    30    1
    33    14    31    1
    34    21    32    1
    35    21    33    1
    36     6    34    1
    37     7    35    1
    38    10    36    1
    39    11    37    1
    40    16    38    1
    41    17    39    1
    42    18    40    1
    43    23    41    1
    44    25    42    1
    45    26    43    1
@<TRIPOS>MOLECULE
mol63_1_30
 43 45 0 0 0
SMALL
USER_CHARGES
****
VDW energy = -159.67
@<TRIPOS>ATOM
   1 C1        2.7323    -8.7181    -6.6515  C.3     1  <O>11       0.0125
   2 C2        3.4528    -9.1250    -5.4100  C.2     1  <O>11       0.2141
   3 O1        4.6297    -8.8309    -5.2623  O.2     1  <O>11      -0.2758
   4 N1        2.7960    -9.8280    -4.4360  N.am    1  <O>11      -0.2857
   5 C3        1.4632   -10.1619    -4.6021  C.ar    1  <O>11       0.0334
   6 C4        1.1322   -11.3713    -5.2168  C.ar    1  <O>11      -0.0399
   7 C5       -0.2137   -11.7098    -5.3990  C.ar    1  <O>11      -0.0508
   8 C6       -1.2219   -10.8452    -4.9633  C.ar    1  <O>11       0.0006
   9 C7       -2.5947   -11.1827    -5.1474  C.ar    1  <O>11       0.0760
  10 C8       -2.9325   -12.4011    -5.7739  C.ar    1  <O>11      -0.0174
  11 C9       -4.2752   -12.6480    -5.9111  C.ar    1  <O>11       0.0332
  12 N2       -5.2354   -11.8047    -5.4861  N.ar    1  <O>11      -0.2226
  13 C10      -4.8332   -10.6657    -4.8995  C.ar    1  <O>11       0.2200
  14 N3       -5.7899    -9.7031    -4.4129  N.pl3   1  <O>11      -0.2836
  15 C11      -5.3327    -8.5104    -3.7232  C.ar    1  <O>11       0.0343
  16 C12      -6.2507    -7.5177    -3.3386  C.ar    1  <O>11      -0.0404
  17 C13      -5.8074    -6.3646    -2.6840  C.ar    1  <O>11      -0.0593
  18 C14      -4.4495    -6.1901    -2.4045  C.ar    1  <O>11      -0.0495
  19 C15      -3.5365    -7.1828    -2.7817  C.ar    1  <O>11       0.0382
  20 C16      -2.1315    -6.9988    -2.4899  C.2     1  <O>11       0.2416
  21 N4       -1.6151    -7.4465    -1.3029  N.am    1  <O>11      -0.3253
  22 O2       -1.4067    -6.4453    -3.3022  O.2     1  <O>11      -0.2704
  23 C17      -3.9695    -8.3375    -3.4340  C.ar    1  <O>11      -0.0284
  24 N5       -3.5414   -10.3391    -4.7220  N.ar    1  <O>11      -0.2142
  25 C18      -0.8747    -9.6397    -4.3430  C.ar    1  <O>11      -0.0508
  26 C19       0.4647    -9.2940    -4.1552  C.ar    1  <O>11      -0.0399
  27 H1        1.7006    -9.0664    -6.6035  H       1  <O>11       0.0323
  28 H2        3.2247    -9.1590    -7.5183  H       1  <O>11       0.0323
  29 H3        2.7453    -7.6318    -6.7397  H       1  <O>11       0.0323
  30 H4        3.2899   -10.1071    -3.5877  H       1  <O>11       0.1548
  31 H5       -6.7878    -9.8605    -4.5536  H       1  <O>11       0.1550
  32 H6       -2.2211    -7.9087    -0.6248  H       1  <O>11       0.1453
  33 H7       -0.6245    -7.3152    -1.0964  H       1  <O>11       0.1453
  34 H8        1.8760   -12.0121    -5.5351  H       1  <O>11       0.0636
  35 H9       -0.4625   -12.6007    -5.8566  H       1  <O>11       0.0625
  36 H10      -2.2154   -13.0640    -6.1076  H       1  <O>11       0.0654
  37 H11      -4.5652   -13.5284    -6.3649  H       1  <O>11       0.0831
  38 H12      -7.2553    -7.6405    -3.5402  H       1  <O>11       0.0636
  39 H13      -6.4863    -5.6389    -2.4058  H       1  <O>11       0.0618
  40 H14      -4.1224    -5.3372    -1.9244  H       1  <O>11       0.0625
  41 H15      -3.2883    -9.0641    -3.7039  H       1  <O>11       0.0644
  42 H16      -1.6170    -8.9993    -4.0208  H       1  <O>11       0.0625
  43 H17       0.7142    -8.4067    -3.6910  H       1  <O>11       0.0636
@<TRIPOS>BOND
     1     1     2    1
     2     2     3    2
     3     2     4   am
     4     4     5    1
     5     5     6   ar
     6     6     7   ar
     7     7     8   ar
     8     8     9    1
     9     9    10   ar
    10    10    11   ar
    11    11    12   ar
    12    12    13   ar
    13    13    14    1
    14    14    15    1
    15    15    16   ar
    16    16    17   ar
    17    17    18   ar
    18    18    19   ar
    19    19    20    1
    20    20    21   am
    21    20    22    2
    22    19    23   ar
    23    15    23   ar
    24    13    24   ar
    25     9    24   ar
    26     8    25   ar
    27    25    26   ar
    28     5    26   ar
    29     1    27    1
    30     1    28    1
    31     1    29    1
    32     4    30    1
    33    14    31    1
    34    21    32    1
    35    21    33    1
    36     6    34    1
    37     7    35    1
    38    10    36    1
    39    11    37    1
    40    16    38    1
    41    17    39    1
    42    18    40    1
    43    23    41    1
    44    25    42    1
    45    26    43    1
@<TRIPOS>MOLECULE
mol63_2_1
 43 45 0 0 0
SMALL
USER_CHARGES
****
VDW energy = -188.40
@<TRIPOS>ATOM
   1 C1        2.7323    -8.7181    -6.6515  C.3     1  <O>11       0.0125
   2 C2        3.4528    -9.1250    -5.4100  C.2     1  <O>11       0.2141
   3 O1        4.6297    -8.8309    -5.2623  O.2     1  <O>11      -0.2758
   4 N1        2.7960    -9.8280    -4.4360  N.am    1  <O>11      -0.2857
   5 C3        3.4640   -10.2050    -3.2840  C.ar    1  <O>11       0.0334
   6 C4        2.8054   -10.9936    -2.3381  C.ar    1  <O>11      -0.0399
   7 C5        3.4709   -11.3684    -1.1651  C.ar    1  <O>11      -0.0508
   8 C6        4.7894   -10.9608    -0.9432  C.ar    1  <O>11       0.0006
   9 C7        5.4725   -11.3373     0.2501  C.ar    1  <O>11       0.0760
  10 C8        5.3966   -10.5040     1.3862  C.ar    1  <O>11      -0.0174
  11 C9        6.0825   -10.9402     2.4917  C.ar    1  <O>11       0.0332
  12 N2        6.7916   -12.0847     2.5253  N.ar    1  <O>11      -0.2226
  13 C10       6.8148   -12.8229     1.4037  C.ar    1  <O>11       0.2200
  14 N3        7.5471   -14.0634     1.3464  N.pl3   1  <O>11      -0.2836
  15 C11       7.7026   -14.7556     0.0813  C.ar    1  <O>11       0.0343
  16 C12       8.4525   -14.1770    -0.9580  C.ar    1  <O>11      -0.0404
  17 C13       8.5903   -14.8401    -2.1805  C.ar    1  <O>11      -0.0593
  18 C14       7.9878   -16.0854    -2.3794  C.ar    1  <O>11      -0.0495
  19 C15       7.2470   -16.6629    -1.3449  C.ar    1  <O>11       0.0382
  20 C16       6.6247   -17.9531    -1.5538  C.2     1  <O>11       0.2416
  21 N4        5.3519   -18.0288    -2.0535  N.am    1  <O>11      -0.3253
  22 O2        7.2376   -18.9774    -1.2873  O.2     1  <O>11      -0.2704
  23 C17       7.1028   -16.0110    -0.1181  C.ar    1  <O>11      -0.0284
  24 N5        6.1741   -12.4757     0.2741  N.ar    1  <O>11      -0.2142
  25 C18       5.4385   -10.1764    -1.9034  C.ar    1  <O>11      -0.0508
  26 C19       4.7839    -9.7989    -3.0772  C.ar    1  <O>11      -0.0399
  27 H1        1.7006    -9.0664    -6.6035  H       1  <O>11       0.0323
  28 H2        3.2247    -9.1590    -7.5183  H       1  <O>11       0.0323
  29 H3        2.7453    -7.6318    -6.7397  H       1  <O>11       0.0323
  30 H4        1.8130   -10.0730    -4.5590  H       1  <O>11       0.1548
  31 H5        7.9562   -14.4534     2.1955  H       1  <O>11       0.1550
  32 H6        4.8410   -17.1747    -2.2778  H       1  <O>11       0.1453
  33 H7        4.9147   -18.9383    -2.2000  H       1  <O>11       0.1453
  34 H8        1.8333   -11.2983    -2.5031  H       1  <O>11       0.0636
  35 H9        2.9863   -11.9476    -0.4617  H       1  <O>11       0.0625
  36 H10       4.8596    -9.6227     1.3858  H       1  <O>11       0.0654
  37 H11       6.0535   -10.3593     3.3442  H       1  <O>11       0.0831
  38 H12       8.9029   -13.2592    -0.8175  H       1  <O>11       0.0636
  39 H13       9.1395   -14.4082    -2.9400  H       1  <O>11       0.0618
  40 H14       8.0893   -16.5742    -3.2826  H       1  <O>11       0.0625
  41 H15       6.5574   -16.4500     0.6400  H       1  <O>11       0.0644
  42 H16       6.4118    -9.8736    -1.7419  H       1  <O>11       0.0625
  43 H17       5.2702    -9.2259    -3.7844  H       1  <O>11       0.0636
@<TRIPOS>BOND
     1     1     2    1
     2     2     3    2
     3     2     4   am
     4     4     5    1
     5     5     6   ar
     6     6     7   ar
     7     7     8   ar
     8     8     9    1
     9     9    10   ar
    10    10    11   ar
    11    11    12   ar
    12    12    13   ar
    13    13    14    1
    14    14    15    1
    15    15    16   ar
    16    16    17   ar
    17    17    18   ar
    18    18    19   ar
    19    19    20    1
    20    20    21   am
    21    20    22    2
    22    19    23   ar
    23    15    23   ar
    24    13    24   ar
    25     9    24   ar
    26     8    25   ar
    27    25    26   ar
    28     5    26   ar
    29     1    27    1
    30     1    28    1
    31     1    29    1
    32     4    30    1
    33    14    31    1
    34    21    32    1
    35    21    33    1
    36     6    34    1
    37     7    35    1
    38    10    36    1
    39    11    37    1
    40    16    38    1
    41    17    39    1
    42    18    40    1
    43    23    41    1
    44    25    42    1
    45    26    43    1
@<TRIPOS>MOLECULE
mol63_2_2
 43 45 0 0 0
SMALL
USER_CHARGES
****
VDW energy = -188.18
@<TRIPOS>ATOM
   1 C1        2.7323    -8.7181    -6.6515  C.3     1  <O>11       0.0125
   2 C2        3.4528    -9.1250    -5.4100  C.2     1  <O>11       0.2141
   3 O1        4.6297    -8.8309    -5.2623  O.2     1  <O>11      -0.2758
   4 N1        2.7960    -9.8280    -4.4360  N.am    1  <O>11      -0.2857
   5 C3        3.4640   -10.2050    -3.2840  C.ar    1  <O>11       0.0334
   6 C4        2.8054   -10.9936    -2.3381  C.ar    1  <O>11      -0.0399
   7 C5        3.4709   -11.3684    -1.1651  C.ar    1  <O>11      -0.0508
   8 C6        4.7894   -10.9608    -0.9432  C.ar    1  <O>11       0.0006
   9 C7        5.4725   -11.3373     0.2501  C.ar    1  <O>11       0.0760
  10 C8        5.3966   -10.5040     1.3862  C.ar    1  <O>11      -0.0174
  11 C9        6.0825   -10.9402     2.4917  C.ar    1  <O>11       0.0332
  12 N2        6.7916   -12.0847     2.5253  N.ar    1  <O>11      -0.2226
  13 C10       6.8148   -12.8229     1.4037  C.ar    1  <O>11       0.2200
  14 N3        7.5471   -14.0634     1.3464  N.pl3   1  <O>11      -0.2836
  15 C11       7.7026   -14.7556     0.0813  C.ar    1  <O>11       0.0343
  16 C12       6.5831   -15.2983    -0.5742  C.ar    1  <O>11      -0.0404
  17 C13       6.7371   -15.9759    -1.7868  C.ar    1  <O>11      -0.0593
  18 C14       8.0037   -16.1164    -2.3605  C.ar    1  <O>11      -0.0495
  19 C15       9.1155   -15.5726    -1.7119  C.ar    1  <O>11       0.0382
  20 C16      10.4260   -15.7193    -2.3089  C.2     1  <O>11       0.2416
  21 N4       10.8936   -14.7720    -3.1805  N.am    1  <O>11      -0.3253
  22 O2       11.1186   -16.6886    -2.0320  O.2     1  <O>11      -0.2704
  23 C17       8.9748   -14.8921    -0.5003  C.ar    1  <O>11      -0.0284
  24 N5        6.1741   -12.4757     0.2741  N.ar    1  <O>11      -0.2142
  25 C18       5.4385   -10.1764    -1.9034  C.ar    1  <O>11      -0.0508
  26 C19       4.7839    -9.7989    -3.0772  C.ar    1  <O>11      -0.0399
  27 H1        1.7006    -9.0664    -6.6035  H       1  <O>11       0.0323
  28 H2        3.2247    -9.1590    -7.5183  H       1  <O>11       0.0323
  29 H3        2.7453    -7.6318    -6.7397  H       1  <O>11       0.0323
  30 H4        1.8130   -10.0730    -4.5590  H       1  <O>11       0.1548
  31 H5        7.9562   -14.4534     2.1955  H       1  <O>11       0.1550
  32 H6       10.3170   -13.9624    -3.4103  H       1  <O>11       0.1453
  33 H7       11.8169   -14.8767    -3.6004  H       1  <O>11       0.1453
  34 H8        1.8333   -11.2983    -2.5031  H       1  <O>11       0.0636
  35 H9        2.9863   -11.9476    -0.4617  H       1  <O>11       0.0625
  36 H10       4.8596    -9.6227     1.3858  H       1  <O>11       0.0654
  37 H11       6.0535   -10.3593     3.3442  H       1  <O>11       0.0831
  38 H12       5.6442   -15.1959    -0.1583  H       1  <O>11       0.0636
  39 H13       5.9115   -16.3744    -2.2609  H       1  <O>11       0.0618
  40 H14       8.1169   -16.6175    -3.2555  H       1  <O>11       0.0625
  41 H15       9.8029   -14.4905    -0.0333  H       1  <O>11       0.0644
  42 H16       6.4118    -9.8736    -1.7419  H       1  <O>11       0.0625
  43 H17       5.2702    -9.2259    -3.7844  H       1  <O>11       0.0636
@<TRIPOS>BOND
     1     1     2    1
     2     2     3    2
     3     2     4   am
     4     4     5    1
     5     5     6   ar
     6     6     7   ar
     7     7     8   ar
     8     8     9    1
     9     9    10   ar
    10    10    11   ar
    11    11    12   ar
    12    12    13   ar
    13    13    14    1
    14    14    15    1
    15    15    16   ar
    16    16    17   ar
    17    17    18   ar
    18    18    19   ar
    19    19    20    1
    20    20    21   am
    21    20    22    2
    22    19    23   ar
    23    15    23   ar
    24    13    24   ar
    25     9    24   ar
    26     8    25   ar
    27    25    26   ar
    28     5    26   ar
    29     1    27    1
    30     1    28    1
    31     1    29    1
    32     4    30    1
    33    14    31    1
    34    21    32    1
    35    21    33    1
    36     6    34    1
    37     7    35    1
    38    10    36    1
    39    11    37    1
    40    16    38    1
    41    17    39    1
    42    18    40    1
    43    23    41    1
    44    25    42    1
    45    26    43    1
@<TRIPOS>MOLECULE
mol63_2_3
 43 45 0 0 0
SMALL
USER_CHARGES
****
VDW energy = -187.59
@<TRIPOS>ATOM
   1 C1        2.7323    -8.7181    -6.6515  C.3     1  <O>11       0.0125
   2 C2        3.4528    -9.1250    -5.4100  C.2     1  <O>11       0.2141
   3 O1        4.6297    -8.8309    -5.2623  O.2     1  <O>11      -0.2758
   4 N1        2.7960    -9.8280    -4.4360  N.am    1  <O>11      -0.2857
   5 C3        3.4640   -10.2050    -3.2840  C.ar    1  <O>11       0.0334
   6 C4        2.8054   -10.9936    -2.3381  C.ar    1  <O>11      -0.0399
   7 C5        3.4709   -11.3684    -1.1651  C.ar    1  <O>11      -0.0508
   8 C6        4.7894   -10.9608    -0.9432  C.ar    1  <O>11       0.0006
   9 C7        5.4725   -11.3373     0.2501  C.ar    1  <O>11       0.0760
  10 C8        6.6581   -12.0973     0.1614  C.ar    1  <O>11      -0.0174
  11 C9        7.2518   -12.4164     1.3565  C.ar    1  <O>11       0.0332
  12 N2        6.7624   -12.0442     2.5548  N.ar    1  <O>11      -0.2226
  13 C10       5.6301   -11.3222     2.5554  C.ar    1  <O>11       0.2200
  14 N3        5.0330   -10.8789     3.7904  N.pl3   1  <O>11      -0.2836
  15 C11       3.7247   -10.2525     3.7792  C.ar    1  <O>11       0.0343
  16 C12       2.5622   -11.0325     3.9118  C.ar    1  <O>11      -0.0404
  17 C13       1.3023   -10.4281     3.8880  C.ar    1  <O>11      -0.0593
  18 C14       1.1868    -9.0436     3.7365  C.ar    1  <O>11      -0.0495
  19 C15       2.3421    -8.2679     3.6102  C.ar    1  <O>11       0.0382
  20 C16       2.2192    -6.8340     3.4540  C.2     1  <O>11       0.2416
  21 N4        2.2013    -6.0221     4.5567  N.am    1  <O>11      -0.3253
  22 O2        2.1351    -6.3461     2.3356  O.2     1  <O>11      -0.2704
  23 C17       3.6071    -8.8596     3.6337  C.ar    1  <O>11      -0.0284
  24 N5        4.9791   -10.9630     1.4355  N.ar    1  <O>11      -0.2142
  25 C18       5.4385   -10.1764    -1.9034  C.ar    1  <O>11      -0.0508
  26 C19       4.7839    -9.7989    -3.0772  C.ar    1  <O>11      -0.0399
  27 H1        1.7006    -9.0664    -6.6035  H       1  <O>11       0.0323
  28 H2        3.2247    -9.1590    -7.5183  H       1  <O>11       0.0323
  29 H3        2.7453    -7.6318    -6.7397  H       1  <O>11       0.0323
  30 H4        1.8130   -10.0730    -4.5590  H       1  <O>11       0.1548
  31 H5        5.5305   -11.0065     4.6717  H       1  <O>11       0.1550
  32 H6        2.2734    -6.4284     5.4897  H       1  <O>11       0.1453
  33 H7        2.1145    -5.0122     4.4452  H       1  <O>11       0.1453
  34 H8        1.8333   -11.2983    -2.5031  H       1  <O>11       0.0636
  35 H9        2.9863   -11.9476    -0.4617  H       1  <O>11       0.0625
  36 H10       7.0534   -12.3942    -0.7445  H       1  <O>11       0.0654
  37 H11       8.1211   -12.9722     1.3361  H       1  <O>11       0.0831
  38 H12       2.6396   -12.0550     4.0271  H       1  <O>11       0.0636
  39 H13       0.4531   -11.0070     3.9826  H       1  <O>11       0.0618
  40 H14       0.2562    -8.5979     3.7182  H       1  <O>11       0.0625
  41 H15       4.4532    -8.2755     3.5444  H       1  <O>11       0.0644
  42 H16       6.4118    -9.8736    -1.7419  H       1  <O>11       0.0625
  43 H17       5.2702    -9.2259    -3.7844  H       1  <O>11       0.0636
@<TRIPOS>BOND
     1     1     2    1
     2     2     3    2
     3     2     4   am
     4     4     5    1
     5     5     6   ar
     6     6     7   ar
     7     7     8   ar
     8     8     9    1
     9     9    10   ar
    10    10    11   ar
    11    11    12   ar
    12    12    13   ar
    13    13    14    1
    14    14    15    1
    15    15    16   ar
    16    16    17   ar
    17    17    18   ar
    18    18    19   ar
    19    19    20    1
    20    20    21   am
    21    20    22    2
    22    19    23   ar
    23    15    23   ar
    24    13    24   ar
    25     9    24   ar
    26     8    25   ar
    27    25    26   ar
    28     5    26   ar
    29     1    27    1
    30     1    28    1
    31     1    29    1
    32     4    30    1
    33    14    31    1
    34    21    32    1
    35    21    33    1
    36     6    34    1
    37     7    35    1
    38    10    36    1
    39    11    37    1
    40    16    38    1
    41    17    39    1
    42    18    40    1
    43    23    41    1
    44    25    42    1
    45    26    43    1
@<TRIPOS>MOLECULE
mol63_2_4
 43 45 0 0 0
SMALL
USER_CHARGES
****
VDW energy = -186.37
@<TRIPOS>ATOM
   1 C1        2.7323    -8.7181    -6.6515  C.3     1  <O>11       0.0125
   2 C2        3.4528    -9.1250    -5.4100  C.2     1  <O>11       0.2141
   3 O1        4.6297    -8.8309    -5.2623  O.2     1  <O>11      -0.2758
   4 N1        2.7960    -9.8280    -4.4360  N.am    1  <O>11      -0.2857
   5 C3        3.4640   -10.2050    -3.2840  C.ar    1  <O>11       0.0334
   6 C4        2.8054   -10.9936    -2.3381  C.ar    1  <O>11      -0.0399
   7 C5        3.4709   -11.3684    -1.1651  C.ar    1  <O>11      -0.0508
   8 C6        4.7894   -10.9608    -0.9432  C.ar    1  <O>11       0.0006
   9 C7        5.4725   -11.3373     0.2501  C.ar    1  <O>11       0.0760
  10 C8        6.6581   -12.0973     0.1614  C.ar    1  <O>11      -0.0174
  11 C9        7.2518   -12.4164     1.3565  C.ar    1  <O>11       0.0332
  12 N2        6.7624   -12.0442     2.5548  N.ar    1  <O>11      -0.2226
  13 C10       5.6301   -11.3222     2.5554  C.ar    1  <O>11       0.2200
  14 N3        5.0330   -10.8789     3.7904  N.pl3   1  <O>11      -0.2836
  15 C11       4.0579   -11.7143     4.4651  C.ar    1  <O>11       0.0343
  16 C12       4.4718   -12.6605     5.4195  C.ar    1  <O>11      -0.0404
  17 C13       3.5317   -13.4732     6.0590  C.ar    1  <O>11      -0.0593
  18 C14       2.1723   -13.3498     5.7589  C.ar    1  <O>11      -0.0495
  19 C15       1.7604   -12.4061     4.8144  C.ar    1  <O>11       0.0382
  20 C16       0.3516   -12.2804     4.5062  C.2     1  <O>11       0.2416
  21 N4       -0.4324   -11.4122     5.2183  N.am    1  <O>11      -0.3253
  22 O2       -0.1388   -12.9475     3.6060  O.2     1  <O>11      -0.2704
  23 C17       2.6898   -11.5870     4.1693  C.ar    1  <O>11      -0.0284
  24 N5        4.9791   -10.9630     1.4355  N.ar    1  <O>11      -0.2142
  25 C18       5.4385   -10.1764    -1.9034  C.ar    1  <O>11      -0.0508
  26 C19       4.7839    -9.7989    -3.0772  C.ar    1  <O>11      -0.0399
  27 H1        1.7006    -9.0664    -6.6035  H       1  <O>11       0.0323
  28 H2        3.2247    -9.1590    -7.5183  H       1  <O>11       0.0323
  29 H3        2.7453    -7.6318    -6.7397  H       1  <O>11       0.0323
  30 H4        1.8130   -10.0730    -4.5590  H       1  <O>11       0.1548
  31 H5        5.2970    -9.9781     4.1896  H       1  <O>11       0.1550
  32 H6       -0.0234   -10.8541     5.9679  H       1  <O>11       0.1453
  33 H7       -1.4247   -11.3248     5.0001  H       1  <O>11       0.1453
  34 H8        1.8333   -11.2983    -2.5031  H       1  <O>11       0.0636
  35 H9        2.9863   -11.9476    -0.4617  H       1  <O>11       0.0625
  36 H10       7.0534   -12.3942    -0.7445  H       1  <O>11       0.0654
  37 H11       8.1211   -12.9722     1.3361  H       1  <O>11       0.0831
  38 H12       5.4735   -12.7552     5.6486  H       1  <O>11       0.0636
  39 H13       3.8427   -14.1676     6.7562  H       1  <O>11       0.0618
  40 H14       1.4786   -13.9508     6.2309  H       1  <O>11       0.0625
  41 H15       2.3729   -10.8902     3.4772  H       1  <O>11       0.0644
  42 H16       6.4118    -9.8736    -1.7419  H       1  <O>11       0.0625
  43 H17       5.2702    -9.2259    -3.7844  H       1  <O>11       0.0636
@<TRIPOS>BOND
     1     1     2    1
     2     2     3    2
     3     2     4   am
     4     4     5    1
     5     5     6   ar
     6     6     7   ar
     7     7     8   ar
     8     8     9    1
     9     9    10   ar
    10    10    11   ar
    11    11    12   ar
    12    12    13   ar
    13    13    14    1
    14    14    15    1
    15    15    16   ar
    16    16    17   ar
    17    17    18   ar
    18    18    19   ar
    19    19    20    1
    20    20    21   am
    21    20    22    2
    22    19    23   ar
    23    15    23   ar
    24    13    24   ar
    25     9    24   ar
    26     8    25   ar
    27    25    26   ar
    28     5    26   ar
    29     1    27    1
    30     1    28    1
    31     1    29    1
    32     4    30    1
    33    14    31    1
    34    21    32    1
    35    21    33    1
    36     6    34    1
    37     7    35    1
    38    10    36    1
    39    11    37    1
    40    16    38    1
    41    17    39    1
    42    18    40    1
    43    23    41    1
    44    25    42    1
    45    26    43    1
@<TRIPOS>MOLECULE
mol63_2_5
 43 45 0 0 0
SMALL
USER_CHARGES
****
VDW energy = -180.85
@<TRIPOS>ATOM
   1 C1        2.7323    -8.7181    -6.6515  C.3     1  <O>11       0.0125
   2 C2        3.4528    -9.1250    -5.4100  C.2     1  <O>11       0.2141
   3 O1        4.6297    -8.8309    -5.2623  O.2     1  <O>11      -0.2758
   4 N1        2.7960    -9.8280    -4.4360  N.am    1  <O>11      -0.2857
   5 C3        3.4640   -10.2050    -3.2840  C.ar    1  <O>11       0.0334
   6 C4        2.8054   -10.9936    -2.3381  C.ar    1  <O>11      -0.0399
   7 C5        3.4709   -11.3684    -1.1651  C.ar    1  <O>11      -0.0508
   8 C6        4.7894   -10.9608    -0.9432  C.ar    1  <O>11       0.0006
   9 C7        5.4725   -11.3373     0.2501  C.ar    1  <O>11       0.0760
  10 C8        6.6581   -12.0973     0.1614  C.ar    1  <O>11      -0.0174
  11 C9        7.2518   -12.4164     1.3565  C.ar    1  <O>11       0.0332
  12 N2        6.7624   -12.0442     2.5548  N.ar    1  <O>11      -0.2226
  13 C10       5.6301   -11.3222     2.5554  C.ar    1  <O>11       0.2200
  14 N3        5.0330   -10.8789     3.7904  N.pl3   1  <O>11      -0.2836
  15 C11       3.7247   -10.2525     3.7792  C.ar    1  <O>11       0.0343
  16 C12       2.5622   -11.0325     3.9118  C.ar    1  <O>11      -0.0404
  17 C13       1.3023   -10.4281     3.8880  C.ar    1  <O>11      -0.0593
  18 C14       1.1868    -9.0436     3.7365  C.ar    1  <O>11      -0.0495
  19 C15       2.3421    -8.2679     3.6102  C.ar    1  <O>11       0.0382
  20 C16       2.2192    -6.8340     3.4540  C.2     1  <O>11       0.2416
  21 N4        3.3370    -6.0653     3.2662  N.am    1  <O>11      -0.3253
  22 O2        1.1153    -6.3082     3.4860  O.2     1  <O>11      -0.2704
  23 C17       3.6071    -8.8596     3.6337  C.ar    1  <O>11      -0.0284
  24 N5        4.9791   -10.9630     1.4355  N.ar    1  <O>11      -0.2142
  25 C18       5.4385   -10.1764    -1.9034  C.ar    1  <O>11      -0.0508
  26 C19       4.7839    -9.7989    -3.0772  C.ar    1  <O>11      -0.0399
  27 H1        1.7006    -9.0664    -6.6035  H       1  <O>11       0.0323
  28 H2        3.2247    -9.1590    -7.5183  H       1  <O>11       0.0323
  29 H3        2.7453    -7.6318    -6.7397  H       1  <O>11       0.0323
  30 H4        1.8130   -10.0730    -4.5590  H       1  <O>11       0.1548
  31 H5        5.5305   -11.0065     4.6717  H       1  <O>11       0.1550
  32 H6        4.2578    -6.5037     3.2375  H       1  <O>11       0.1453
  33 H7        3.2489    -5.0553     3.1565  H       1  <O>11       0.1453
  34 H8        1.8333   -11.2983    -2.5031  H       1  <O>11       0.0636
  35 H9        2.9863   -11.9476    -0.4617  H       1  <O>11       0.0625
  36 H10       7.0534   -12.3942    -0.7445  H       1  <O>11       0.0654
  37 H11       8.1211   -12.9722     1.3361  H       1  <O>11       0.0831
  38 H12       2.6396   -12.0550     4.0271  H       1  <O>11       0.0636
  39 H13       0.4531   -11.0070     3.9826  H       1  <O>11       0.0618
  40 H14       0.2562    -8.5979     3.7182  H       1  <O>11       0.0625
  41 H15       4.4532    -8.2755     3.5444  H       1  <O>11       0.0644
  42 H16       6.4118    -9.8736    -1.7419  H       1  <O>11       0.0625
  43 H17       5.2702    -9.2259    -3.7844  H       1  <O>11       0.0636
@<TRIPOS>BOND
     1     1     2    1
     2     2     3    2
     3     2     4   am
     4     4     5    1
     5     5     6   ar
     6     6     7   ar
     7     7     8   ar
     8     8     9    1
     9     9    10   ar
    10    10    11   ar
    11    11    12   ar
    12    12    13   ar
    13    13    14    1
    14    14    15    1
    15    15    16   ar
    16    16    17   ar
    17    17    18   ar
    18    18    19   ar
    19    19    20    1
    20    20    21   am
    21    20    22    2
    22    19    23   ar
    23    15    23   ar
    24    13    24   ar
    25     9    24   ar
    26     8    25   ar
    27    25    26   ar
    28     5    26   ar
    29     1    27    1
    30     1    28    1
    31     1    29    1
    32     4    30    1
    33    14    31    1
    34    21    32    1
    35    21    33    1
    36     6    34    1
    37     7    35    1
    38    10    36    1
    39    11    37    1
    40    16    38    1
    41    17    39    1
    42    18    40    1
    43    23    41    1
    44    25    42    1
    45    26    43    1
@<TRIPOS>MOLECULE
mol63_2_6
 43 45 0 0 0
SMALL
USER_CHARGES
****
VDW energy = -180.75
@<TRIPOS>ATOM
   1 C1        2.7323    -8.7181    -6.6515  C.3     1  <O>11       0.0125
   2 C2        3.4528    -9.1250    -5.4100  C.2     1  <O>11       0.2141
   3 O1        4.6297    -8.8309    -5.2623  O.2     1  <O>11      -0.2758
   4 N1        2.7960    -9.8280    -4.4360  N.am    1  <O>11      -0.2857
   5 C3        3.4640   -10.2050    -3.2840  C.ar    1  <O>11       0.0334
   6 C4        2.8054   -10.9936    -2.3381  C.ar    1  <O>11      -0.0399
   7 C5        3.4709   -11.3684    -1.1651  C.ar    1  <O>11      -0.0508
   8 C6        4.7894   -10.9608    -0.9432  C.ar    1  <O>11       0.0006
   9 C7        5.4725   -11.3373     0.2501  C.ar    1  <O>11       0.0760
  10 C8        5.3966   -10.5040     1.3862  C.ar    1  <O>11      -0.0174
  11 C9        6.0825   -10.9402     2.4917  C.ar    1  <O>11       0.0332
  12 N2        6.7916   -12.0847     2.5253  N.ar    1  <O>11      -0.2226
  13 C10       6.8148   -12.8229     1.4037  C.ar    1  <O>11       0.2200
  14 N3        7.5471   -14.0634     1.3464  N.pl3   1  <O>11      -0.2836
  15 C11       7.7026   -14.7556     0.0813  C.ar    1  <O>11       0.0343
  16 C12       8.4525   -14.1770    -0.9580  C.ar    1  <O>11      -0.0404
  17 C13       8.5903   -14.8401    -2.1805  C.ar    1  <O>11      -0.0593
  18 C14       7.9878   -16.0854    -2.3794  C.ar    1  <O>11      -0.0495
  19 C15       7.2470   -16.6629    -1.3449  C.ar    1  <O>11       0.0382
  20 C16       6.6247   -17.9531    -1.5538  C.2     1  <O>11       0.2416
  21 N4        5.8436   -18.5055    -0.5739  N.am    1  <O>11      -0.3253
  22 O2        6.7934   -18.5493    -2.6083  O.2     1  <O>11      -0.2704
  23 C17       7.1028   -16.0110    -0.1181  C.ar    1  <O>11      -0.0284
  24 N5        6.1741   -12.4757     0.2741  N.ar    1  <O>11      -0.2142
  25 C18       5.4385   -10.1764    -1.9034  C.ar    1  <O>11      -0.0508
  26 C19       4.7839    -9.7989    -3.0772  C.ar    1  <O>11      -0.0399
  27 H1        1.7006    -9.0664    -6.6035  H       1  <O>11       0.0323
  28 H2        3.2247    -9.1590    -7.5183  H       1  <O>11       0.0323
  29 H3        2.7453    -7.6318    -6.7397  H       1  <O>11       0.0323
  30 H4        1.8130   -10.0730    -4.5590  H       1  <O>11       0.1548
  31 H5        7.9562   -14.4534     2.1955  H       1  <O>11       0.1550
  32 H6        5.7010   -18.0076     0.3051  H       1  <O>11       0.1453
  33 H7        5.4060   -19.4145    -0.7224  H       1  <O>11       0.1453
  34 H8        1.8333   -11.2983    -2.5031  H       1  <O>11       0.0636
  35 H9        2.9863   -11.9476    -0.4617  H       1  <O>11       0.0625
  36 H10       4.8596    -9.6227     1.3858  H       1  <O>11       0.0654
  37 H11       6.0535   -10.3593     3.3442  H       1  <O>11       0.0831
  38 H12       8.9029   -13.2592    -0.8175  H       1  <O>11       0.0636
  39 H13       9.1395   -14.4082    -2.9400  H       1  <O>11       0.0618
  40 H14       8.0893   -16.5742    -3.2826  H       1  <O>11       0.0625
  41 H15       6.5574   -16.4500     0.6400  H       1  <O>11       0.0644
  42 H16       6.4118    -9.8736    -1.7419  H       1  <O>11       0.0625
  43 H17       5.2702    -9.2259    -3.7844  H       1  <O>11       0.0636
@<TRIPOS>BOND
     1     1     2    1
     2     2     3    2
     3     2     4   am
     4     4     5    1
     5     5     6   ar
     6     6     7   ar
     7     7     8   ar
     8     8     9    1
     9     9    10   ar
    10    10    11   ar
    11    11    12   ar
    12    12    13   ar
    13    13    14    1
    14    14    15    1
    15    15    16   ar
    16    16    17   ar
    17    17    18   ar
    18    18    19   ar
    19    19    20    1
    20    20    21   am
    21    20    22    2
    22    19    23   ar
    23    15    23   ar
    24    13    24   ar
    25     9    24   ar
    26     8    25   ar
    27    25    26   ar
    28     5    26   ar
    29     1    27    1
    30     1    28    1
    31     1    29    1
    32     4    30    1
    33    14    31    1
    34    21    32    1
    35    21    33    1
    36     6    34    1
    37     7    35    1
    38    10    36    1
    39    11    37    1
    40    16    38    1
    41    17    39    1
    42    18    40    1
    43    23    41    1
    44    25    42    1
    45    26    43    1
@<TRIPOS>MOLECULE
mol63_2_7
 43 45 0 0 0
SMALL
USER_CHARGES
****
VDW energy = -180.21
@<TRIPOS>ATOM
   1 C1        2.7323    -8.7181    -6.6515  C.3     1  <O>11       0.0125
   2 C2        3.4528    -9.1250    -5.4100  C.2     1  <O>11       0.2141
   3 O1        4.6297    -8.8309    -5.2623  O.2     1  <O>11      -0.2758
   4 N1        2.7960    -9.8280    -4.4360  N.am    1  <O>11      -0.2857
   5 C3        3.4640   -10.2050    -3.2840  C.ar    1  <O>11       0.0334
   6 C4        2.8054   -10.9936    -2.3381  C.ar    1  <O>11      -0.0399
   7 C5        3.4709   -11.3684    -1.1651  C.ar    1  <O>11      -0.0508
   8 C6        4.7894   -10.9608    -0.9432  C.ar    1  <O>11       0.0006
   9 C7        5.4725   -11.3373     0.2501  C.ar    1  <O>11       0.0760
  10 C8        5.3966   -10.5040     1.3862  C.ar    1  <O>11      -0.0174
  11 C9        6.0825   -10.9402     2.4917  C.ar    1  <O>11       0.0332
  12 N2        6.7916   -12.0847     2.5253  N.ar    1  <O>11      -0.2226
  13 C10       6.8148   -12.8229     1.4037  C.ar    1  <O>11       0.2200
  14 N3        7.5471   -14.0634     1.3464  N.pl3   1  <O>11      -0.2836
  15 C11       6.8941   -15.3080     1.7051  C.ar    1  <O>11       0.0343
  16 C12       6.4687   -15.5323     3.0264  C.ar    1  <O>11      -0.0404
  17 C13       5.8512   -16.7373     3.3724  C.ar    1  <O>11      -0.0593
  18 C14       5.6473   -17.7279     2.4078  C.ar    1  <O>11      -0.0495
  19 C15       6.0652   -17.5030     1.0936  C.ar    1  <O>11       0.0382
  20 C16       5.8521   -18.5307     0.0966  C.2     1  <O>11       0.2416
  21 N4        6.3109   -18.3533    -1.1815  N.am    1  <O>11      -0.3253
  22 O2        5.2649   -19.5607     0.3968  O.2     1  <O>11      -0.2704
  23 C17       6.6824   -16.3025     0.7347  C.ar    1  <O>11      -0.0284
  24 N5        6.1741   -12.4757     0.2741  N.ar    1  <O>11      -0.2142
  25 C18       5.4385   -10.1764    -1.9034  C.ar    1  <O>11      -0.0508
  26 C19       4.7839    -9.7989    -3.0772  C.ar    1  <O>11      -0.0399
  27 H1        1.7006    -9.0664    -6.6035  H       1  <O>11       0.0323
  28 H2        3.2247    -9.1590    -7.5183  H       1  <O>11       0.0323
  29 H3        2.7453    -7.6318    -6.7397  H       1  <O>11       0.0323
  30 H4        1.8130   -10.0730    -4.5590  H       1  <O>11       0.1548
  31 H5        8.5240   -14.0654     1.0529  H       1  <O>11       0.1550
  32 H6        6.8025   -17.4951    -1.4318  H       1  <O>11       0.1453
  33 H7        6.1599   -19.0781    -1.8828  H       1  <O>11       0.1453
  34 H8        1.8333   -11.2983    -2.5031  H       1  <O>11       0.0636
  35 H9        2.9863   -11.9476    -0.4617  H       1  <O>11       0.0625
  36 H10       4.8596    -9.6227     1.3858  H       1  <O>11       0.0654
  37 H11       6.0535   -10.3593     3.3442  H       1  <O>11       0.0831
  38 H12       6.6131   -14.8043     3.7435  H       1  <O>11       0.0636
  39 H13       5.5443   -16.8965     4.3448  H       1  <O>11       0.0618
  40 H14       5.1920   -18.6179     2.6640  H       1  <O>11       0.0625
  41 H15       6.9822   -16.1461    -0.2403  H       1  <O>11       0.0644
  42 H16       6.4118    -9.8736    -1.7419  H       1  <O>11       0.0625
  43 H17       5.2702    -9.2259    -3.7844  H       1  <O>11       0.0636
@<TRIPOS>BOND
     1     1     2    1
     2     2     3    2
     3     2     4   am
     4     4     5    1
     5     5     6   ar
     6     6     7   ar
     7     7     8   ar
     8     8     9    1
     9     9    10   ar
    10    10    11   ar
    11    11    12   ar
    12    12    13   ar
    13    13    14    1
    14    14    15    1
    15    15    16   ar
    16    16    17   ar
    17    17    18   ar
    18    18    19   ar
    19    19    20    1
    20    20    21   am
    21    20    22    2
    22    19    23   ar
    23    15    23   ar
    24    13    24   ar
    25     9    24   ar
    26     8    25   ar
    27    25    26   ar
    28     5    26   ar
    29     1    27    1
    30     1    28    1
    31     1    29    1
    32     4    30    1
    33    14    31    1
    34    21    32    1
    35    21    33    1
    36     6    34    1
    37     7    35    1
    38    10    36    1
    39    11    37    1
    40    16    38    1
    41    17    39    1
    42    18    40    1
    43    23    41    1
    44    25    42    1
    45    26    43    1
@<TRIPOS>MOLECULE
mol63_2_8
 43 45 0 0 0
SMALL
USER_CHARGES
****
VDW energy = -180.14
@<TRIPOS>ATOM
   1 C1        2.7323    -8.7181    -6.6515  C.3     1  <O>11       0.0125
   2 C2        3.4528    -9.1250    -5.4100  C.2     1  <O>11       0.2141
   3 O1        4.6297    -8.8309    -5.2623  O.2     1  <O>11      -0.2758
   4 N1        2.7960    -9.8280    -4.4360  N.am    1  <O>11      -0.2857
   5 C3        3.4640   -10.2050    -3.2840  C.ar    1  <O>11       0.0334
   6 C4        2.8054   -10.9936    -2.3381  C.ar    1  <O>11      -0.0399
   7 C5        3.4709   -11.3684    -1.1651  C.ar    1  <O>11      -0.0508
   8 C6        4.7894   -10.9608    -0.9432  C.ar    1  <O>11       0.0006
   9 C7        5.4725   -11.3373     0.2501  C.ar    1  <O>11       0.0760
  10 C8        5.3966   -10.5040     1.3862  C.ar    1  <O>11      -0.0174
  11 C9        6.0825   -10.9402     2.4917  C.ar    1  <O>11       0.0332
  12 N2        6.7916   -12.0847     2.5253  N.ar    1  <O>11      -0.2226
  13 C10       6.8148   -12.8229     1.4037  C.ar    1  <O>11       0.2200
  14 N3        7.5471   -14.0634     1.3464  N.pl3   1  <O>11      -0.2836
  15 C11       7.7026   -14.7556     0.0813  C.ar    1  <O>11       0.0343
  16 C12       6.5831   -15.2983    -0.5742  C.ar    1  <O>11      -0.0404
  17 C13       6.7371   -15.9759    -1.7868  C.ar    1  <O>11      -0.0593
  18 C14       8.0037   -16.1164    -2.3605  C.ar    1  <O>11      -0.0495
  19 C15       9.1155   -15.5726    -1.7119  C.ar    1  <O>11       0.0382
  20 C16      10.4260   -15.7193    -2.3089  C.2     1  <O>11       0.2416
  21 N4       11.5343   -15.2476    -1.6572  N.am    1  <O>11      -0.3253
  22 O2       10.5445   -16.2686    -3.3953  O.2     1  <O>11      -0.2704
  23 C17       8.9748   -14.8921    -0.5003  C.ar    1  <O>11      -0.0284
  24 N5        6.1741   -12.4757     0.2741  N.ar    1  <O>11      -0.2142
  25 C18       5.4385   -10.1764    -1.9034  C.ar    1  <O>11      -0.0508
  26 C19       4.7839    -9.7989    -3.0772  C.ar    1  <O>11      -0.0399
  27 H1        1.7006    -9.0664    -6.6035  H       1  <O>11       0.0323
  28 H2        3.2247    -9.1590    -7.5183  H       1  <O>11       0.0323
  29 H3        2.7453    -7.6318    -6.7397  H       1  <O>11       0.0323
  30 H4        1.8130   -10.0730    -4.5590  H       1  <O>11       0.1548
  31 H5        7.9562   -14.4534     2.1955  H       1  <O>11       0.1550
  32 H6       11.4361   -14.7911    -0.7502  H       1  <O>11       0.1453
  33 H7       12.4569   -15.3515    -2.0791  H       1  <O>11       0.1453
  34 H8        1.8333   -11.2983    -2.5031  H       1  <O>11       0.0636
  35 H9        2.9863   -11.9476    -0.4617  H       1  <O>11       0.0625
  36 H10       4.8596    -9.6227     1.3858  H       1  <O>11       0.0654
  37 H11       6.0535   -10.3593     3.3442  H       1  <O>11       0.0831
  38 H12       5.6442   -15.1959    -0.1583  H       1  <O>11       0.0636
  39 H13       5.9115   -16.3744    -2.2609  H       1  <O>11       0.0618
  40 H14       8.1169   -16.6175    -3.2555  H       1  <O>11       0.0625
  41 H15       9.8029   -14.4905    -0.0333  H       1  <O>11       0.0644
  42 H16       6.4118    -9.8736    -1.7419  H       1  <O>11       0.0625
  43 H17       5.2702    -9.2259    -3.7844  H       1  <O>11       0.0636
@<TRIPOS>BOND
     1     1     2    1
     2     2     3    2
     3     2     4   am
     4     4     5    1
     5     5     6   ar
     6     6     7   ar
     7     7     8   ar
     8     8     9    1
     9     9    10   ar
    10    10    11   ar
    11    11    12   ar
    12    12    13   ar
    13    13    14    1
    14    14    15    1
    15    15    16   ar
    16    16    17   ar
    17    17    18   ar
    18    18    19   ar
    19    19    20    1
    20    20    21   am
    21    20    22    2
    22    19    23   ar
    23    15    23   ar
    24    13    24   ar
    25     9    24   ar
    26     8    25   ar
    27    25    26   ar
    28     5    26   ar
    29     1    27    1
    30     1    28    1
    31     1    29    1
    32     4    30    1
    33    14    31    1
    34    21    32    1
    35    21    33    1
    36     6    34    1
    37     7    35    1
    38    10    36    1
    39    11    37    1
    40    16    38    1
    41    17    39    1
    42    18    40    1
    43    23    41    1
    44    25    42    1
    45    26    43    1
@<TRIPOS>MOLECULE
mol63_2_9
 43 45 0 0 0
SMALL
USER_CHARGES
****
VDW energy = -179.90
@<TRIPOS>ATOM
   1 C1        2.7323    -8.7181    -6.6515  C.3     1  <O>11       0.0125
   2 C2        3.4528    -9.1250    -5.4100  C.2     1  <O>11       0.2141
   3 O1        4.6297    -8.8309    -5.2623  O.2     1  <O>11      -0.2758
   4 N1        2.7960    -9.8280    -4.4360  N.am    1  <O>11      -0.2857
   5 C3        3.4640   -10.2050    -3.2840  C.ar    1  <O>11       0.0334
   6 C4        2.8054   -10.9936    -2.3381  C.ar    1  <O>11      -0.0399
   7 C5        3.4709   -11.3684    -1.1651  C.ar    1  <O>11      -0.0508
   8 C6        4.7894   -10.9608    -0.9432  C.ar    1  <O>11       0.0006
   9 C7        5.4725   -11.3373     0.2501  C.ar    1  <O>11       0.0760
  10 C8        5.9502   -10.3362     1.1222  C.ar    1  <O>11      -0.0174
  11 C9        6.5955   -10.7846     2.2471  C.ar    1  <O>11       0.0332
  12 N2        6.7780   -12.0882     2.5320  N.ar    1  <O>11      -0.2226
  13 C10       6.2940   -12.9800     1.6523  C.ar    1  <O>11       0.2200
  14 N3        6.4420   -14.3969     1.8739  N.pl3   1  <O>11      -0.2836
  15 C11       5.7676   -15.0302     2.9910  C.ar    1  <O>11       0.0343
  16 C12       4.4709   -15.5514     2.8356  C.ar    1  <O>11      -0.0404
  17 C13       3.8182   -16.1498     3.9168  C.ar    1  <O>11      -0.0593
  18 C14       4.4498   -16.2393     5.1603  C.ar    1  <O>11      -0.0495
  19 C15       5.7404   -15.7262     5.3136  C.ar    1  <O>11       0.0382
  20 C16       6.3921   -15.8209     6.6026  C.2     1  <O>11       0.2416
  21 N4        7.6313   -15.2683     6.7879  N.am    1  <O>11      -0.3253
  22 O2        5.8339   -16.3920     7.5291  O.2     1  <O>11      -0.2704
  23 C17       6.4039   -15.1269     4.2405  C.ar    1  <O>11      -0.0284
  24 N5        5.6490   -12.6343     0.5247  N.ar    1  <O>11      -0.2142
  25 C18       5.4385   -10.1764    -1.9034  C.ar    1  <O>11      -0.0508
  26 C19       4.7839    -9.7989    -3.0772  C.ar    1  <O>11      -0.0399
  27 H1        1.7006    -9.0664    -6.6035  H       1  <O>11       0.0323
  28 H2        3.2247    -9.1590    -7.5183  H       1  <O>11       0.0323
  29 H3        2.7453    -7.6318    -6.7397  H       1  <O>11       0.0323
  30 H4        1.8130   -10.0730    -4.5590  H       1  <O>11       0.1548
  31 H5        7.0203   -14.9534     1.2445  H       1  <O>11       0.1550
  32 H6        8.0965   -14.7902     6.0160  H       1  <O>11       0.1453
  33 H7        8.0893   -15.3359     7.6965  H       1  <O>11       0.1453
  34 H8        1.8333   -11.2983    -2.5031  H       1  <O>11       0.0636
  35 H9        2.9863   -11.9476    -0.4617  H       1  <O>11       0.0625
  36 H10       5.8224    -9.3310     0.9266  H       1  <O>11       0.0654
  37 H11       6.9610   -10.0845     2.9113  H       1  <O>11       0.0831
  38 H12       3.9993   -15.4917     1.9196  H       1  <O>11       0.0636
  39 H13       2.8653   -16.5274     3.7965  H       1  <O>11       0.0618
  40 H14       3.9670   -16.6806     5.9586  H       1  <O>11       0.0625
  41 H15       7.3589   -14.7561     4.3648  H       1  <O>11       0.0644
  42 H16       6.4118    -9.8736    -1.7419  H       1  <O>11       0.0625
  43 H17       5.2702    -9.2259    -3.7844  H       1  <O>11       0.0636
@<TRIPOS>BOND
     1     1     2    1
     2     2     3    2
     3     2     4   am
     4     4     5    1
     5     5     6   ar
     6     6     7   ar
     7     7     8   ar
     8     8     9    1
     9     9    10   ar
    10    10    11   ar
    11    11    12   ar
    12    12    13   ar
    13    13    14    1
    14    14    15    1
    15    15    16   ar
    16    16    17   ar
    17    17    18   ar
    18    18    19   ar
    19    19    20    1
    20    20    21   am
    21    20    22    2
    22    19    23   ar
    23    15    23   ar
    24    13    24   ar
    25     9    24   ar
    26     8    25   ar
    27    25    26   ar
    28     5    26   ar
    29     1    27    1
    30     1    28    1
    31     1    29    1
    32     4    30    1
    33    14    31    1
    34    21    32    1
    35    21    33    1
    36     6    34    1
    37     7    35    1
    38    10    36    1
    39    11    37    1
    40    16    38    1
    41    17    39    1
    42    18    40    1
    43    23    41    1
    44    25    42    1
    45    26    43    1
@<TRIPOS>MOLECULE
mol63_2_10
 43 45 0 0 0
SMALL
USER_CHARGES
****
VDW energy = -179.87
@<TRIPOS>ATOM
   1 C1        2.7323    -8.7181    -6.6515  C.3     1  <O>11       0.0125
   2 C2        3.4528    -9.1250    -5.4100  C.2     1  <O>11       0.2141
   3 O1        4.6297    -8.8309    -5.2623  O.2     1  <O>11      -0.2758
   4 N1        2.7960    -9.8280    -4.4360  N.am    1  <O>11      -0.2857
   5 C3        3.4640   -10.2050    -3.2840  C.ar    1  <O>11       0.0334
   6 C4        2.8054   -10.9936    -2.3381  C.ar    1  <O>11      -0.0399
   7 C5        3.4709   -11.3684    -1.1651  C.ar    1  <O>11      -0.0508
   8 C6        4.7894   -10.9608    -0.9432  C.ar    1  <O>11       0.0006
   9 C7        5.4725   -11.3373     0.2501  C.ar    1  <O>11       0.0760
  10 C8        6.6581   -12.0973     0.1614  C.ar    1  <O>11      -0.0174
  11 C9        7.2518   -12.4164     1.3565  C.ar    1  <O>11       0.0332
  12 N2        6.7624   -12.0442     2.5548  N.ar    1  <O>11      -0.2226
  13 C10       5.6301   -11.3222     2.5554  C.ar    1  <O>11       0.2200
  14 N3        5.0330   -10.8789     3.7904  N.pl3   1  <O>11      -0.2836
  15 C11       4.4957   -11.8492     4.7252  C.ar    1  <O>11       0.0343
  16 C12       3.1520   -12.2540     4.6355  C.ar    1  <O>11      -0.0404
  17 C13       2.6332   -13.1795     5.5451  C.ar    1  <O>11      -0.0593
  18 C14       3.4459   -13.7137     6.5488  C.ar    1  <O>11      -0.0495
  19 C15       4.7824   -13.3156     6.6348  C.ar    1  <O>11       0.0382
  20 C16       5.6217   -13.8711     7.6752  C.2     1  <O>11       0.2416
  21 N4        6.9162   -13.4460     7.8135  N.am    1  <O>11      -0.3253
  22 O2        5.1733   -14.7187     8.4345  O.2     1  <O>11      -0.2704
  23 C17       5.3133   -12.3923     5.7311  C.ar    1  <O>11      -0.0284
  24 N5        4.9791   -10.9630     1.4355  N.ar    1  <O>11      -0.2142
  25 C18       5.4385   -10.1764    -1.9034  C.ar    1  <O>11      -0.0508
  26 C19       4.7839    -9.7989    -3.0772  C.ar    1  <O>11      -0.0399
  27 H1        1.7006    -9.0664    -6.6035  H       1  <O>11       0.0323
  28 H2        3.2247    -9.1590    -7.5183  H       1  <O>11       0.0323
  29 H3        2.7453    -7.6318    -6.7397  H       1  <O>11       0.0323
  30 H4        1.8130   -10.0730    -4.5590  H       1  <O>11       0.1548
  31 H5        4.9892    -9.8830     4.0067  H       1  <O>11       0.1550
  32 H6        7.2900   -12.7376     7.1816  H       1  <O>11       0.1453
  33 H7        7.5064   -13.8384     8.5468  H       1  <O>11       0.1453
  34 H8        1.8333   -11.2983    -2.5031  H       1  <O>11       0.0636
  35 H9        2.9863   -11.9476    -0.4617  H       1  <O>11       0.0625
  36 H10       7.0534   -12.3942    -0.7445  H       1  <O>11       0.0654
  37 H11       8.1211   -12.9722     1.3361  H       1  <O>11       0.0831
  38 H12       2.5467   -11.8663     3.8951  H       1  <O>11       0.0636
  39 H13       1.6453   -13.4699     5.4753  H       1  <O>11       0.0618
  40 H14       3.0620   -14.3965     7.2208  H       1  <O>11       0.0625
  41 H15       6.3034   -12.1098     5.8017  H       1  <O>11       0.0644
  42 H16       6.4118    -9.8736    -1.7419  H       1  <O>11       0.0625
  43 H17       5.2702    -9.2259    -3.7844  H       1  <O>11       0.0636
@<TRIPOS>BOND
     1     1     2    1
     2     2     3    2
     3     2     4   am
     4     4     5    1
     5     5     6   ar
     6     6     7   ar
     7     7     8   ar
     8     8     9    1
     9     9    10   ar
    10    10    11   ar
    11    11    12   ar
    12    12    13   ar
    13    13    14    1
    14    14    15    1
    15    15    16   ar
    16    16    17   ar
    17    17    18   ar
    18    18    19   ar
    19    19    20    1
    20    20    21   am
    21    20    22    2
    22    19    23   ar
    23    15    23   ar
    24    13    24   ar
    25     9    24   ar
    26     8    25   ar
    27    25    26   ar
    28     5    26   ar
    29     1    27    1
    30     1    28    1
    31     1    29    1
    32     4    30    1
    33    14    31    1
    34    21    32    1
    35    21    33    1
    36     6    34    1
    37     7    35    1
    38    10    36    1
    39    11    37    1
    40    16    38    1
    41    17    39    1
    42    18    40    1
    43    23    41    1
    44    25    42    1
    45    26    43    1
@<TRIPOS>MOLECULE
mol63_2_11
 43 45 0 0 0
SMALL
USER_CHARGES
****
VDW energy = -179.81
@<TRIPOS>ATOM
   1 C1        2.7323    -8.7181    -6.6515  C.3     1  <O>11       0.0125
   2 C2        3.4528    -9.1250    -5.4100  C.2     1  <O>11       0.2141
   3 O1        4.6297    -8.8309    -5.2623  O.2     1  <O>11      -0.2758
   4 N1        2.7960    -9.8280    -4.4360  N.am    1  <O>11      -0.2857
   5 C3        3.4640   -10.2050    -3.2840  C.ar    1  <O>11       0.0334
   6 C4        2.8054   -10.9936    -2.3381  C.ar    1  <O>11      -0.0399
   7 C5        3.4709   -11.3684    -1.1651  C.ar    1  <O>11      -0.0508
   8 C6        4.7894   -10.9608    -0.9432  C.ar    1  <O>11       0.0006
   9 C7        5.4725   -11.3373     0.2501  C.ar    1  <O>11       0.0760
  10 C8        6.6581   -12.0973     0.1614  C.ar    1  <O>11      -0.0174
  11 C9        7.2518   -12.4164     1.3565  C.ar    1  <O>11       0.0332
  12 N2        6.7624   -12.0442     2.5548  N.ar    1  <O>11      -0.2226
  13 C10       5.6301   -11.3222     2.5554  C.ar    1  <O>11       0.2200
  14 N3        5.0330   -10.8789     3.7904  N.pl3   1  <O>11      -0.2836
  15 C11       5.7266    -9.9184     4.6272  C.ar    1  <O>11       0.0343
  16 C12       5.5204    -8.5391     4.4470  C.ar    1  <O>11      -0.0404
  17 C13       6.1995    -7.6153     5.2461  C.ar    1  <O>11      -0.0593
  18 C14       7.0859    -8.0539     6.2335  C.ar    1  <O>11      -0.0495
  19 C15       7.2870    -9.4245     6.4163  C.ar    1  <O>11       0.0382
  20 C16       8.2053    -9.8756     7.4403  C.2     1  <O>11       0.2416
  21 N4        8.4621   -11.2122     7.5920  N.am    1  <O>11      -0.3253
  22 O2        8.7558    -9.0619     8.1688  O.2     1  <O>11      -0.2704
  23 C17       6.6134   -10.3580     5.6251  C.ar    1  <O>11      -0.0284
  24 N5        4.9791   -10.9630     1.4355  N.ar    1  <O>11      -0.2142
  25 C18       5.4385   -10.1764    -1.9034  C.ar    1  <O>11      -0.0508
  26 C19       4.7839    -9.7989    -3.0772  C.ar    1  <O>11      -0.0399
  27 H1        1.7006    -9.0664    -6.6035  H       1  <O>11       0.0323
  28 H2        3.2247    -9.1590    -7.5183  H       1  <O>11       0.0323
  29 H3        2.7453    -7.6318    -6.7397  H       1  <O>11       0.0323
  30 H4        1.8130   -10.0730    -4.5590  H       1  <O>11       0.1548
  31 H5        4.1226   -11.2403     4.0749  H       1  <O>11       0.1550
  32 H6        8.0046   -11.8912     6.9832  H       1  <O>11       0.1453
  33 H7        9.1092   -11.5286     8.3139  H       1  <O>11       0.1453
  34 H8        1.8333   -11.2983    -2.5031  H       1  <O>11       0.0636
  35 H9        2.9863   -11.9476    -0.4617  H       1  <O>11       0.0625
  36 H10       7.0534   -12.3942    -0.7445  H       1  <O>11       0.0654
  37 H11       8.1211   -12.9722     1.3361  H       1  <O>11       0.0831
  38 H12       4.8650    -8.2078     3.7220  H       1  <O>11       0.0636
  39 H13       6.0457    -6.6044     5.1063  H       1  <O>11       0.0618
  40 H14       7.5878    -7.3712     6.8227  H       1  <O>11       0.0625
  41 H15       6.7665   -11.3678     5.7729  H       1  <O>11       0.0644
  42 H16       6.4118    -9.8736    -1.7419  H       1  <O>11       0.0625
  43 H17       5.2702    -9.2259    -3.7844  H       1  <O>11       0.0636
@<TRIPOS>BOND
     1     1     2    1
     2     2     3    2
     3     2     4   am
     4     4     5    1
     5     5     6   ar
     6     6     7   ar
     7     7     8   ar
     8     8     9    1
     9     9    10   ar
    10    10    11   ar
    11    11    12   ar
    12    12    13   ar
    13    13    14    1
    14    14    15    1
    15    15    16   ar
    16    16    17   ar
    17    17    18   ar
    18    18    19   ar
    19    19    20    1
    20    20    21   am
    21    20    22    2
    22    19    23   ar
    23    15    23   ar
    24    13    24   ar
    25     9    24   ar
    26     8    25   ar
    27    25    26   ar
    28     5    26   ar
    29     1    27    1
    30     1    28    1
    31     1    29    1
    32     4    30    1
    33    14    31    1
    34    21    32    1
    35    21    33    1
    36     6    34    1
    37     7    35    1
    38    10    36    1
    39    11    37    1
    40    16    38    1
    41    17    39    1
    42    18    40    1
    43    23    41    1
    44    25    42    1
    45    26    43    1
@<TRIPOS>MOLECULE
mol63_2_12
 43 45 0 0 0
SMALL
USER_CHARGES
****
VDW energy = -179.43
@<TRIPOS>ATOM
   1 C1        2.7323    -8.7181    -6.6515  C.3     1  <O>11       0.0125
   2 C2        3.4528    -9.1250    -5.4100  C.2     1  <O>11       0.2141
   3 O1        4.6297    -8.8309    -5.2623  O.2     1  <O>11      -0.2758
   4 N1        2.7960    -9.8280    -4.4360  N.am    1  <O>11      -0.2857
   5 C3        3.4640   -10.2050    -3.2840  C.ar    1  <O>11       0.0334
   6 C4        2.8054   -10.9936    -2.3381  C.ar    1  <O>11      -0.0399
   7 C5        3.4709   -11.3684    -1.1651  C.ar    1  <O>11      -0.0508
   8 C6        4.7894   -10.9608    -0.9432  C.ar    1  <O>11       0.0006
   9 C7        5.4725   -11.3373     0.2501  C.ar    1  <O>11       0.0760
  10 C8        6.6581   -12.0973     0.1614  C.ar    1  <O>11      -0.0174
  11 C9        7.2518   -12.4164     1.3565  C.ar    1  <O>11       0.0332
  12 N2        6.7624   -12.0442     2.5548  N.ar    1  <O>11      -0.2226
  13 C10       5.6301   -11.3222     2.5554  C.ar    1  <O>11       0.2200
  14 N3        5.0330   -10.8789     3.7904  N.pl3   1  <O>11      -0.2836
  15 C11       4.0579   -11.7143     4.4651  C.ar    1  <O>11       0.0343
  16 C12       4.4718   -12.6605     5.4195  C.ar    1  <O>11      -0.0404
  17 C13       3.5317   -13.4732     6.0590  C.ar    1  <O>11      -0.0593
  18 C14       2.1723   -13.3498     5.7589  C.ar    1  <O>11      -0.0495
  19 C15       1.7604   -12.4061     4.8144  C.ar    1  <O>11       0.0382
  20 C16       0.3516   -12.2804     4.5062  C.2     1  <O>11       0.2416
  21 N4       -0.0642   -11.4050     3.5386  N.am    1  <O>11      -0.3253
  22 O2       -0.4685   -12.9595     5.1079  O.2     1  <O>11      -0.2704
  23 C17       2.6898   -11.5870     4.1693  C.ar    1  <O>11      -0.0284
  24 N5        4.9791   -10.9630     1.4355  N.ar    1  <O>11      -0.2142
  25 C18       5.4385   -10.1764    -1.9034  C.ar    1  <O>11      -0.0508
  26 C19       4.7839    -9.7989    -3.0772  C.ar    1  <O>11      -0.0399
  27 H1        1.7006    -9.0664    -6.6035  H       1  <O>11       0.0323
  28 H2        3.2247    -9.1590    -7.5183  H       1  <O>11       0.0323
  29 H3        2.7453    -7.6318    -6.7397  H       1  <O>11       0.0323
  30 H4        1.8130   -10.0730    -4.5590  H       1  <O>11       0.1548
  31 H5        5.2970    -9.9781     4.1896  H       1  <O>11       0.1550
  32 H6        0.6197   -10.8397     3.0350  H       1  <O>11       0.1453
  33 H7       -1.0570   -11.3173     3.3226  H       1  <O>11       0.1453
  34 H8        1.8333   -11.2983    -2.5031  H       1  <O>11       0.0636
  35 H9        2.9863   -11.9476    -0.4617  H       1  <O>11       0.0625
  36 H10       7.0534   -12.3942    -0.7445  H       1  <O>11       0.0654
  37 H11       8.1211   -12.9722     1.3361  H       1  <O>11       0.0831
  38 H12       5.4735   -12.7552     5.6486  H       1  <O>11       0.0636
  39 H13       3.8427   -14.1676     6.7562  H       1  <O>11       0.0618
  40 H14       1.4786   -13.9508     6.2309  H       1  <O>11       0.0625
  41 H15       2.3729   -10.8902     3.4772  H       1  <O>11       0.0644
  42 H16       6.4118    -9.8736    -1.7419  H       1  <O>11       0.0625
  43 H17       5.2702    -9.2259    -3.7844  H       1  <O>11       0.0636
@<TRIPOS>BOND
     1     1     2    1
     2     2     3    2
     3     2     4   am
     4     4     5    1
     5     5     6   ar
     6     6     7   ar
     7     7     8   ar
     8     8     9    1
     9     9    10   ar
    10    10    11   ar
    11    11    12   ar
    12    12    13   ar
    13    13    14    1
    14    14    15    1
    15    15    16   ar
    16    16    17   ar
    17    17    18   ar
    18    18    19   ar
    19    19    20    1
    20    20    21   am
    21    20    22    2
    22    19    23   ar
    23    15    23   ar
    24    13    24   ar
    25     9    24   ar
    26     8    25   ar
    27    25    26   ar
    28     5    26   ar
    29     1    27    1
    30     1    28    1
    31     1    29    1
    32     4    30    1
    33    14    31    1
    34    21    32    1
    35    21    33    1
    36     6    34    1
    37     7    35    1
    38    10    36    1
    39    11    37    1
    40    16    38    1
    41    17    39    1
    42    18    40    1
    43    23    41    1
    44    25    42    1
    45    26    43    1
@<TRIPOS>MOLECULE
mol63_2_13
 43 45 0 0 0
SMALL
USER_CHARGES
****
VDW energy = -179.36
@<TRIPOS>ATOM
   1 C1        2.7323    -8.7181    -6.6515  C.3     1  <O>11       0.0125
   2 C2        3.4528    -9.1250    -5.4100  C.2     1  <O>11       0.2141
   3 O1        4.6297    -8.8309    -5.2623  O.2     1  <O>11      -0.2758
   4 N1        2.7960    -9.8280    -4.4360  N.am    1  <O>11      -0.2857
   5 C3        3.4640   -10.2050    -3.2840  C.ar    1  <O>11       0.0334
   6 C4        2.8054   -10.9936    -2.3381  C.ar    1  <O>11      -0.0399
   7 C5        3.4709   -11.3684    -1.1651  C.ar    1  <O>11      -0.0508
   8 C6        4.7894   -10.9608    -0.9432  C.ar    1  <O>11       0.0006
   9 C7        5.4725   -11.3373     0.2501  C.ar    1  <O>11       0.0760
  10 C8        5.9502   -10.3362     1.1222  C.ar    1  <O>11      -0.0174
  11 C9        6.5955   -10.7846     2.2471  C.ar    1  <O>11       0.0332
  12 N2        6.7780   -12.0882     2.5320  N.ar    1  <O>11      -0.2226
  13 C10       6.2940   -12.9800     1.6523  C.ar    1  <O>11       0.2200
  14 N3        6.4420   -14.3969     1.8739  N.pl3   1  <O>11      -0.2836
  15 C11       5.4233   -15.1266     2.6043  C.ar    1  <O>11       0.0343
  16 C12       5.5091   -15.2606     4.0015  C.ar    1  <O>11      -0.0404
  17 C13       4.5330   -15.9750     4.7017  C.ar    1  <O>11      -0.0593
  18 C14       3.4614   -16.5587     4.0203  C.ar    1  <O>11      -0.0495
  19 C15       3.3732   -16.4212     2.6326  C.ar    1  <O>11       0.0382
  20 C16       2.2618   -17.0264     1.9299  C.2     1  <O>11       0.2416
  21 N4        2.1922   -16.9553     0.5640  N.am    1  <O>11      -0.3253
  22 O2        1.3853   -17.6056     2.5562  O.2     1  <O>11      -0.2704
  23 C17       4.3414   -15.7087     1.9214  C.ar    1  <O>11      -0.0284
  24 N5        5.6490   -12.6343     0.5247  N.ar    1  <O>11      -0.2142
  25 C18       5.4385   -10.1764    -1.9034  C.ar    1  <O>11      -0.0508
  26 C19       4.7839    -9.7989    -3.0772  C.ar    1  <O>11      -0.0399
  27 H1        1.7006    -9.0664    -6.6035  H       1  <O>11       0.0323
  28 H2        3.2247    -9.1590    -7.5183  H       1  <O>11       0.0323
  29 H3        2.7453    -7.6318    -6.7397  H       1  <O>11       0.0323
  30 H4        1.8130   -10.0730    -4.5590  H       1  <O>11       0.1548
  31 H5        7.2627   -14.8856     1.5163  H       1  <O>11       0.1550
  32 H6        2.9241   -16.4740     0.0410  H       1  <O>11       0.1453
  33 H7        1.4086   -17.3820     0.0703  H       1  <O>11       0.1453
  34 H8        1.8333   -11.2983    -2.5031  H       1  <O>11       0.0636
  35 H9        2.9863   -11.9476    -0.4617  H       1  <O>11       0.0625
  36 H10       5.8224    -9.3310     0.9266  H       1  <O>11       0.0654
  37 H11       6.9610   -10.0845     2.9113  H       1  <O>11       0.0831
  38 H12       6.2957   -14.8297     4.5118  H       1  <O>11       0.0636
  39 H13       4.6039   -16.0720     5.7267  H       1  <O>11       0.0618
  40 H14       2.7415   -17.0868     4.5378  H       1  <O>11       0.0625
  41 H15       4.2627   -15.6098     0.8972  H       1  <O>11       0.0644
  42 H16       6.4118    -9.8736    -1.7419  H       1  <O>11       0.0625
  43 H17       5.2702    -9.2259    -3.7844  H       1  <O>11       0.0636
@<TRIPOS>BOND
     1     1     2    1
     2     2     3    2
     3     2     4   am
     4     4     5    1
     5     5     6   ar
     6     6     7   ar
     7     7     8   ar
     8     8     9    1
     9     9    10   ar
    10    10    11   ar
    11    11    12   ar
    12    12    13   ar
    13    13    14    1
    14    14    15    1
    15    15    16   ar
    16    16    17   ar
    17    17    18   ar
    18    18    19   ar
    19    19    20    1
    20    20    21   am
    21    20    22    2
    22    19    23   ar
    23    15    23   ar
    24    13    24   ar
    25     9    24   ar
    26     8    25   ar
    27    25    26   ar
    28     5    26   ar
    29     1    27    1
    30     1    28    1
    31     1    29    1
    32     4    30    1
    33    14    31    1
    34    21    32    1
    35    21    33    1
    36     6    34    1
    37     7    35    1
    38    10    36    1
    39    11    37    1
    40    16    38    1
    41    17    39    1
    42    18    40    1
    43    23    41    1
    44    25    42    1
    45    26    43    1
@<TRIPOS>MOLECULE
mol63_2_14
 43 45 0 0 0
SMALL
USER_CHARGES
****
VDW energy = -178.96
@<TRIPOS>ATOM
   1 C1        2.7323    -8.7181    -6.6515  C.3     1  <O>11       0.0125
   2 C2        3.4528    -9.1250    -5.4100  C.2     1  <O>11       0.2141
   3 O1        4.6297    -8.8309    -5.2623  O.2     1  <O>11      -0.2758
   4 N1        2.7960    -9.8280    -4.4360  N.am    1  <O>11      -0.2857
   5 C3        3.4640   -10.2050    -3.2840  C.ar    1  <O>11       0.0334
   6 C4        2.8054   -10.9936    -2.3381  C.ar    1  <O>11      -0.0399
   7 C5        3.4709   -11.3684    -1.1651  C.ar    1  <O>11      -0.0508
   8 C6        4.7894   -10.9608    -0.9432  C.ar    1  <O>11       0.0006
   9 C7        5.4725   -11.3373     0.2501  C.ar    1  <O>11       0.0760
  10 C8        5.9502   -10.3362     1.1222  C.ar    1  <O>11      -0.0174
  11 C9        6.5955   -10.7846     2.2471  C.ar    1  <O>11       0.0332
  12 N2        6.7780   -12.0882     2.5320  N.ar    1  <O>11      -0.2226
  13 C10       6.2940   -12.9800     1.6523  C.ar    1  <O>11       0.2200
  14 N3        6.4420   -14.3969     1.8739  N.pl3   1  <O>11      -0.2836
  15 C11       6.0684   -15.3362     0.8337  C.ar    1  <O>11       0.0343
  16 C12       4.7248   -15.4614     0.4383  C.ar    1  <O>11      -0.0404
  17 C13       4.3655   -16.3762    -0.5553  C.ar    1  <O>11      -0.0593
  18 C14       5.3384   -17.1712    -1.1674  C.ar    1  <O>11      -0.0495
  19 C15       6.6743   -17.0431    -0.7783  C.ar    1  <O>11       0.0382
  20 C16       7.6797   -17.8676    -1.4145  C.2     1  <O>11       0.2416
  21 N4        8.9841   -17.8005    -1.0027  N.am    1  <O>11      -0.3253
  22 O2        7.3636   -18.6282    -2.3187  O.2     1  <O>11      -0.2704
  23 C17       7.0465   -16.1318     0.2126  C.ar    1  <O>11      -0.0284
  24 N5        5.6490   -12.6343     0.5247  N.ar    1  <O>11      -0.2142
  25 C18       5.4385   -10.1764    -1.9034  C.ar    1  <O>11      -0.0508
  26 C19       4.7839    -9.7989    -3.0772  C.ar    1  <O>11      -0.0399
  27 H1        1.7006    -9.0664    -6.6035  H       1  <O>11       0.0323
  28 H2        3.2247    -9.1590    -7.5183  H       1  <O>11       0.0323
  29 H3        2.7453    -7.6318    -6.7397  H       1  <O>11       0.0323
  30 H4        1.8130   -10.0730    -4.5590  H       1  <O>11       0.1548
  31 H5        6.8100   -14.7381     2.7619  H       1  <O>11       0.1550
  32 H6        9.2479   -17.1677    -0.2472  H       1  <O>11       0.1453
  33 H7        9.6914   -18.3818    -1.4519  H       1  <O>11       0.1453
  34 H8        1.8333   -11.2983    -2.5031  H       1  <O>11       0.0636
  35 H9        2.9863   -11.9476    -0.4617  H       1  <O>11       0.0625
  36 H10       5.8224    -9.3310     0.9266  H       1  <O>11       0.0654
  37 H11       6.9610   -10.0845     2.9113  H       1  <O>11       0.0831
  38 H12       4.0012   -14.8755     0.8835  H       1  <O>11       0.0636
  39 H13       3.3770   -16.4651    -0.8385  H       1  <O>11       0.0618
  40 H14       5.0724   -17.8471    -1.9005  H       1  <O>11       0.0625
  41 H15       8.0371   -16.0428     0.4879  H       1  <O>11       0.0644
  42 H16       6.4118    -9.8736    -1.7419  H       1  <O>11       0.0625
  43 H17       5.2702    -9.2259    -3.7844  H       1  <O>11       0.0636
@<TRIPOS>BOND
     1     1     2    1
     2     2     3    2
     3     2     4   am
     4     4     5    1
     5     5     6   ar
     6     6     7   ar
     7     7     8   ar
     8     8     9    1
     9     9    10   ar
    10    10    11   ar
    11    11    12   ar
    12    12    13   ar
    13    13    14    1
    14    14    15    1
    15    15    16   ar
    16    16    17   ar
    17    17    18   ar
    18    18    19   ar
    19    19    20    1
    20    20    21   am
    21    20    22    2
    22    19    23   ar
    23    15    23   ar
    24    13    24   ar
    25     9    24   ar
    26     8    25   ar
    27    25    26   ar
    28     5    26   ar
    29     1    27    1
    30     1    28    1
    31     1    29    1
    32     4    30    1
    33    14    31    1
    34    21    32    1
    35    21    33    1
    36     6    34    1
    37     7    35    1
    38    10    36    1
    39    11    37    1
    40    16    38    1
    41    17    39    1
    42    18    40    1
    43    23    41    1
    44    25    42    1
    45    26    43    1
@<TRIPOS>MOLECULE
mol63_2_15
 43 45 0 0 0
SMALL
USER_CHARGES
****
VDW energy = -178.93
@<TRIPOS>ATOM
   1 C1        2.7323    -8.7181    -6.6515  C.3     1  <O>11       0.0125
   2 C2        3.4528    -9.1250    -5.4100  C.2     1  <O>11       0.2141
   3 O1        4.6297    -8.8309    -5.2623  O.2     1  <O>11      -0.2758
   4 N1        2.7960    -9.8280    -4.4360  N.am    1  <O>11      -0.2857
   5 C3        3.4640   -10.2050    -3.2840  C.ar    1  <O>11       0.0334
   6 C4        2.8054   -10.9936    -2.3381  C.ar    1  <O>11      -0.0399
   7 C5        3.4709   -11.3684    -1.1651  C.ar    1  <O>11      -0.0508
   8 C6        4.7894   -10.9608    -0.9432  C.ar    1  <O>11       0.0006
   9 C7        5.4725   -11.3373     0.2501  C.ar    1  <O>11       0.0760
  10 C8        6.6581   -12.0973     0.1614  C.ar    1  <O>11      -0.0174
  11 C9        7.2518   -12.4164     1.3565  C.ar    1  <O>11       0.0332
  12 N2        6.7624   -12.0442     2.5548  N.ar    1  <O>11      -0.2226
  13 C10       5.6301   -11.3222     2.5554  C.ar    1  <O>11       0.2200
  14 N3        5.0330   -10.8789     3.7904  N.pl3   1  <O>11      -0.2836
  15 C11       4.0579   -11.7143     4.4651  C.ar    1  <O>11       0.0343
  16 C12       4.4384   -12.9552     5.0063  C.ar    1  <O>11      -0.0404
  17 C13       3.4944   -13.7642     5.6447  C.ar    1  <O>11      -0.0593
  18 C14       2.1656   -13.3454     5.7547  C.ar    1  <O>11      -0.0495
  19 C15       1.7885   -12.1100     5.2217  C.ar    1  <O>11       0.0382
  20 C16       0.4116   -11.6788     5.3377  C.2     1  <O>11       0.2416
  21 N4        0.0105   -10.5003     4.7669  N.am    1  <O>11      -0.3253
  22 O2       -0.3961   -12.3696     5.9430  O.2     1  <O>11      -0.2704
  23 C17       2.7226   -11.2917     4.5823  C.ar    1  <O>11      -0.0284
  24 N5        4.9791   -10.9630     1.4355  N.ar    1  <O>11      -0.2142
  25 C18       5.4385   -10.1764    -1.9034  C.ar    1  <O>11      -0.0508
  26 C19       4.7839    -9.7989    -3.0772  C.ar    1  <O>11      -0.0399
  27 H1        1.7006    -9.0664    -6.6035  H       1  <O>11       0.0323
  28 H2        3.2247    -9.1590    -7.5183  H       1  <O>11       0.0323
  29 H3        2.7453    -7.6318    -6.7397  H       1  <O>11       0.0323
  30 H4        1.8130   -10.0730    -4.5590  H       1  <O>11       0.1548
  31 H5        5.2970    -9.9781     4.1896  H       1  <O>11       0.1550
  32 H6        0.6835    -9.9247     4.2602  H       1  <O>11       0.1453
  33 H7       -0.9598   -10.1977     4.8496  H       1  <O>11       0.1453
  34 H8        1.8333   -11.2983    -2.5031  H       1  <O>11       0.0636
  35 H9        2.9863   -11.9476    -0.4617  H       1  <O>11       0.0625
  36 H10       7.0534   -12.3942    -0.7445  H       1  <O>11       0.0654
  37 H11       8.1211   -12.9722     1.3361  H       1  <O>11       0.0831
  38 H12       5.4184   -13.2698     4.9317  H       1  <O>11       0.0636
  39 H13       3.7799   -14.6751     6.0369  H       1  <O>11       0.0618
  40 H14       1.4687   -13.9435     6.2255  H       1  <O>11       0.0625
  41 H15       2.4331   -10.3792     4.1970  H       1  <O>11       0.0644
  42 H16       6.4118    -9.8736    -1.7419  H       1  <O>11       0.0625
  43 H17       5.2702    -9.2259    -3.7844  H       1  <O>11       0.0636
@<TRIPOS>BOND
     1     1     2    1
     2     2     3    2
     3     2     4   am
     4     4     5    1
     5     5     6   ar
     6     6     7   ar
     7     7     8   ar
     8     8     9    1
     9     9    10   ar
    10    10    11   ar
    11    11    12   ar
    12    12    13   ar
    13    13    14    1
    14    14    15    1
    15    15    16   ar
    16    16    17   ar
    17    17    18   ar
    18    18    19   ar
    19    19    20    1
    20    20    21   am
    21    20    22    2
    22    19    23   ar
    23    15    23   ar
    24    13    24   ar
    25     9    24   ar
    26     8    25   ar
    27    25    26   ar
    28     5    26   ar
    29     1    27    1
    30     1    28    1
    31     1    29    1
    32     4    30    1
    33    14    31    1
    34    21    32    1
    35    21    33    1
    36     6    34    1
    37     7    35    1
    38    10    36    1
    39    11    37    1
    40    16    38    1
    41    17    39    1
    42    18    40    1
    43    23    41    1
    44    25    42    1
    45    26    43    1
@<TRIPOS>MOLECULE
mol63_2_16
 43 45 0 0 0
SMALL
USER_CHARGES
****
VDW energy = -178.85
@<TRIPOS>ATOM
   1 C1        2.7323    -8.7181    -6.6515  C.3     1  <O>11       0.0125
   2 C2        3.4528    -9.1250    -5.4100  C.2     1  <O>11       0.2141
   3 O1        4.6297    -8.8309    -5.2623  O.2     1  <O>11      -0.2758
   4 N1        2.7960    -9.8280    -4.4360  N.am    1  <O>11      -0.2857
   5 C3        3.4640   -10.2050    -3.2840  C.ar    1  <O>11       0.0334
   6 C4        2.8054   -10.9936    -2.3381  C.ar    1  <O>11      -0.0399
   7 C5        3.4709   -11.3684    -1.1651  C.ar    1  <O>11      -0.0508
   8 C6        4.7894   -10.9608    -0.9432  C.ar    1  <O>11       0.0006
   9 C7        5.4725   -11.3373     0.2501  C.ar    1  <O>11       0.0760
  10 C8        5.9502   -10.3362     1.1222  C.ar    1  <O>11      -0.0174
  11 C9        6.5955   -10.7846     2.2471  C.ar    1  <O>11       0.0332
  12 N2        6.7780   -12.0882     2.5320  N.ar    1  <O>11      -0.2226
  13 C10       6.2940   -12.9800     1.6523  C.ar    1  <O>11       0.2200
  14 N3        6.4420   -14.3969     1.8739  N.pl3   1  <O>11      -0.2836
  15 C11       5.4233   -15.1266     2.6043  C.ar    1  <O>11       0.0343
  16 C12       5.1972   -14.8603     3.9664  C.ar    1  <O>11      -0.0404
  17 C13       4.2237   -15.5736     4.6713  C.ar    1  <O>11      -0.0593
  18 C14       3.4639   -16.5544     4.0280  C.ar    1  <O>11      -0.0495
  19 C15       3.6848   -16.8155     2.6732  C.ar    1  <O>11       0.0382
  20 C16       2.8959   -17.8317     2.0096  C.2     1  <O>11       0.2416
  21 N4        3.1410   -18.1446     0.6991  N.am    1  <O>11      -0.3253
  22 O2        2.0113   -18.4146     2.6210  O.2     1  <O>11      -0.2704
  23 C17       4.6538   -16.1088     1.9573  C.ar    1  <O>11      -0.0284
  24 N5        5.6490   -12.6343     0.5247  N.ar    1  <O>11      -0.2142
  25 C18       5.4385   -10.1764    -1.9034  C.ar    1  <O>11      -0.0508
  26 C19       4.7839    -9.7989    -3.0772  C.ar    1  <O>11      -0.0399
  27 H1        1.7006    -9.0664    -6.6035  H       1  <O>11       0.0323
  28 H2        3.2247    -9.1590    -7.5183  H       1  <O>11       0.0323
  29 H3        2.7453    -7.6318    -6.7397  H       1  <O>11       0.0323
  30 H4        1.8130   -10.0730    -4.5590  H       1  <O>11       0.1548
  31 H5        7.2627   -14.8856     1.5163  H       1  <O>11       0.1550
  32 H6        3.8800   -17.6600     0.1893  H       1  <O>11       0.1453
  33 H7        2.5843   -18.8605     0.2328  H       1  <O>11       0.1453
  34 H8        1.8333   -11.2983    -2.5031  H       1  <O>11       0.0636
  35 H9        2.9863   -11.9476    -0.4617  H       1  <O>11       0.0625
  36 H10       5.8224    -9.3310     0.9266  H       1  <O>11       0.0654
  37 H11       6.9610   -10.0845     2.9113  H       1  <O>11       0.0831
  38 H12       5.7521   -14.1353     4.4474  H       1  <O>11       0.0636
  39 H13       4.0652   -15.3751     5.6716  H       1  <O>11       0.0618
  40 H14       2.7458   -17.0814     4.5492  H       1  <O>11       0.0625
  41 H15       4.8042   -16.3072     0.9558  H       1  <O>11       0.0644
  42 H16       6.4118    -9.8736    -1.7419  H       1  <O>11       0.0625
  43 H17       5.2702    -9.2259    -3.7844  H       1  <O>11       0.0636
@<TRIPOS>BOND
     1     1     2    1
     2     2     3    2
     3     2     4   am
     4     4     5    1
     5     5     6   ar
     6     6     7   ar
     7     7     8   ar
     8     8     9    1
     9     9    10   ar
    10    10    11   ar
    11    11    12   ar
    12    12    13   ar
    13    13    14    1
    14    14    15    1
    15    15    16   ar
    16    16    17   ar
    17    17    18   ar
    18    18    19   ar
    19    19    20    1
    20    20    21   am
    21    20    22    2
    22    19    23   ar
    23    15    23   ar
    24    13    24   ar
    25     9    24   ar
    26     8    25   ar
    27    25    26   ar
    28     5    26   ar
    29     1    27    1
    30     1    28    1
    31     1    29    1
    32     4    30    1
    33    14    31    1
    34    21    32    1
    35    21    33    1
    36     6    34    1
    37     7    35    1
    38    10    36    1
    39    11    37    1
    40    16    38    1
    41    17    39    1
    42    18    40    1
    43    23    41    1
    44    25    42    1
    45    26    43    1
@<TRIPOS>MOLECULE
mol63_2_17
 43 45 0 0 0
SMALL
USER_CHARGES
****
VDW energy = -177.29
@<TRIPOS>ATOM
   1 C1        2.7323    -8.7181    -6.6515  C.3     1  <O>11       0.0125
   2 C2        3.4528    -9.1250    -5.4100  C.2     1  <O>11       0.2141
   3 O1        4.6297    -8.8309    -5.2623  O.2     1  <O>11      -0.2758
   4 N1        2.7960    -9.8280    -4.4360  N.am    1  <O>11      -0.2857
   5 C3        3.4640   -10.2050    -3.2840  C.ar    1  <O>11       0.0334
   6 C4        2.8054   -10.9936    -2.3381  C.ar    1  <O>11      -0.0399
   7 C5        3.4709   -11.3684    -1.1651  C.ar    1  <O>11      -0.0508
   8 C6        4.7894   -10.9608    -0.9432  C.ar    1  <O>11       0.0006
   9 C7        5.4725   -11.3373     0.2501  C.ar    1  <O>11       0.0760
  10 C8        4.8078   -12.1287     1.2108  C.ar    1  <O>11      -0.0174
  11 C9        5.5371   -12.4459     2.3289  C.ar    1  <O>11       0.0332
  12 N2        6.8074   -12.0454     2.5286  N.ar    1  <O>11      -0.2226
  13 C10       7.3703   -11.2951     1.5677  C.ar    1  <O>11       0.2200
  14 N3        8.7260   -10.8211     1.6944  N.pl3   1  <O>11      -0.2836
  15 C11       9.2553    -9.8731     0.7327  C.ar    1  <O>11       0.0343
  16 C12       8.7275    -8.5721     0.6528  C.ar    1  <O>11      -0.0404
  17 C13       9.2306    -7.6644    -0.2832  C.ar    1  <O>11      -0.0593
  18 C14      10.2649    -8.0401    -1.1448  C.ar    1  <O>11      -0.0495
  19 C15      10.7931    -9.3310    -1.0619  C.ar    1  <O>11       0.0382
  20 C16      11.8647    -9.7169    -1.9553  C.2     1  <O>11       0.2416
  21 N4       11.5769   -10.2766    -3.1716  N.am    1  <O>11      -0.3253
  22 O2       13.0290    -9.5395    -1.6253  O.2     1  <O>11      -0.2704
  23 C17      10.2999   -10.2471    -0.1300  C.ar    1  <O>11      -0.0284
  24 N5        6.7339   -10.9351     0.4397  N.ar    1  <O>11      -0.2142
  25 C18       5.4385   -10.1764    -1.9034  C.ar    1  <O>11      -0.0508
  26 C19       4.7839    -9.7989    -3.0772  C.ar    1  <O>11      -0.0399
  27 H1        1.7006    -9.0664    -6.6035  H       1  <O>11       0.0323
  28 H2        3.2247    -9.1590    -7.5183  H       1  <O>11       0.0323
  29 H3        2.7453    -7.6318    -6.7397  H       1  <O>11       0.0323
  30 H4        1.8130   -10.0730    -4.5590  H       1  <O>11       0.1548
  31 H5        9.3120   -11.1522     2.4608  H       1  <O>11       0.1550
  32 H6       10.6059   -10.4229    -3.4480  H       1  <O>11       0.1453
  33 H7       12.3329   -10.5481    -3.7998  H       1  <O>11       0.1453
  34 H8        1.8333   -11.2983    -2.5031  H       1  <O>11       0.0636
  35 H9        2.9863   -11.9476    -0.4617  H       1  <O>11       0.0625
  36 H10       3.8352   -12.4485     1.0807  H       1  <O>11       0.0654
  37 H11       5.0875   -13.0230     3.0568  H       1  <O>11       0.0831
  38 H12       7.9658    -8.2865     1.2878  H       1  <O>11       0.0636
  39 H13       8.8364    -6.7122    -0.3385  H       1  <O>11       0.0618
  40 H14      10.6355    -7.3696    -1.8364  H       1  <O>11       0.0625
  41 H15      10.7016   -11.1962    -0.0750  H       1  <O>11       0.0644
  42 H16       6.4118    -9.8736    -1.7419  H       1  <O>11       0.0625
  43 H17       5.2702    -9.2259    -3.7844  H       1  <O>11       0.0636
@<TRIPOS>BOND
     1     1     2    1
     2     2     3    2
     3     2     4   am
     4     4     5    1
     5     5     6   ar
     6     6     7   ar
     7     7     8   ar
     8     8     9    1
     9     9    10   ar
    10    10    11   ar
    11    11    12   ar
    12    12    13   ar
    13    13    14    1
    14    14    15    1
    15    15    16   ar
    16    16    17   ar
    17    17    18   ar
    18    18    19   ar
    19    19    20    1
    20    20    21   am
    21    20    22    2
    22    19    23   ar
    23    15    23   ar
    24    13    24   ar
    25     9    24   ar
    26     8    25   ar
    27    25    26   ar
    28     5    26   ar
    29     1    27    1
    30     1    28    1
    31     1    29    1
    32     4    30    1
    33    14    31    1
    34    21    32    1
    35    21    33    1
    36     6    34    1
    37     7    35    1
    38    10    36    1
    39    11    37    1
    40    16    38    1
    41    17    39    1
    42    18    40    1
    43    23    41    1
    44    25    42    1
    45    26    43    1
@<TRIPOS>MOLECULE
mol63_2_18
 43 45 0 0 0
SMALL
USER_CHARGES
****
VDW energy = -176.50
@<TRIPOS>ATOM
   1 C1        2.7323    -8.7181    -6.6515  C.3     1  <O>11       0.0125
   2 C2        3.4528    -9.1250    -5.4100  C.2     1  <O>11       0.2141
   3 O1        4.6297    -8.8309    -5.2623  O.2     1  <O>11      -0.2758
   4 N1        2.7960    -9.8280    -4.4360  N.am    1  <O>11      -0.2857
   5 C3        3.4640   -10.2050    -3.2840  C.ar    1  <O>11       0.0334
   6 C4        2.8054   -10.9936    -2.3381  C.ar    1  <O>11      -0.0399
   7 C5        3.4709   -11.3684    -1.1651  C.ar    1  <O>11      -0.0508
   8 C6        4.7894   -10.9608    -0.9432  C.ar    1  <O>11       0.0006
   9 C7        5.4725   -11.3373     0.2501  C.ar    1  <O>11       0.0760
  10 C8        4.9041   -12.3116     1.0979  C.ar    1  <O>11      -0.0174
  11 C9        5.6264   -12.6153     2.2243  C.ar    1  <O>11       0.0332
  12 N2        6.8052   -12.0408     2.5313  N.ar    1  <O>11      -0.2226
  13 C10       7.2799   -11.1229     1.6738  C.ar    1  <O>11       0.2200
  14 N3        8.5341   -10.4558     1.9196  N.pl3   1  <O>11      -0.2836
  15 C11       8.9436    -9.3487     1.0766  C.ar    1  <O>11       0.0343
  16 C12       8.5853    -8.0306     1.4106  C.ar    1  <O>11      -0.0404
  17 C13       8.9703    -6.9668     0.5901  C.ar    1  <O>11      -0.0593
  18 C14       9.7180    -7.2030    -0.5668  C.ar    1  <O>11      -0.0495
  19 C15      10.0786    -8.5122    -0.8961  C.ar    1  <O>11       0.0382
  20 C16      10.8535    -8.7535    -2.0947  C.2     1  <O>11       0.2416
  21 N4       12.2219    -8.7490    -2.0404  N.am    1  <O>11      -0.3253
  22 O2       10.2856    -8.9656    -3.1570  O.2     1  <O>11      -0.2704
  23 C17       9.7012    -9.5839    -0.0837  C.ar    1  <O>11      -0.0284
  24 N5        6.6427   -10.7615     0.5467  N.ar    1  <O>11      -0.2142
  25 C18       5.4385   -10.1764    -1.9034  C.ar    1  <O>11      -0.0508
  26 C19       4.7839    -9.7989    -3.0772  C.ar    1  <O>11      -0.0399
  27 H1        1.7006    -9.0664    -6.6035  H       1  <O>11       0.0323
  28 H2        3.2247    -9.1590    -7.5183  H       1  <O>11       0.0323
  29 H3        2.7453    -7.6318    -6.7397  H       1  <O>11       0.0323
  30 H4        1.8130   -10.0730    -4.5590  H       1  <O>11       0.1548
  31 H5        9.1325   -10.7621     2.6866  H       1  <O>11       0.1550
  32 H6       12.6960    -8.5741    -1.1541  H       1  <O>11       0.1453
  33 H7       12.7665    -8.9191    -2.8856  H       1  <O>11       0.1453
  34 H8        1.8333   -11.2983    -2.5031  H       1  <O>11       0.0636
  35 H9        2.9863   -11.9476    -0.4617  H       1  <O>11       0.0625
  36 H10       4.0027   -12.7665     0.8845  H       1  <O>11       0.0654
  37 H11       5.2454   -13.3229     2.8718  H       1  <O>11       0.0831
  38 H12       8.0360    -7.8481     2.2649  H       1  <O>11       0.0636
  39 H13       8.7012    -6.0022     0.8396  H       1  <O>11       0.0618
  40 H14      10.0013    -6.4171    -1.1728  H       1  <O>11       0.0625
  41 H15       9.9778   -10.5459    -0.3348  H       1  <O>11       0.0644
  42 H16       6.4118    -9.8736    -1.7419  H       1  <O>11       0.0625
  43 H17       5.2702    -9.2259    -3.7844  H       1  <O>11       0.0636
@<TRIPOS>BOND
     1     1     2    1
     2     2     3    2
     3     2     4   am
     4     4     5    1
     5     5     6   ar
     6     6     7   ar
     7     7     8   ar
     8     8     9    1
     9     9    10   ar
    10    10    11   ar
    11    11    12   ar
    12    12    13   ar
    13    13    14    1
    14    14    15    1
    15    15    16   ar
    16    16    17   ar
    17    17    18   ar
    18    18    19   ar
    19    19    20    1
    20    20    21   am
    21    20    22    2
    22    19    23   ar
    23    15    23   ar
    24    13    24   ar
    25     9    24   ar
    26     8    25   ar
    27    25    26   ar
    28     5    26   ar
    29     1    27    1
    30     1    28    1
    31     1    29    1
    32     4    30    1
    33    14    31    1
    34    21    32    1
    35    21    33    1
    36     6    34    1
    37     7    35    1
    38    10    36    1
    39    11    37    1
    40    16    38    1
    41    17    39    1
    42    18    40    1
    43    23    41    1
    44    25    42    1
    45    26    43    1
@<TRIPOS>MOLECULE
mol63_2_19
 43 45 0 0 0
SMALL
USER_CHARGES
****
VDW energy = -175.76
@<TRIPOS>ATOM
   1 C1        2.7323    -8.7181    -6.6515  C.3     1  <O>11       0.0125
   2 C2        3.4528    -9.1250    -5.4100  C.2     1  <O>11       0.2141
   3 O1        4.6297    -8.8309    -5.2623  O.2     1  <O>11      -0.2758
   4 N1        2.7960    -9.8280    -4.4360  N.am    1  <O>11      -0.2857
   5 C3        3.4640   -10.2050    -3.2840  C.ar    1  <O>11       0.0334
   6 C4        2.8054   -10.9936    -2.3381  C.ar    1  <O>11      -0.0399
   7 C5        3.4709   -11.3684    -1.1651  C.ar    1  <O>11      -0.0508
   8 C6        4.7894   -10.9608    -0.9432  C.ar    1  <O>11       0.0006
   9 C7        5.4725   -11.3373     0.2501  C.ar    1  <O>11       0.0760
  10 C8        4.9041   -12.3116     1.0979  C.ar    1  <O>11      -0.0174
  11 C9        5.6264   -12.6153     2.2243  C.ar    1  <O>11       0.0332
  12 N2        6.8052   -12.0408     2.5313  N.ar    1  <O>11      -0.2226
  13 C10       7.2799   -11.1229     1.6738  C.ar    1  <O>11       0.2200
  14 N3        8.5341   -10.4558     1.9196  N.pl3   1  <O>11      -0.2836
  15 C11       8.9436    -9.3487     1.0766  C.ar    1  <O>11       0.0343
  16 C12       8.5853    -8.0306     1.4106  C.ar    1  <O>11      -0.0404
  17 C13       8.9703    -6.9668     0.5901  C.ar    1  <O>11      -0.0593
  18 C14       9.7180    -7.2030    -0.5668  C.ar    1  <O>11      -0.0495
  19 C15      10.0786    -8.5122    -0.8961  C.ar    1  <O>11       0.0382
  20 C16      10.8535    -8.7535    -2.0947  C.2     1  <O>11       0.2416
  21 N4       10.5860    -8.0499    -3.2387  N.am    1  <O>11      -0.3253
  22 O2       11.7511    -9.5844    -2.0850  O.2     1  <O>11      -0.2704
  23 C17       9.7012    -9.5839    -0.0837  C.ar    1  <O>11      -0.0284
  24 N5        6.6427   -10.7615     0.5467  N.ar    1  <O>11      -0.2142
  25 C18       5.4385   -10.1764    -1.9034  C.ar    1  <O>11      -0.0508
  26 C19       4.7839    -9.7989    -3.0772  C.ar    1  <O>11      -0.0399
  27 H1        1.7006    -9.0664    -6.6035  H       1  <O>11       0.0323
  28 H2        3.2247    -9.1590    -7.5183  H       1  <O>11       0.0323
  29 H3        2.7453    -7.6318    -6.7397  H       1  <O>11       0.0323
  30 H4        1.8130   -10.0730    -4.5590  H       1  <O>11       0.1548
  31 H5        9.1325   -10.7621     2.6866  H       1  <O>11       0.1550
  32 H6        9.8387    -7.3554    -3.2466  H       1  <O>11       0.1453
  33 H7       11.1326    -8.2211    -4.0824  H       1  <O>11       0.1453
  34 H8        1.8333   -11.2983    -2.5031  H       1  <O>11       0.0636
  35 H9        2.9863   -11.9476    -0.4617  H       1  <O>11       0.0625
  36 H10       4.0027   -12.7665     0.8845  H       1  <O>11       0.0654
  37 H11       5.2454   -13.3229     2.8718  H       1  <O>11       0.0831
  38 H12       8.0360    -7.8481     2.2649  H       1  <O>11       0.0636
  39 H13       8.7012    -6.0022     0.8396  H       1  <O>11       0.0618
  40 H14      10.0013    -6.4171    -1.1728  H       1  <O>11       0.0625
  41 H15       9.9778   -10.5459    -0.3348  H       1  <O>11       0.0644
  42 H16       6.4118    -9.8736    -1.7419  H       1  <O>11       0.0625
  43 H17       5.2702    -9.2259    -3.7844  H       1  <O>11       0.0636
@<TRIPOS>BOND
     1     1     2    1
     2     2     3    2
     3     2     4   am
     4     4     5    1
     5     5     6   ar
     6     6     7   ar
     7     7     8   ar
     8     8     9    1
     9     9    10   ar
    10    10    11   ar
    11    11    12   ar
    12    12    13   ar
    13    13    14    1
    14    14    15    1
    15    15    16   ar
    16    16    17   ar
    17    17    18   ar
    18    18    19   ar
    19    19    20    1
    20    20    21   am
    21    20    22    2
    22    19    23   ar
    23    15    23   ar
    24    13    24   ar
    25     9    24   ar
    26     8    25   ar
    27    25    26   ar
    28     5    26   ar
    29     1    27    1
    30     1    28    1
    31     1    29    1
    32     4    30    1
    33    14    31    1
    34    21    32    1
    35    21    33    1
    36     6    34    1
    37     7    35    1
    38    10    36    1
    39    11    37    1
    40    16    38    1
    41    17    39    1
    42    18    40    1
    43    23    41    1
    44    25    42    1
    45    26    43    1
@<TRIPOS>MOLECULE
mol63_2_20
 43 45 0 0 0
SMALL
USER_CHARGES
****
VDW energy = -173.57
@<TRIPOS>ATOM
   1 C1        2.7323    -8.7181    -6.6515  C.3     1  <O>11       0.0125
   2 C2        3.4528    -9.1250    -5.4100  C.2     1  <O>11       0.2141
   3 O1        4.6297    -8.8309    -5.2623  O.2     1  <O>11      -0.2758
   4 N1        2.7960    -9.8280    -4.4360  N.am    1  <O>11      -0.2857
   5 C3        3.4640   -10.2050    -3.2840  C.ar    1  <O>11       0.0334
   6 C4        2.8054   -10.9936    -2.3381  C.ar    1  <O>11      -0.0399
   7 C5        3.4709   -11.3684    -1.1651  C.ar    1  <O>11      -0.0508
   8 C6        4.7894   -10.9608    -0.9432  C.ar    1  <O>11       0.0006
   9 C7        5.4725   -11.3373     0.2501  C.ar    1  <O>11       0.0760
  10 C8        4.9041   -12.3116     1.0979  C.ar    1  <O>11      -0.0174
  11 C9        5.6264   -12.6153     2.2243  C.ar    1  <O>11       0.0332
  12 N2        6.8052   -12.0408     2.5313  N.ar    1  <O>11      -0.2226
  13 C10       7.2799   -11.1229     1.6738  C.ar    1  <O>11       0.2200
  14 N3        8.5341   -10.4558     1.9196  N.pl3   1  <O>11      -0.2836
  15 C11       8.9436    -9.3487     1.0766  C.ar    1  <O>11       0.0343
  16 C12       9.2357    -9.5604    -0.2825  C.ar    1  <O>11      -0.0404
  17 C13       9.6424    -8.4945    -1.0898  C.ar    1  <O>11      -0.0593
  18 C14       9.7583    -7.2086    -0.5546  C.ar    1  <O>11      -0.0495
  19 C15       9.4630    -6.9971     0.7946  C.ar    1  <O>11       0.0382
  20 C16       9.5835    -5.6640     1.3457  C.2     1  <O>11       0.2416
  21 N4        9.1824    -4.5790     0.6127  N.am    1  <O>11      -0.3253
  22 O2       10.0407    -5.5063     2.4692  O.2     1  <O>11      -0.2704
  23 C17       9.0544    -8.0537     1.6116  C.ar    1  <O>11      -0.0284
  24 N5        6.6427   -10.7615     0.5467  N.ar    1  <O>11      -0.2142
  25 C18       5.4385   -10.1764    -1.9034  C.ar    1  <O>11      -0.0508
  26 C19       4.7839    -9.7989    -3.0772  C.ar    1  <O>11      -0.0399
  27 H1        1.7006    -9.0664    -6.6035  H       1  <O>11       0.0323
  28 H2        3.2247    -9.1590    -7.5183  H       1  <O>11       0.0323
  29 H3        2.7453    -7.6318    -6.7397  H       1  <O>11       0.0323
  30 H4        1.8130   -10.0730    -4.5590  H       1  <O>11       0.1548
  31 H5        9.1325   -10.7621     2.6866  H       1  <O>11       0.1550
  32 H6        8.7992    -4.7102    -0.3236  H       1  <O>11       0.1453
  33 H7        9.2680    -3.6404     1.0022  H       1  <O>11       0.1453
  34 H8        1.8333   -11.2983    -2.5031  H       1  <O>11       0.0636
  35 H9        2.9863   -11.9476    -0.4617  H       1  <O>11       0.0625
  36 H10       4.0027   -12.7665     0.8845  H       1  <O>11       0.0654
  37 H11       5.2454   -13.3229     2.8718  H       1  <O>11       0.0831
  38 H12       9.1494   -10.5066    -0.6855  H       1  <O>11       0.0636
  39 H13       9.8581    -8.6577    -2.0857  H       1  <O>11       0.0618
  40 H14      10.0594    -6.4221    -1.1510  H       1  <O>11       0.0625
  41 H15       8.8343    -7.8840     2.6055  H       1  <O>11       0.0644
  42 H16       6.4118    -9.8736    -1.7419  H       1  <O>11       0.0625
  43 H17       5.2702    -9.2259    -3.7844  H       1  <O>11       0.0636
@<TRIPOS>BOND
     1     1     2    1
     2     2     3    2
     3     2     4   am
     4     4     5    1
     5     5     6   ar
     6     6     7   ar
     7     7     8   ar
     8     8     9    1
     9     9    10   ar
    10    10    11   ar
    11    11    12   ar
    12    12    13   ar
    13    13    14    1
    14    14    15    1
    15    15    16   ar
    16    16    17   ar
    17    17    18   ar
    18    18    19   ar
    19    19    20    1
    20    20    21   am
    21    20    22    2
    22    19    23   ar
    23    15    23   ar
    24    13    24   ar
    25     9    24   ar
    26     8    25   ar
    27    25    26   ar
    28     5    26   ar
    29     1    27    1
    30     1    28    1
    31     1    29    1
    32     4    30    1
    33    14    31    1
    34    21    32    1
    35    21    33    1
    36     6    34    1
    37     7    35    1
    38    10    36    1
    39    11    37    1
    40    16    38    1
    41    17    39    1
    42    18    40    1
    43    23    41    1
    44    25    42    1
    45    26    43    1
@<TRIPOS>MOLECULE
mol63_2_21
 43 45 0 0 0
SMALL
USER_CHARGES
****
VDW energy = -173.24
@<TRIPOS>ATOM
   1 C1        2.7323    -8.7181    -6.6515  C.3     1  <O>11       0.0125
   2 C2        3.4528    -9.1250    -5.4100  C.2     1  <O>11       0.2141
   3 O1        4.6297    -8.8309    -5.2623  O.2     1  <O>11      -0.2758
   4 N1        2.7960    -9.8280    -4.4360  N.am    1  <O>11      -0.2857
   5 C3        3.4640   -10.2050    -3.2840  C.ar    1  <O>11       0.0334
   6 C4        2.8054   -10.9936    -2.3381  C.ar    1  <O>11      -0.0399
   7 C5        3.4709   -11.3684    -1.1651  C.ar    1  <O>11      -0.0508
   8 C6        4.7894   -10.9608    -0.9432  C.ar    1  <O>11       0.0006
   9 C7        5.4725   -11.3373     0.2501  C.ar    1  <O>11       0.0760
  10 C8        4.9041   -12.3116     1.0979  C.ar    1  <O>11      -0.0174
  11 C9        5.6264   -12.6153     2.2243  C.ar    1  <O>11       0.0332
  12 N2        6.8052   -12.0408     2.5313  N.ar    1  <O>11      -0.2226
  13 C10       7.2799   -11.1229     1.6738  C.ar    1  <O>11       0.2200
  14 N3        8.5341   -10.4558     1.9196  N.pl3   1  <O>11      -0.2836
  15 C11       8.6706    -9.5646     3.0558  C.ar    1  <O>11       0.0343
  16 C12       7.9357    -8.3671     3.1122  C.ar    1  <O>11      -0.0404
  17 C13       8.0784    -7.5039     4.2020  C.ar    1  <O>11      -0.0593
  18 C14       8.9493    -7.8250     5.2468  C.ar    1  <O>11      -0.0495
  19 C15       9.6757    -9.0174     5.1935  C.ar    1  <O>11       0.0382
  20 C16      10.5765    -9.3475     6.2775  C.2     1  <O>11       0.2416
  21 N4       10.2166    -9.0871     7.5729  N.am    1  <O>11      -0.3253
  22 O2       11.6592    -9.8631     6.0368  O.2     1  <O>11      -0.2704
  23 C17       9.5411    -9.8892     4.1105  C.ar    1  <O>11      -0.0284
  24 N5        6.6427   -10.7615     0.5467  N.ar    1  <O>11      -0.2142
  25 C18       5.4385   -10.1764    -1.9034  C.ar    1  <O>11      -0.0508
  26 C19       4.7839    -9.7989    -3.0772  C.ar    1  <O>11      -0.0399
  27 H1        1.7006    -9.0664    -6.6035  H       1  <O>11       0.0323
  28 H2        3.2247    -9.1590    -7.5183  H       1  <O>11       0.0323
  29 H3        2.7453    -7.6318    -6.7397  H       1  <O>11       0.0323
  30 H4        1.8130   -10.0730    -4.5590  H       1  <O>11       0.1548
  31 H5        9.3251   -10.6113     1.2946  H       1  <O>11       0.1550
  32 H6        9.3128    -8.6589     7.7743  H       1  <O>11       0.1453
  33 H7       10.8523    -9.3200     8.3356  H       1  <O>11       0.1453
  34 H8        1.8333   -11.2983    -2.5031  H       1  <O>11       0.0636
  35 H9        2.9863   -11.9476    -0.4617  H       1  <O>11       0.0625
  36 H10       4.0027   -12.7665     0.8845  H       1  <O>11       0.0654
  37 H11       5.2454   -13.3229     2.8718  H       1  <O>11       0.0831
  38 H12       7.2883    -8.1247     2.3459  H       1  <O>11       0.0636
  39 H13       7.5382    -6.6252     4.2354  H       1  <O>11       0.0618
  40 H14       9.0549    -7.1868     6.0510  H       1  <O>11       0.0625
  41 H15      10.0793   -10.7693     4.0848  H       1  <O>11       0.0644
  42 H16       6.4118    -9.8736    -1.7419  H       1  <O>11       0.0625
  43 H17       5.2702    -9.2259    -3.7844  H       1  <O>11       0.0636
@<TRIPOS>BOND
     1     1     2    1
     2     2     3    2
     3     2     4   am
     4     4     5    1
     5     5     6   ar
     6     6     7   ar
     7     7     8   ar
     8     8     9    1
     9     9    10   ar
    10    10    11   ar
    11    11    12   ar
    12    12    13   ar
    13    13    14    1
    14    14    15    1
    15    15    16   ar
    16    16    17   ar
    17    17    18   ar
    18    18    19   ar
    19    19    20    1
    20    20    21   am
    21    20    22    2
    22    19    23   ar
    23    15    23   ar
    24    13    24   ar
    25     9    24   ar
    26     8    25   ar
    27    25    26   ar
    28     5    26   ar
    29     1    27    1
    30     1    28    1
    31     1    29    1
    32     4    30    1
    33    14    31    1
    34    21    32    1
    35    21    33    1
    36     6    34    1
    37     7    35    1
    38    10    36    1
    39    11    37    1
    40    16    38    1
    41    17    39    1
    42    18    40    1
    43    23    41    1
    44    25    42    1
    45    26    43    1
@<TRIPOS>MOLECULE
mol63_2_22
 43 45 0 0 0
SMALL
USER_CHARGES
****
VDW energy = -170.63
@<TRIPOS>ATOM
   1 C1        2.7323    -8.7181    -6.6515  C.3     1  <O>11       0.0125
   2 C2        3.4528    -9.1250    -5.4100  C.2     1  <O>11       0.2141
   3 O1        4.6297    -8.8309    -5.2623  O.2     1  <O>11      -0.2758
   4 N1        2.7960    -9.8280    -4.4360  N.am    1  <O>11      -0.2857
   5 C3        3.4640   -10.2050    -3.2840  C.ar    1  <O>11       0.0334
   6 C4        2.8054   -10.9936    -2.3381  C.ar    1  <O>11      -0.0399
   7 C5        3.4709   -11.3684    -1.1651  C.ar    1  <O>11      -0.0508
   8 C6        4.7894   -10.9608    -0.9432  C.ar    1  <O>11       0.0006
   9 C7        5.4725   -11.3373     0.2501  C.ar    1  <O>11       0.0760
  10 C8        4.9041   -12.3116     1.0979  C.ar    1  <O>11      -0.0174
  11 C9        5.6264   -12.6153     2.2243  C.ar    1  <O>11       0.0332
  12 N2        6.8052   -12.0408     2.5313  N.ar    1  <O>11      -0.2226
  13 C10       7.2799   -11.1229     1.6738  C.ar    1  <O>11       0.2200
  14 N3        8.5341   -10.4558     1.9196  N.pl3   1  <O>11      -0.2836
  15 C11       8.9436    -9.3487     1.0766  C.ar    1  <O>11       0.0343
  16 C12       8.5853    -8.0306     1.4106  C.ar    1  <O>11      -0.0404
  17 C13       8.9703    -6.9668     0.5901  C.ar    1  <O>11      -0.0593
  18 C14       9.7180    -7.2030    -0.5668  C.ar    1  <O>11      -0.0495
  19 C15      10.0786    -8.5122    -0.8961  C.ar    1  <O>11       0.0382
  20 C16      10.8535    -8.7535    -2.0947  C.2     1  <O>11       0.2416
  21 N4       11.1626   -10.0349    -2.4663  N.am    1  <O>11      -0.3253
  22 O2       11.2298    -7.8121    -2.7789  O.2     1  <O>11      -0.2704
  23 C17       9.7012    -9.5839    -0.0837  C.ar    1  <O>11      -0.0284
  24 N5        6.6427   -10.7615     0.5467  N.ar    1  <O>11      -0.2142
  25 C18       5.4385   -10.1764    -1.9034  C.ar    1  <O>11      -0.0508
  26 C19       4.7839    -9.7989    -3.0772  C.ar    1  <O>11      -0.0399
  27 H1        1.7006    -9.0664    -6.6035  H       1  <O>11       0.0323
  28 H2        3.2247    -9.1590    -7.5183  H       1  <O>11       0.0323
  29 H3        2.7453    -7.6318    -6.7397  H       1  <O>11       0.0323
  30 H4        1.8130   -10.0730    -4.5590  H       1  <O>11       0.1548
  31 H5        9.1325   -10.7621     2.6866  H       1  <O>11       0.1550
  32 H6       10.8473   -10.8205    -1.8969  H       1  <O>11       0.1453
  33 H7       11.7087   -10.2034    -3.3108  H       1  <O>11       0.1453
  34 H8        1.8333   -11.2983    -2.5031  H       1  <O>11       0.0636
  35 H9        2.9863   -11.9476    -0.4617  H       1  <O>11       0.0625
  36 H10       4.0027   -12.7665     0.8845  H       1  <O>11       0.0654
  37 H11       5.2454   -13.3229     2.8718  H       1  <O>11       0.0831
  38 H12       8.0360    -7.8481     2.2649  H       1  <O>11       0.0636
  39 H13       8.7012    -6.0022     0.8396  H       1  <O>11       0.0618
  40 H14      10.0013    -6.4171    -1.1728  H       1  <O>11       0.0625
  41 H15       9.9778   -10.5459    -0.3348  H       1  <O>11       0.0644
  42 H16       6.4118    -9.8736    -1.7419  H       1  <O>11       0.0625
  43 H17       5.2702    -9.2259    -3.7844  H       1  <O>11       0.0636
@<TRIPOS>BOND
     1     1     2    1
     2     2     3    2
     3     2     4   am
     4     4     5    1
     5     5     6   ar
     6     6     7   ar
     7     7     8   ar
     8     8     9    1
     9     9    10   ar
    10    10    11   ar
    11    11    12   ar
    12    12    13   ar
    13    13    14    1
    14    14    15    1
    15    15    16   ar
    16    16    17   ar
    17    17    18   ar
    18    18    19   ar
    19    19    20    1
    20    20    21   am
    21    20    22    2
    22    19    23   ar
    23    15    23   ar
    24    13    24   ar
    25     9    24   ar
    26     8    25   ar
    27    25    26   ar
    28     5    26   ar
    29     1    27    1
    30     1    28    1
    31     1    29    1
    32     4    30    1
    33    14    31    1
    34    21    32    1
    35    21    33    1
    36     6    34    1
    37     7    35    1
    38    10    36    1
    39    11    37    1
    40    16    38    1
    41    17    39    1
    42    18    40    1
    43    23    41    1
    44    25    42    1
    45    26    43    1
@<TRIPOS>MOLECULE
mol63_2_23
 43 45 0 0 0
SMALL
USER_CHARGES
****
VDW energy = -169.69
@<TRIPOS>ATOM
   1 C1        2.7323    -8.7181    -6.6515  C.3     1  <O>11       0.0125
   2 C2        3.4528    -9.1250    -5.4100  C.2     1  <O>11       0.2141
   3 O1        4.6297    -8.8309    -5.2623  O.2     1  <O>11      -0.2758
   4 N1        2.7960    -9.8280    -4.4360  N.am    1  <O>11      -0.2857
   5 C3        3.4640   -10.2050    -3.2840  C.ar    1  <O>11       0.0334
   6 C4        2.8054   -10.9936    -2.3381  C.ar    1  <O>11      -0.0399
   7 C5        3.4709   -11.3684    -1.1651  C.ar    1  <O>11      -0.0508
   8 C6        4.7894   -10.9608    -0.9432  C.ar    1  <O>11       0.0006
   9 C7        5.4725   -11.3373     0.2501  C.ar    1  <O>11       0.0760
  10 C8        4.9041   -12.3116     1.0979  C.ar    1  <O>11      -0.0174
  11 C9        5.6264   -12.6153     2.2243  C.ar    1  <O>11       0.0332
  12 N2        6.8052   -12.0408     2.5313  N.ar    1  <O>11      -0.2226
  13 C10       7.2799   -11.1229     1.6738  C.ar    1  <O>11       0.2200
  14 N3        8.5341   -10.4558     1.9196  N.pl3   1  <O>11      -0.2836
  15 C11       8.6706    -9.5646     3.0558  C.ar    1  <O>11       0.0343
  16 C12       8.3765    -8.1958     2.9248  C.ar    1  <O>11      -0.0404
  17 C13       8.5209    -7.3368     4.0177  C.ar    1  <O>11      -0.0593
  18 C14       8.9548    -7.8310     5.2509  C.ar    1  <O>11      -0.0495
  19 C15       9.2421    -9.1921     5.3826  C.ar    1  <O>11       0.0382
  20 C16       9.6908    -9.7011     6.6613  C.2     1  <O>11       0.2416
  21 N4       10.0366   -11.0197     6.7926  N.am    1  <O>11      -0.3253
  22 O2        9.7649    -8.9519     7.6252  O.2     1  <O>11      -0.2704
  23 C17       9.1006   -10.0612     4.2984  C.ar    1  <O>11      -0.0284
  24 N5        6.6427   -10.7615     0.5467  N.ar    1  <O>11      -0.2142
  25 C18       5.4385   -10.1764    -1.9034  C.ar    1  <O>11      -0.0508
  26 C19       4.7839    -9.7989    -3.0772  C.ar    1  <O>11      -0.0399
  27 H1        1.7006    -9.0664    -6.6035  H       1  <O>11       0.0323
  28 H2        3.2247    -9.1590    -7.5183  H       1  <O>11       0.0323
  29 H3        2.7453    -7.6318    -6.7397  H       1  <O>11       0.0323
  30 H4        1.8130   -10.0730    -4.5590  H       1  <O>11       0.1548
  31 H5        9.3251   -10.6113     1.2946  H       1  <O>11       0.1550
  32 H6        9.9768   -11.6445     5.9883  H       1  <O>11       0.1453
  33 H7       10.3524   -11.3769     7.6940  H       1  <O>11       0.1453
  34 H8        1.8333   -11.2983    -2.5031  H       1  <O>11       0.0636
  35 H9        2.9863   -11.9476    -0.4617  H       1  <O>11       0.0625
  36 H10       4.0027   -12.7665     0.8845  H       1  <O>11       0.0654
  37 H11       5.2454   -13.3229     2.8718  H       1  <O>11       0.0831
  38 H12       8.0526    -7.8241     2.0183  H       1  <O>11       0.0636
  39 H13       8.3062    -6.3327     3.9137  H       1  <O>11       0.0618
  40 H14       9.0621    -7.1961     6.0574  H       1  <O>11       0.0625
  41 H15       9.3111   -11.0654     4.4093  H       1  <O>11       0.0644
  42 H16       6.4118    -9.8736    -1.7419  H       1  <O>11       0.0625
  43 H17       5.2702    -9.2259    -3.7844  H       1  <O>11       0.0636
@<TRIPOS>BOND
     1     1     2    1
     2     2     3    2
     3     2     4   am
     4     4     5    1
     5     5     6   ar
     6     6     7   ar
     7     7     8   ar
     8     8     9    1
     9     9    10   ar
    10    10    11   ar
    11    11    12   ar
    12    12    13   ar
    13    13    14    1
    14    14    15    1
    15    15    16   ar
    16    16    17   ar
    17    17    18   ar
    18    18    19   ar
    19    19    20    1
    20    20    21   am
    21    20    22    2
    22    19    23   ar
    23    15    23   ar
    24    13    24   ar
    25     9    24   ar
    26     8    25   ar
    27    25    26   ar
    28     5    26   ar
    29     1    27    1
    30     1    28    1
    31     1    29    1
    32     4    30    1
    33    14    31    1
    34    21    32    1
    35    21    33    1
    36     6    34    1
    37     7    35    1
    38    10    36    1
    39    11    37    1
    40    16    38    1
    41    17    39    1
    42    18    40    1
    43    23    41    1
    44    25    42    1
    45    26    43    1
@<TRIPOS>MOLECULE
mol63_2_24
 43 45 0 0 0
SMALL
USER_CHARGES
****
VDW energy = -169.65
@<TRIPOS>ATOM
   1 C1        2.7323    -8.7181    -6.6515  C.3     1  <O>11       0.0125
   2 C2        3.4528    -9.1250    -5.4100  C.2     1  <O>11       0.2141
   3 O1        4.6297    -8.8309    -5.2623  O.2     1  <O>11      -0.2758
   4 N1        2.7960    -9.8280    -4.4360  N.am    1  <O>11      -0.2857
   5 C3        3.4640   -10.2050    -3.2840  C.ar    1  <O>11       0.0334
   6 C4        2.8054   -10.9936    -2.3381  C.ar    1  <O>11      -0.0399
   7 C5        3.4709   -11.3684    -1.1651  C.ar    1  <O>11      -0.0508
   8 C6        4.7894   -10.9608    -0.9432  C.ar    1  <O>11       0.0006
   9 C7        5.4725   -11.3373     0.2501  C.ar    1  <O>11       0.0760
  10 C8        4.9041   -12.3116     1.0979  C.ar    1  <O>11      -0.0174
  11 C9        5.6264   -12.6153     2.2243  C.ar    1  <O>11       0.0332
  12 N2        6.8052   -12.0408     2.5313  N.ar    1  <O>11      -0.2226
  13 C10       7.2799   -11.1229     1.6738  C.ar    1  <O>11       0.2200
  14 N3        8.5341   -10.4558     1.9196  N.pl3   1  <O>11      -0.2836
  15 C11       8.9436    -9.3487     1.0766  C.ar    1  <O>11       0.0343
  16 C12       8.2159    -8.1455     1.0803  C.ar    1  <O>11      -0.0404
  17 C13       8.6051    -7.0847     0.2578  C.ar    1  <O>11      -0.0593
  18 C14       9.7227    -7.2088    -0.5721  C.ar    1  <O>11      -0.0495
  19 C15      10.4490    -8.4024    -0.5720  C.ar    1  <O>11       0.0382
  20 C16      11.6065    -8.5277    -1.4322  C.2     1  <O>11       0.2416
  21 N4       12.2931    -9.7110    -1.4917  N.am    1  <O>11      -0.3253
  22 O2       11.9698    -7.5765    -2.1100  O.2     1  <O>11      -0.2704
  23 C17      10.0712    -9.4695     0.2463  C.ar    1  <O>11      -0.0284
  24 N5        6.6427   -10.7615     0.5467  N.ar    1  <O>11      -0.2142
  25 C18       5.4385   -10.1764    -1.9034  C.ar    1  <O>11      -0.0508
  26 C19       4.7839    -9.7989    -3.0772  C.ar    1  <O>11      -0.0399
  27 H1        1.7006    -9.0664    -6.6035  H       1  <O>11       0.0323
  28 H2        3.2247    -9.1590    -7.5183  H       1  <O>11       0.0323
  29 H3        2.7453    -7.6318    -6.7397  H       1  <O>11       0.0323
  30 H4        1.8130   -10.0730    -4.5590  H       1  <O>11       0.1548
  31 H5        9.1325   -10.7621     2.6866  H       1  <O>11       0.1550
  32 H6       11.9893   -10.5052    -0.9280  H       1  <O>11       0.1453
  33 H7       13.1084    -9.7978    -2.0980  H       1  <O>11       0.1453
  34 H8        1.8333   -11.2983    -2.5031  H       1  <O>11       0.0636
  35 H9        2.9863   -11.9476    -0.4617  H       1  <O>11       0.0625
  36 H10       4.0027   -12.7665     0.8845  H       1  <O>11       0.0654
  37 H11       5.2454   -13.3229     2.8718  H       1  <O>11       0.0831
  38 H12       7.3914    -8.0453     1.6927  H       1  <O>11       0.0636
  39 H13       8.0645    -6.2055     0.2633  H       1  <O>11       0.0618
  40 H14      10.0091    -6.4254    -1.1799  H       1  <O>11       0.0625
  41 H15      10.6186   -10.3443     0.2413  H       1  <O>11       0.0644
  42 H16       6.4118    -9.8736    -1.7419  H       1  <O>11       0.0625
  43 H17       5.2702    -9.2259    -3.7844  H       1  <O>11       0.0636
@<TRIPOS>BOND
     1     1     2    1
     2     2     3    2
     3     2     4   am
     4     4     5    1
     5     5     6   ar
     6     6     7   ar
     7     7     8   ar
     8     8     9    1
     9     9    10   ar
    10    10    11   ar
    11    11    12   ar
    12    12    13   ar
    13    13    14    1
    14    14    15    1
    15    15    16   ar
    16    16    17   ar
    17    17    18   ar
    18    18    19   ar
    19    19    20    1
    20    20    21   am
    21    20    22    2
    22    19    23   ar
    23    15    23   ar
    24    13    24   ar
    25     9    24   ar
    26     8    25   ar
    27    25    26   ar
    28     5    26   ar
    29     1    27    1
    30     1    28    1
    31     1    29    1
    32     4    30    1
    33    14    31    1
    34    21    32    1
    35    21    33    1
    36     6    34    1
    37     7    35    1
    38    10    36    1
    39    11    37    1
    40    16    38    1
    41    17    39    1
    42    18    40    1
    43    23    41    1
    44    25    42    1
    45    26    43    1
@<TRIPOS>MOLECULE
mol63_2_25
 43 45 0 0 0
SMALL
USER_CHARGES
****
VDW energy = -169.25
@<TRIPOS>ATOM
   1 C1        2.7323    -8.7181    -6.6515  C.3     1  <O>11       0.0125
   2 C2        3.4528    -9.1250    -5.4100  C.2     1  <O>11       0.2141
   3 O1        4.6297    -8.8309    -5.2623  O.2     1  <O>11      -0.2758
   4 N1        2.7960    -9.8280    -4.4360  N.am    1  <O>11      -0.2857
   5 C3        3.4640   -10.2050    -3.2840  C.ar    1  <O>11       0.0334
   6 C4        2.8054   -10.9936    -2.3381  C.ar    1  <O>11      -0.0399
   7 C5        3.4709   -11.3684    -1.1651  C.ar    1  <O>11      -0.0508
   8 C6        4.7894   -10.9608    -0.9432  C.ar    1  <O>11       0.0006
   9 C7        5.4725   -11.3373     0.2501  C.ar    1  <O>11       0.0760
  10 C8        4.9041   -12.3116     1.0979  C.ar    1  <O>11      -0.0174
  11 C9        5.6264   -12.6153     2.2243  C.ar    1  <O>11       0.0332
  12 N2        6.8052   -12.0408     2.5313  N.ar    1  <O>11      -0.2226
  13 C10       7.2799   -11.1229     1.6738  C.ar    1  <O>11       0.2200
  14 N3        8.5341   -10.4558     1.9196  N.pl3   1  <O>11      -0.2836
  15 C11       8.5608    -9.2178     2.6749  C.ar    1  <O>11       0.0343
  16 C12       8.2016    -9.2068     4.0344  C.ar    1  <O>11      -0.0404
  17 C13       8.2159    -8.0105     4.7569  C.ar    1  <O>11      -0.0593
  18 C14       8.5912    -6.8160     4.1360  C.ar    1  <O>11      -0.0495
  19 C15       8.9532    -6.8276     2.7865  C.ar    1  <O>11       0.0382
  20 C16       9.3418    -5.5888     2.1465  C.2     1  <O>11       0.2416
  21 N4        9.6394    -5.5702     0.8098  N.am    1  <O>11      -0.3253
  22 O2        9.4010    -4.5561     2.7992  O.2     1  <O>11      -0.2704
  23 C17       8.9442    -8.0167     2.0537  C.ar    1  <O>11      -0.0284
  24 N5        6.6427   -10.7615     0.5467  N.ar    1  <O>11      -0.2142
  25 C18       5.4385   -10.1764    -1.9034  C.ar    1  <O>11      -0.0508
  26 C19       4.7839    -9.7989    -3.0772  C.ar    1  <O>11      -0.0399
  27 H1        1.7006    -9.0664    -6.6035  H       1  <O>11       0.0323
  28 H2        3.2247    -9.1590    -7.5183  H       1  <O>11       0.0323
  29 H3        2.7453    -7.6318    -6.7397  H       1  <O>11       0.0323
  30 H4        1.8130   -10.0730    -4.5590  H       1  <O>11       0.1548
  31 H5        9.4022   -10.8550     1.5627  H       1  <O>11       0.1550
  32 H6        9.5882    -6.4310     0.2645  H       1  <O>11       0.1453
  33 H7        9.9132    -4.6968     0.3603  H       1  <O>11       0.1453
  34 H8        1.8333   -11.2983    -2.5031  H       1  <O>11       0.0636
  35 H9        2.9863   -11.9476    -0.4617  H       1  <O>11       0.0625
  36 H10       4.0027   -12.7665     0.8845  H       1  <O>11       0.0654
  37 H11       5.2454   -13.3229     2.8718  H       1  <O>11       0.0831
  38 H12       7.9265   -10.0854     4.5005  H       1  <O>11       0.0636
  39 H13       7.9482    -8.0093     5.7536  H       1  <O>11       0.0618
  40 H14       8.6007    -5.9328     4.6698  H       1  <O>11       0.0625
  41 H15       9.2184    -8.0134     1.0589  H       1  <O>11       0.0644
  42 H16       6.4118    -9.8736    -1.7419  H       1  <O>11       0.0625
  43 H17       5.2702    -9.2259    -3.7844  H       1  <O>11       0.0636
@<TRIPOS>BOND
     1     1     2    1
     2     2     3    2
     3     2     4   am
     4     4     5    1
     5     5     6   ar
     6     6     7   ar
     7     7     8   ar
     8     8     9    1
     9     9    10   ar
    10    10    11   ar
    11    11    12   ar
    12    12    13   ar
    13    13    14    1
    14    14    15    1
    15    15    16   ar
    16    16    17   ar
    17    17    18   ar
    18    18    19   ar
    19    19    20    1
    20    20    21   am
    21    20    22    2
    22    19    23   ar
    23    15    23   ar
    24    13    24   ar
    25     9    24   ar
    26     8    25   ar
    27    25    26   ar
    28     5    26   ar
    29     1    27    1
    30     1    28    1
    31     1    29    1
    32     4    30    1
    33    14    31    1
    34    21    32    1
    35    21    33    1
    36     6    34    1
    37     7    35    1
    38    10    36    1
    39    11    37    1
    40    16    38    1
    41    17    39    1
    42    18    40    1
    43    23    41    1
    44    25    42    1
    45    26    43    1
@<TRIPOS>MOLECULE
mol63_2_26
 43 45 0 0 0
SMALL
USER_CHARGES
****
VDW energy = -169.11
@<TRIPOS>ATOM
   1 C1        2.7323    -8.7181    -6.6515  C.3     1  <O>11       0.0125
   2 C2        3.4528    -9.1250    -5.4100  C.2     1  <O>11       0.2141
   3 O1        4.6297    -8.8309    -5.2623  O.2     1  <O>11      -0.2758
   4 N1        2.7960    -9.8280    -4.4360  N.am    1  <O>11      -0.2857
   5 C3        3.4640   -10.2050    -3.2840  C.ar    1  <O>11       0.0334
   6 C4        2.8054   -10.9936    -2.3381  C.ar    1  <O>11      -0.0399
   7 C5        3.4709   -11.3684    -1.1651  C.ar    1  <O>11      -0.0508
   8 C6        4.7894   -10.9608    -0.9432  C.ar    1  <O>11       0.0006
   9 C7        5.4725   -11.3373     0.2501  C.ar    1  <O>11       0.0760
  10 C8        4.9041   -12.3116     1.0979  C.ar    1  <O>11      -0.0174
  11 C9        5.6264   -12.6153     2.2243  C.ar    1  <O>11       0.0332
  12 N2        6.8052   -12.0408     2.5313  N.ar    1  <O>11      -0.2226
  13 C10       7.2799   -11.1229     1.6738  C.ar    1  <O>11       0.2200
  14 N3        8.5341   -10.4558     1.9196  N.pl3   1  <O>11      -0.2836
  15 C11       9.7686   -11.0228     1.4114  C.ar    1  <O>11       0.0343
  16 C12      10.2403   -12.2534     1.9017  C.ar    1  <O>11      -0.0404
  17 C13      11.4365   -12.7917     1.4196  C.ar    1  <O>11      -0.0593
  18 C14      12.1721   -12.1140     0.4435  C.ar    1  <O>11      -0.0495
  19 C15      11.7009   -10.8938    -0.0477  C.ar    1  <O>11       0.0382
  20 C16      12.4648   -10.1946    -1.0591  C.2     1  <O>11       0.2416
  21 N4       12.0511    -8.9682    -1.5068  N.am    1  <O>11      -0.3253
  22 O2       13.4834   -10.6977    -1.5121  O.2     1  <O>11      -0.2704
  23 C17      10.5062   -10.3458     0.4249  C.ar    1  <O>11      -0.0284
  24 N5        6.6427   -10.7615     0.5467  N.ar    1  <O>11      -0.2142
  25 C18       5.4385   -10.1764    -1.9034  C.ar    1  <O>11      -0.0508
  26 C19       4.7839    -9.7989    -3.0772  C.ar    1  <O>11      -0.0399
  27 H1        1.7006    -9.0664    -6.6035  H       1  <O>11       0.0323
  28 H2        3.2247    -9.1590    -7.5183  H       1  <O>11       0.0323
  29 H3        2.7453    -7.6318    -6.7397  H       1  <O>11       0.0323
  30 H4        1.8130   -10.0730    -4.5590  H       1  <O>11       0.1548
  31 H5        8.5526    -9.5848     2.4501  H       1  <O>11       0.1550
  32 H6       11.2025    -8.5473    -1.1278  H       1  <O>11       0.1453
  33 H7       12.5901    -8.4769    -2.2195  H       1  <O>11       0.1453
  34 H8        1.8333   -11.2983    -2.5031  H       1  <O>11       0.0636
  35 H9        2.9863   -11.9476    -0.4617  H       1  <O>11       0.0625
  36 H10       4.0027   -12.7665     0.8845  H       1  <O>11       0.0654
  37 H11       5.2454   -13.3229     2.8718  H       1  <O>11       0.0831
  38 H12       9.7009   -12.7612     2.6203  H       1  <O>11       0.0636
  39 H13      11.7784   -13.6938     1.7862  H       1  <O>11       0.0618
  40 H14      13.0559   -12.5116     0.0885  H       1  <O>11       0.0625
  41 H15      10.1659    -9.4462     0.0508  H       1  <O>11       0.0644
  42 H16       6.4118    -9.8736    -1.7419  H       1  <O>11       0.0625
  43 H17       5.2702    -9.2259    -3.7844  H       1  <O>11       0.0636
@<TRIPOS>BOND
     1     1     2    1
     2     2     3    2
     3     2     4   am
     4     4     5    1
     5     5     6   ar
     6     6     7   ar
     7     7     8   ar
     8     8     9    1
     9     9    10   ar
    10    10    11   ar
    11    11    12   ar
    12    12    13   ar
    13    13    14    1
    14    14    15    1
    15    15    16   ar
    16    16    17   ar
    17    17    18   ar
    18    18    19   ar
    19    19    20    1
    20    20    21   am
    21    20    22    2
    22    19    23   ar
    23    15    23   ar
    24    13    24   ar
    25     9    24   ar
    26     8    25   ar
    27    25    26   ar
    28     5    26   ar
    29     1    27    1
    30     1    28    1
    31     1    29    1
    32     4    30    1
    33    14    31    1
    34    21    32    1
    35    21    33    1
    36     6    34    1
    37     7    35    1
    38    10    36    1
    39    11    37    1
    40    16    38    1
    41    17    39    1
    42    18    40    1
    43    23    41    1
    44    25    42    1
    45    26    43    1
@<TRIPOS>MOLECULE
mol63_2_27
 43 45 0 0 0
SMALL
USER_CHARGES
****
VDW energy = -168.54
@<TRIPOS>ATOM
   1 C1        2.7323    -8.7181    -6.6515  C.3     1  <O>11       0.0125
   2 C2        3.4528    -9.1250    -5.4100  C.2     1  <O>11       0.2141
   3 O1        4.6297    -8.8309    -5.2623  O.2     1  <O>11      -0.2758
   4 N1        2.7960    -9.8280    -4.4360  N.am    1  <O>11      -0.2857
   5 C3        3.4640   -10.2050    -3.2840  C.ar    1  <O>11       0.0334
   6 C4        2.8054   -10.9936    -2.3381  C.ar    1  <O>11      -0.0399
   7 C5        3.4709   -11.3684    -1.1651  C.ar    1  <O>11      -0.0508
   8 C6        4.7894   -10.9608    -0.9432  C.ar    1  <O>11       0.0006
   9 C7        5.4725   -11.3373     0.2501  C.ar    1  <O>11       0.0760
  10 C8        4.9041   -12.3116     1.0979  C.ar    1  <O>11      -0.0174
  11 C9        5.6264   -12.6153     2.2243  C.ar    1  <O>11       0.0332
  12 N2        6.8052   -12.0408     2.5313  N.ar    1  <O>11      -0.2226
  13 C10       7.2799   -11.1229     1.6738  C.ar    1  <O>11       0.2200
  14 N3        8.5341   -10.4558     1.9196  N.pl3   1  <O>11      -0.2836
  15 C11       8.9436    -9.3487     1.0766  C.ar    1  <O>11       0.0343
  16 C12       9.2357    -9.5604    -0.2825  C.ar    1  <O>11      -0.0404
  17 C13       9.6424    -8.4945    -1.0898  C.ar    1  <O>11      -0.0593
  18 C14       9.7583    -7.2086    -0.5546  C.ar    1  <O>11      -0.0495
  19 C15       9.4630    -6.9971     0.7946  C.ar    1  <O>11       0.0382
  20 C16       9.5835    -5.6640     1.3457  C.2     1  <O>11       0.2416
  21 N4        9.3588    -5.4493     2.6795  N.am    1  <O>11      -0.3253
  22 O2        9.8901    -4.7283     0.6202  O.2     1  <O>11      -0.2704
  23 C17       9.0544    -8.0537     1.6116  C.ar    1  <O>11      -0.0284
  24 N5        6.6427   -10.7615     0.5467  N.ar    1  <O>11      -0.2142
  25 C18       5.4385   -10.1764    -1.9034  C.ar    1  <O>11      -0.0508
  26 C19       4.7839    -9.7989    -3.0772  C.ar    1  <O>11      -0.0399
  27 H1        1.7006    -9.0664    -6.6035  H       1  <O>11       0.0323
  28 H2        3.2247    -9.1590    -7.5183  H       1  <O>11       0.0323
  29 H3        2.7453    -7.6318    -6.7397  H       1  <O>11       0.0323
  30 H4        1.8130   -10.0730    -4.5590  H       1  <O>11       0.1548
  31 H5        9.1325   -10.7621     2.6866  H       1  <O>11       0.1550
  32 H6        9.1050    -6.2299     3.2854  H       1  <O>11       0.1453
  33 H7        9.4439    -4.5097     3.0663  H       1  <O>11       0.1453
  34 H8        1.8333   -11.2983    -2.5031  H       1  <O>11       0.0636
  35 H9        2.9863   -11.9476    -0.4617  H       1  <O>11       0.0625
  36 H10       4.0027   -12.7665     0.8845  H       1  <O>11       0.0654
  37 H11       5.2454   -13.3229     2.8718  H       1  <O>11       0.0831
  38 H12       9.1494   -10.5066    -0.6855  H       1  <O>11       0.0636
  39 H13       9.8581    -8.6577    -2.0857  H       1  <O>11       0.0618
  40 H14      10.0594    -6.4221    -1.1510  H       1  <O>11       0.0625
  41 H15       8.8343    -7.8840     2.6055  H       1  <O>11       0.0644
  42 H16       6.4118    -9.8736    -1.7419  H       1  <O>11       0.0625
  43 H17       5.2702    -9.2259    -3.7844  H       1  <O>11       0.0636
@<TRIPOS>BOND
     1     1     2    1
     2     2     3    2
     3     2     4   am
     4     4     5    1
     5     5     6   ar
     6     6     7   ar
     7     7     8   ar
     8     8     9    1
     9     9    10   ar
    10    10    11   ar
    11    11    12   ar
    12    12    13   ar
    13    13    14    1
    14    14    15    1
    15    15    16   ar
    16    16    17   ar
    17    17    18   ar
    18    18    19   ar
    19    19    20    1
    20    20    21   am
    21    20    22    2
    22    19    23   ar
    23    15    23   ar
    24    13    24   ar
    25     9    24   ar
    26     8    25   ar
    27    25    26   ar
    28     5    26   ar
    29     1    27    1
    30     1    28    1
    31     1    29    1
    32     4    30    1
    33    14    31    1
    34    21    32    1
    35    21    33    1
    36     6    34    1
    37     7    35    1
    38    10    36    1
    39    11    37    1
    40    16    38    1
    41    17    39    1
    42    18    40    1
    43    23    41    1
    44    25    42    1
    45    26    43    1
@<TRIPOS>MOLECULE
mol63_2_28
 43 45 0 0 0
SMALL
USER_CHARGES
****
VDW energy = -166.03
@<TRIPOS>ATOM
   1 C1        2.7323    -8.7181    -6.6515  C.3     1  <O>11       0.0125
   2 C2        3.4528    -9.1250    -5.4100  C.2     1  <O>11       0.2141
   3 O1        4.6297    -8.8309    -5.2623  O.2     1  <O>11      -0.2758
   4 N1        2.7960    -9.8280    -4.4360  N.am    1  <O>11      -0.2857
   5 C3        3.4640   -10.2050    -3.2840  C.ar    1  <O>11       0.0334
   6 C4        2.8054   -10.9936    -2.3381  C.ar    1  <O>11      -0.0399
   7 C5        3.4709   -11.3684    -1.1651  C.ar    1  <O>11      -0.0508
   8 C6        4.7894   -10.9608    -0.9432  C.ar    1  <O>11       0.0006
   9 C7        5.4725   -11.3373     0.2501  C.ar    1  <O>11       0.0760
  10 C8        4.9041   -12.3116     1.0979  C.ar    1  <O>11      -0.0174
  11 C9        5.6264   -12.6153     2.2243  C.ar    1  <O>11       0.0332
  12 N2        6.8052   -12.0408     2.5313  N.ar    1  <O>11      -0.2226
  13 C10       7.2799   -11.1229     1.6738  C.ar    1  <O>11       0.2200
  14 N3        8.5341   -10.4558     1.9196  N.pl3   1  <O>11      -0.2836
  15 C11       8.6706    -9.5646     3.0558  C.ar    1  <O>11       0.0343
  16 C12       9.8701    -8.8621     3.2679  C.ar    1  <O>11      -0.0404
  17 C13      10.0038    -8.0137     4.3705  C.ar    1  <O>11      -0.0593
  18 C14       8.9456    -7.8529     5.2691  C.ar    1  <O>11      -0.0495
  19 C15       7.7518    -8.5468     5.0556  C.ar    1  <O>11       0.0382
  20 C16       6.6574    -8.3777     5.9879  C.2     1  <O>11       0.2416
  21 N4        5.5029    -9.0970     5.8295  N.am    1  <O>11      -0.3253
  22 O2        6.7650    -7.5941     6.9208  O.2     1  <O>11      -0.2704
  23 C17       7.6051    -9.3967     3.9569  C.ar    1  <O>11      -0.0284
  24 N5        6.6427   -10.7615     0.5467  N.ar    1  <O>11      -0.2142
  25 C18       5.4385   -10.1764    -1.9034  C.ar    1  <O>11      -0.0508
  26 C19       4.7839    -9.7989    -3.0772  C.ar    1  <O>11      -0.0399
  27 H1        1.7006    -9.0664    -6.6035  H       1  <O>11       0.0323
  28 H2        3.2247    -9.1590    -7.5183  H       1  <O>11       0.0323
  29 H3        2.7453    -7.6318    -6.7397  H       1  <O>11       0.0323
  30 H4        1.8130   -10.0730    -4.5590  H       1  <O>11       0.1548
  31 H5        9.3251   -10.6113     1.2946  H       1  <O>11       0.1550
  32 H6        5.4134    -9.7522     5.0525  H       1  <O>11       0.1453
  33 H7        4.7327    -8.9768     6.4869  H       1  <O>11       0.1453
  34 H8        1.8333   -11.2983    -2.5031  H       1  <O>11       0.0636
  35 H9        2.9863   -11.9476    -0.4617  H       1  <O>11       0.0625
  36 H10       4.0027   -12.7665     0.8845  H       1  <O>11       0.0654
  37 H11       5.2454   -13.3229     2.8718  H       1  <O>11       0.0831
  38 H12      10.6548    -8.9733     2.6069  H       1  <O>11       0.0636
  39 H13      10.8881    -7.5035     4.5217  H       1  <O>11       0.0618
  40 H14       9.0452    -7.2269     6.0836  H       1  <O>11       0.0625
  41 H15       6.7167    -9.9000     3.8071  H       1  <O>11       0.0644
  42 H16       6.4118    -9.8736    -1.7419  H       1  <O>11       0.0625
  43 H17       5.2702    -9.2259    -3.7844  H       1  <O>11       0.0636
@<TRIPOS>BOND
     1     1     2    1
     2     2     3    2
     3     2     4   am
     4     4     5    1
     5     5     6   ar
     6     6     7   ar
     7     7     8   ar
     8     8     9    1
     9     9    10   ar
    10    10    11   ar
    11    11    12   ar
    12    12    13   ar
    13    13    14    1
    14    14    15    1
    15    15    16   ar
    16    16    17   ar
    17    17    18   ar
    18    18    19   ar
    19    19    20    1
    20    20    21   am
    21    20    22    2
    22    19    23   ar
    23    15    23   ar
    24    13    24   ar
    25     9    24   ar
    26     8    25   ar
    27    25    26   ar
    28     5    26   ar
    29     1    27    1
    30     1    28    1
    31     1    29    1
    32     4    30    1
    33    14    31    1
    34    21    32    1
    35    21    33    1
    36     6    34    1
    37     7    35    1
    38    10    36    1
    39    11    37    1
    40    16    38    1
    41    17    39    1
    42    18    40    1
    43    23    41    1
    44    25    42    1
    45    26    43    1
@<TRIPOS>MOLECULE
mol63_2_29
 43 45 0 0 0
SMALL
USER_CHARGES
****
VDW energy = -144.87
@<TRIPOS>ATOM
   1 C1        2.7323    -8.7181    -6.6515  C.3     1  <O>11       0.0125
   2 C2        3.4528    -9.1250    -5.4100  C.2     1  <O>11       0.2141
   3 O1        4.6297    -8.8309    -5.2623  O.2     1  <O>11      -0.2758
   4 N1        2.7960    -9.8280    -4.4360  N.am    1  <O>11      -0.2857
   5 C3        3.4640   -10.2050    -3.2840  C.ar    1  <O>11       0.0334
   6 C4        2.8054   -10.9936    -2.3381  C.ar    1  <O>11      -0.0399
   7 C5        3.4709   -11.3684    -1.1651  C.ar    1  <O>11      -0.0508
   8 C6        4.7894   -10.9608    -0.9432  C.ar    1  <O>11       0.0006
   9 C7        5.4725   -11.3373     0.2501  C.ar    1  <O>11       0.0760
  10 C8        5.9502   -10.3362     1.1222  C.ar    1  <O>11      -0.0174
  11 C9        6.5955   -10.7846     2.2471  C.ar    1  <O>11       0.0332
  12 N2        6.7780   -12.0882     2.5320  N.ar    1  <O>11      -0.2226
  13 C10       6.2940   -12.9800     1.6523  C.ar    1  <O>11       0.2200
  14 N3        6.4420   -14.3969     1.8739  N.pl3   1  <O>11      -0.2836
  15 C11       6.0684   -15.3362     0.8337  C.ar    1  <O>11       0.0343
  16 C12       6.1509   -16.7210     1.0635  C.ar    1  <O>11      -0.0404
  17 C13       5.8025   -17.6241     0.0554  C.ar    1  <O>11      -0.0593
  18 C14       5.3652   -17.1591    -1.1879  C.ar    1  <O>11      -0.0495
  19 C15       5.2780   -15.7831    -1.4146  C.ar    1  <O>11       0.0382
  20 C16       4.8242   -15.3046    -2.7032  C.2     1  <O>11       0.2416
  21 N4        4.7920   -13.9607    -2.9644  N.am    1  <O>11      -0.3253
  22 O2        4.4724   -16.1017    -3.5617  O.2     1  <O>11      -0.2704
  23 C17       5.6221   -14.8702    -0.4150  C.ar    1  <O>11      -0.0284
  24 N5        5.6490   -12.6343     0.5247  N.ar    1  <O>11      -0.2142
  25 C18       5.4385   -10.1764    -1.9034  C.ar    1  <O>11      -0.0508
  26 C19       4.7839    -9.7989    -3.0772  C.ar    1  <O>11      -0.0399
  27 H1        1.7006    -9.0664    -6.6035  H       1  <O>11       0.0323
  28 H2        3.2247    -9.1590    -7.5183  H       1  <O>11       0.0323
  29 H3        2.7453    -7.6318    -6.7397  H       1  <O>11       0.0323
  30 H4        1.8130   -10.0730    -4.5590  H       1  <O>11       0.1548
  31 H5        6.8100   -14.7381     2.7619  H       1  <O>11       0.1550
  32 H6        5.0871   -13.2956    -2.2493  H       1  <O>11       0.1453
  33 H7        4.4719   -13.6250    -3.8726  H       1  <O>11       0.1453
  34 H8        1.8333   -11.2983    -2.5031  H       1  <O>11       0.0636
  35 H9        2.9863   -11.9476    -0.4617  H       1  <O>11       0.0625
  36 H10       5.8224    -9.3310     0.9266  H       1  <O>11       0.0654
  37 H11       6.9610   -10.0845     2.9113  H       1  <O>11       0.0831
  38 H12       6.4700   -17.0718     1.9800  H       1  <O>11       0.0636
  39 H13       5.8685   -18.6391     0.2299  H       1  <O>11       0.0618
  40 H14       5.1088   -17.8264    -1.9322  H       1  <O>11       0.0625
  41 H15       5.5488   -13.8563    -0.5928  H       1  <O>11       0.0644
  42 H16       6.4118    -9.8736    -1.7419  H       1  <O>11       0.0625
  43 H17       5.2702    -9.2259    -3.7844  H       1  <O>11       0.0636
@<TRIPOS>BOND
     1     1     2    1
     2     2     3    2
     3     2     4   am
     4     4     5    1
     5     5     6   ar
     6     6     7   ar
     7     7     8   ar
     8     8     9    1
     9     9    10   ar
    10    10    11   ar
    11    11    12   ar
    12    12    13   ar
    13    13    14    1
    14    14    15    1
    15    15    16   ar
    16    16    17   ar
    17    17    18   ar
    18    18    19   ar
    19    19    20    1
    20    20    21   am
    21    20    22    2
    22    19    23   ar
    23    15    23   ar
    24    13    24   ar
    25     9    24   ar
    26     8    25   ar
    27    25    26   ar
    28     5    26   ar
    29     1    27    1
    30     1    28    1
    31     1    29    1
    32     4    30    1
    33    14    31    1
    34    21    32    1
    35    21    33    1
    36     6    34    1
    37     7    35    1
    38    10    36    1
    39    11    37    1
    40    16    38    1
    41    17    39    1
    42    18    40    1
    43    23    41    1
    44    25    42    1
    45    26    43    1
@<TRIPOS>MOLECULE
mol63_2_30
 43 45 0 0 0
SMALL
USER_CHARGES
****
VDW energy = -140.21
@<TRIPOS>ATOM
   1 C1        2.7323    -8.7181    -6.6515  C.3     1  <O>11       0.0125
   2 C2        3.4528    -9.1250    -5.4100  C.2     1  <O>11       0.2141
   3 O1        4.6297    -8.8309    -5.2623  O.2     1  <O>11      -0.2758
   4 N1        2.7960    -9.8280    -4.4360  N.am    1  <O>11      -0.2857
   5 C3        3.4640   -10.2050    -3.2840  C.ar    1  <O>11       0.0334
   6 C4        2.8054   -10.9936    -2.3381  C.ar    1  <O>11      -0.0399
   7 C5        3.4709   -11.3684    -1.1651  C.ar    1  <O>11      -0.0508
   8 C6        4.7894   -10.9608    -0.9432  C.ar    1  <O>11       0.0006
   9 C7        5.4725   -11.3373     0.2501  C.ar    1  <O>11       0.0760
  10 C8        4.9041   -12.3116     1.0979  C.ar    1  <O>11      -0.0174
  11 C9        5.6264   -12.6153     2.2243  C.ar    1  <O>11       0.0332
  12 N2        6.8052   -12.0408     2.5313  N.ar    1  <O>11      -0.2226
  13 C10       7.2799   -11.1229     1.6738  C.ar    1  <O>11       0.2200
  14 N3        8.5341   -10.4558     1.9196  N.pl3   1  <O>11      -0.2836
  15 C11       8.9436    -9.3487     1.0766  C.ar    1  <O>11       0.0343
  16 C12      10.1927    -8.7324     1.2699  C.ar    1  <O>11      -0.0404
  17 C13      10.5798    -7.6577     0.4647  C.ar    1  <O>11      -0.0593
  18 C14       9.7312    -7.1889    -0.5419  C.ar    1  <O>11      -0.0495
  19 C15       8.4922    -7.8046    -0.7376  C.ar    1  <O>11       0.0382
  20 C16       7.6157    -7.3171    -1.7814  C.2     1  <O>11       0.2416
  21 N4        7.6956    -7.8394    -3.0448  N.am    1  <O>11      -0.3253
  22 O2        6.7998    -6.4401    -1.5340  O.2     1  <O>11      -0.2704
  23 C17       8.0942    -8.8803     0.0595  C.ar    1  <O>11      -0.0284
  24 N5        6.6427   -10.7615     0.5467  N.ar    1  <O>11      -0.2142
  25 C18       5.4385   -10.1764    -1.9034  C.ar    1  <O>11      -0.0508
  26 C19       4.7839    -9.7989    -3.0772  C.ar    1  <O>11      -0.0399
  27 H1        1.7006    -9.0664    -6.6035  H       1  <O>11       0.0323
  28 H2        3.2247    -9.1590    -7.5183  H       1  <O>11       0.0323
  29 H3        2.7453    -7.6318    -6.7397  H       1  <O>11       0.0323
  30 H4        1.8130   -10.0730    -4.5590  H       1  <O>11       0.1548
  31 H5        9.1325   -10.7621     2.6866  H       1  <O>11       0.1550
  32 H6        8.3747    -8.5722    -3.2511  H       1  <O>11       0.1453
  33 H7        7.0776    -7.4949    -3.7792  H       1  <O>11       0.1453
  34 H8        1.8333   -11.2983    -2.5031  H       1  <O>11       0.0636
  35 H9        2.9863   -11.9476    -0.4617  H       1  <O>11       0.0625
  36 H10       4.0027   -12.7665     0.8845  H       1  <O>11       0.0654
  37 H11       5.2454   -13.3229     2.8718  H       1  <O>11       0.0831
  38 H12      10.8261    -9.0751     2.0091  H       1  <O>11       0.0636
  39 H13      11.4967    -7.2081     0.6141  H       1  <O>11       0.0618
  40 H14      10.0172    -6.3948    -1.1357  H       1  <O>11       0.0625
  41 H15       7.1787    -9.3300    -0.0979  H       1  <O>11       0.0644
  42 H16       6.4118    -9.8736    -1.7419  H       1  <O>11       0.0625
  43 H17       5.2702    -9.2259    -3.7844  H       1  <O>11       0.0636
@<TRIPOS>BOND
     1     1     2    1
     2     2     3    2
     3     2     4   am
     4     4     5    1
     5     5     6   ar
     6     6     7   ar
     7     7     8   ar
     8     8     9    1
     9     9    10   ar
    10    10    11   ar
    11    11    12   ar
    12    12    13   ar
    13    13    14    1
    14    14    15    1
    15    15    16   ar
    16    16    17   ar
    17    17    18   ar
    18    18    19   ar
    19    19    20    1
    20    20    21   am
    21    20    22    2
    22    19    23   ar
    23    15    23   ar
    24    13    24   ar
    25     9    24   ar
    26     8    25   ar
    27    25    26   ar
    28     5    26   ar
    29     1    27    1
    30     1    28    1
    31     1    29    1
    32     4    30    1
    33    14    31    1
    34    21    32    1
    35    21    33    1
    36     6    34    1
    37     7    35    1
    38    10    36    1
    39    11    37    1
    40    16    38    1
    41    17    39    1
    42    18    40    1
    43    23    41    1
    44    25    42    1
    45    26    43    1
