@<TRIPOS>MOLECULE
mol64_1_1
 40 43 0 0 0
SMALL
USER_CHARGES
****
VDW energy = -25.68
@<TRIPOS>ATOM
   1 O1        3.4420    -9.1855    -5.2979  O.2     1  <O>11      -0.2666
   2 C1        2.8552    -9.8129    -4.4288  C.2     1  <O>11       0.2652
   3 C2        1.4620   -10.1610    -4.6040  C.ar    1  <O>11       0.0752
   4 C3        1.1317   -11.3710    -5.2192  C.ar    1  <O>11      -0.0431
   5 C4       -0.2136   -11.7087    -5.4033  C.ar    1  <O>11      -0.0406
   6 C5       -0.5665   -12.9836    -6.0575  C.3     1  <O>11       0.0171
   7 C6       -0.6742   -12.7747    -7.5244  C.ar    1  <O>11       0.0736
   8 N1       -0.4467   -11.5048    -8.0665  N.ar    1  <O>11      -0.1750
   9 N2       -0.6417   -11.2736    -9.3849  N.ar    1  <O>11      -0.2425
  10 C7       -1.0489   -12.2930   -10.1786  C.ar    1  <O>11       0.2725
  11 O2       -1.3274   -11.9645   -11.5190  O.2     1  <O>11      -0.2658
  12 C8       -1.1998   -13.6150    -9.7354  C.ar    1  <O>11       0.0496
  13 C9       -1.5683   -14.6923   -10.5739  C.ar    1  <O>11      -0.0487
  14 C10      -1.7328   -15.9789   -10.0601  C.ar    1  <O>11      -0.0610
  15 C11      -1.5389   -16.2141    -8.7037  C.ar    1  <O>11      -0.0611
  16 C12      -1.1815   -15.1615    -7.8594  C.ar    1  <O>11      -0.0521
  17 C13      -1.0027   -13.8524    -8.3641  C.ar    1  <O>11       0.0106
  18 C14      -1.2215   -10.8431    -4.9705  C.ar    1  <O>11      -0.0555
  19 C15      -0.8757    -9.6378    -4.3497  C.ar    1  <O>11      -0.0254
  20 C16       0.4633    -9.2929    -4.1603  C.ar    1  <O>11       0.1357
  21 F1        0.8028    -8.1157    -3.5453  F       1  <O>11      -0.2047
  22 N3        3.5160   -10.1860    -3.2900  N.ar    1  <O>11      -0.2903
  23 C17       4.7730    -9.8730    -3.1310  C.ar    1  <O>11       0.0127
  24 C18       5.0580   -10.3660    -1.8580  C.ar    1  <O>11      -0.0437
  25 C19       3.8660   -10.9920    -1.3960  C.ar    1  <O>11      -0.0437
  26 C20       2.8910   -10.8550    -2.3610  C.ar    1  <O>11       0.0127
  27 H1       -1.5219   -13.3377    -5.6697  H       1  <O>11       0.0377
  28 H2        0.2062   -13.7241    -5.8513  H       1  <O>11       0.0377
  29 H3       -0.4859   -10.3545    -9.7723  H       1  <O>11       0.1921
  30 H4        1.8757   -12.0122    -5.5360  H       1  <O>11       0.0629
  31 H5       -1.7179   -14.5243   -11.5811  H       1  <O>11       0.0625
  32 H6       -1.9982   -16.7552   -10.6862  H       1  <O>11       0.0618
  33 H7       -1.6590   -17.1653    -8.3216  H       1  <O>11       0.0618
  34 H8       -1.0457   -15.3411    -6.8522  H       1  <O>11       0.0624
  35 H9       -2.2138   -11.0911    -5.1078  H       1  <O>11       0.0621
  36 H10      -1.6184    -8.9973    -4.0287  H       1  <O>11       0.0646
  37 H11       5.4013    -9.3817    -3.7859  H       1  <O>11       0.0814
  38 H12       5.9543   -10.2918    -1.3519  H       1  <O>11       0.0633
  39 H13       3.7507   -11.4696    -0.4885  H       1  <O>11       0.0633
  40 H14       1.9165   -11.1947    -2.3509  H       1  <O>11       0.0814
@<TRIPOS>BOND
     1     1     2    2
     2     2     3    1
     3     3     4   ar
     4     4     5   ar
     5     5     6    1
     6     6     7    1
     7     7     8   ar
     8     8     9   ar
     9     9    10   ar
    10    10    11    2
    11    10    12   ar
    12    12    13   ar
    13    13    14   ar
    14    14    15   ar
    15    15    16   ar
    16    16    17   ar
    17     7    17   ar
    18    12    17   ar
    19     5    18   ar
    20    18    19   ar
    21    19    20   ar
    22     3    20   ar
    23    20    21    1
    24     2    22   am
    25    22    23   ar
    26    23    24   ar
    27    24    25   ar
    28    25    26   ar
    29    22    26   ar
    30     6    27    1
    31     6    28    1
    32     9    29    1
    33     4    30    1
    34    13    31    1
    35    14    32    1
    36    15    33    1
    37    16    34    1
    38    18    35    1
    39    19    36    1
    40    23    37    1
    41    24    38    1
    42    25    39    1
    43    26    40    1
@<TRIPOS>MOLECULE
mol64_1_2
 40 43 0 0 0
SMALL
USER_CHARGES
****
VDW energy = -25.62
@<TRIPOS>ATOM
   1 O1        3.4420    -9.1855    -5.2979  O.2     1  <O>11      -0.2666
   2 C1        2.8552    -9.8129    -4.4288  C.2     1  <O>11       0.2652
   3 C2        1.4620   -10.1610    -4.6040  C.ar    1  <O>11       0.0752
   4 C3        1.1317   -11.3710    -5.2192  C.ar    1  <O>11      -0.0431
   5 C4       -0.2136   -11.7087    -5.4033  C.ar    1  <O>11      -0.0406
   6 C5       -0.5665   -12.9836    -6.0575  C.3     1  <O>11       0.0171
   7 C6       -0.6958   -14.0488    -5.0299  C.ar    1  <O>11       0.0736
   8 N1       -0.7592   -13.7062    -3.6745  N.ar    1  <O>11      -0.1750
   9 N2       -0.7721   -14.6659    -2.7214  N.ar    1  <O>11      -0.2425
  10 C7       -0.7359   -15.9669    -3.0969  C.ar    1  <O>11       0.2725
  11 O2       -0.6531   -16.9122    -2.0569  O.2     1  <O>11      -0.2658
  12 C8       -0.7754   -16.3954    -4.4317  C.ar    1  <O>11       0.0496
  13 C9       -0.7964   -17.7533    -4.8254  C.ar    1  <O>11      -0.0487
  14 C10      -0.8024   -18.1104    -6.1740  C.ar    1  <O>11      -0.0610
  15 C11      -0.7820   -17.1234    -7.1529  C.ar    1  <O>11      -0.0611
  16 C12      -0.7542   -15.7776    -6.7832  C.ar    1  <O>11      -0.0521
  17 C13      -0.7557   -15.3970    -5.4210  C.ar    1  <O>11       0.0106
  18 C14      -1.2215   -10.8431    -4.9705  C.ar    1  <O>11      -0.0555
  19 C15      -0.8757    -9.6378    -4.3497  C.ar    1  <O>11      -0.0254
  20 C16       0.4633    -9.2929    -4.1603  C.ar    1  <O>11       0.1357
  21 F1        0.8028    -8.1157    -3.5453  F       1  <O>11      -0.2047
  22 N3        3.5160   -10.1860    -3.2900  N.ar    1  <O>11      -0.2903
  23 C17       4.7730    -9.8730    -3.1310  C.ar    1  <O>11       0.0127
  24 C18       5.0580   -10.3660    -1.8580  C.ar    1  <O>11      -0.0437
  25 C19       3.8660   -10.9920    -1.3960  C.ar    1  <O>11      -0.0437
  26 C20       2.8910   -10.8550    -2.3610  C.ar    1  <O>11       0.0127
  27 H1        0.2156   -13.2557    -6.7666  H       1  <O>11       0.0377
  28 H2       -1.5131   -12.8712    -6.5860  H       1  <O>11       0.0377
  29 H3       -0.8085   -14.4165    -1.7439  H       1  <O>11       0.1921
  30 H4        1.8757   -12.0122    -5.5360  H       1  <O>11       0.0629
  31 H5       -0.8075   -18.4914    -4.1042  H       1  <O>11       0.0625
  32 H6       -0.8219   -19.1061    -6.4448  H       1  <O>11       0.0618
  33 H7       -0.7875   -17.3852    -8.1512  H       1  <O>11       0.0618
  34 H8       -0.7322   -15.0497    -7.5145  H       1  <O>11       0.0624
  35 H9       -2.2138   -11.0911    -5.1078  H       1  <O>11       0.0621
  36 H10      -1.6184    -8.9973    -4.0287  H       1  <O>11       0.0646
  37 H11       5.4013    -9.3817    -3.7859  H       1  <O>11       0.0814
  38 H12       5.9543   -10.2918    -1.3519  H       1  <O>11       0.0633
  39 H13       3.7507   -11.4696    -0.4885  H       1  <O>11       0.0633
  40 H14       1.9165   -11.1947    -2.3509  H       1  <O>11       0.0814
@<TRIPOS>BOND
     1     1     2    2
     2     2     3    1
     3     3     4   ar
     4     4     5   ar
     5     5     6    1
     6     6     7    1
     7     7     8   ar
     8     8     9   ar
     9     9    10   ar
    10    10    11    2
    11    10    12   ar
    12    12    13   ar
    13    13    14   ar
    14    14    15   ar
    15    15    16   ar
    16    16    17   ar
    17     7    17   ar
    18    12    17   ar
    19     5    18   ar
    20    18    19   ar
    21    19    20   ar
    22     3    20   ar
    23    20    21    1
    24     2    22   am
    25    22    23   ar
    26    23    24   ar
    27    24    25   ar
    28    25    26   ar
    29    22    26   ar
    30     6    27    1
    31     6    28    1
    32     9    29    1
    33     4    30    1
    34    13    31    1
    35    14    32    1
    36    15    33    1
    37    16    34    1
    38    18    35    1
    39    19    36    1
    40    23    37    1
    41    24    38    1
    42    25    39    1
    43    26    40    1
@<TRIPOS>MOLECULE
mol64_1_3
 40 43 0 0 0
SMALL
USER_CHARGES
****
VDW energy = -25.60
@<TRIPOS>ATOM
   1 O1        3.4420    -9.1855    -5.2979  O.2     1  <O>11      -0.2666
   2 C1        2.8552    -9.8129    -4.4288  C.2     1  <O>11       0.2652
   3 C2        1.4620   -10.1610    -4.6040  C.ar    1  <O>11       0.0752
   4 C3        1.1317   -11.3710    -5.2192  C.ar    1  <O>11      -0.0431
   5 C4       -0.2136   -11.7087    -5.4033  C.ar    1  <O>11      -0.0406
   6 C5       -0.5665   -12.9836    -6.0575  C.3     1  <O>11       0.0171
   7 C6       -0.6958   -14.0488    -5.0299  C.ar    1  <O>11       0.0736
   8 N1       -0.7592   -13.7062    -3.6745  N.ar    1  <O>11      -0.1750
   9 N2       -0.7721   -14.6659    -2.7214  N.ar    1  <O>11      -0.2425
  10 C7       -0.7359   -15.9669    -3.0969  C.ar    1  <O>11       0.2725
  11 O2       -0.6531   -16.9122    -2.0569  O.2     1  <O>11      -0.2658
  12 C8       -0.7754   -16.3954    -4.4317  C.ar    1  <O>11       0.0496
  13 C9       -0.7964   -17.7533    -4.8254  C.ar    1  <O>11      -0.0487
  14 C10      -0.8024   -18.1104    -6.1740  C.ar    1  <O>11      -0.0610
  15 C11      -0.7820   -17.1234    -7.1529  C.ar    1  <O>11      -0.0611
  16 C12      -0.7542   -15.7776    -6.7832  C.ar    1  <O>11      -0.0521
  17 C13      -0.7557   -15.3970    -5.4210  C.ar    1  <O>11       0.0106
  18 C14      -1.2215   -10.8431    -4.9705  C.ar    1  <O>11      -0.0555
  19 C15      -0.8757    -9.6378    -4.3497  C.ar    1  <O>11      -0.0254
  20 C16       0.4633    -9.2929    -4.1603  C.ar    1  <O>11       0.1357
  21 F1        0.8028    -8.1157    -3.5453  F       1  <O>11      -0.2047
  22 N3        3.5160   -10.1860    -3.2900  N.ar    1  <O>11      -0.2903
  23 C17       2.8907   -10.8560    -2.3608  C.ar    1  <O>11       0.0127
  24 C18       3.8914   -11.0888    -1.4179  C.ar    1  <O>11      -0.0437
  25 C19       5.0635   -10.4511    -1.9137  C.ar    1  <O>11      -0.0437
  26 C20       4.7722    -9.8730    -3.1308  C.ar    1  <O>11       0.0127
  27 H1        0.2156   -13.2557    -6.7666  H       1  <O>11       0.0377
  28 H2       -1.5131   -12.8712    -6.5860  H       1  <O>11       0.0377
  29 H3       -0.8085   -14.4165    -1.7439  H       1  <O>11       0.1921
  30 H4        1.8757   -12.0122    -5.5360  H       1  <O>11       0.0629
  31 H5       -0.8075   -18.4914    -4.1042  H       1  <O>11       0.0625
  32 H6       -0.8219   -19.1061    -6.4448  H       1  <O>11       0.0618
  33 H7       -0.7875   -17.3852    -8.1512  H       1  <O>11       0.0618
  34 H8       -0.7322   -15.0497    -7.5145  H       1  <O>11       0.0624
  35 H9       -2.2138   -11.0911    -5.1078  H       1  <O>11       0.0621
  36 H10      -1.6184    -8.9973    -4.0287  H       1  <O>11       0.0646
  37 H11       1.8998   -11.1429    -2.3311  H       1  <O>11       0.0814
  38 H12       3.8004   -11.6179    -0.5365  H       1  <O>11       0.0633
  39 H13       5.9800   -10.4257    -1.4401  H       1  <O>11       0.0633
  40 H14       5.3896    -9.3314    -3.7558  H       1  <O>11       0.0814
@<TRIPOS>BOND
     1     1     2    2
     2     2     3    1
     3     3     4   ar
     4     4     5   ar
     5     5     6    1
     6     6     7    1
     7     7     8   ar
     8     8     9   ar
     9     9    10   ar
    10    10    11    2
    11    10    12   ar
    12    12    13   ar
    13    13    14   ar
    14    14    15   ar
    15    15    16   ar
    16    16    17   ar
    17     7    17   ar
    18    12    17   ar
    19     5    18   ar
    20    18    19   ar
    21    19    20   ar
    22     3    20   ar
    23    20    21    1
    24     2    22   am
    25    22    23   ar
    26    23    24   ar
    27    24    25   ar
    28    25    26   ar
    29    22    26   ar
    30     6    27    1
    31     6    28    1
    32     9    29    1
    33     4    30    1
    34    13    31    1
    35    14    32    1
    36    15    33    1
    37    16    34    1
    38    18    35    1
    39    19    36    1
    40    23    37    1
    41    24    38    1
    42    25    39    1
    43    26    40    1
@<TRIPOS>MOLECULE
mol64_1_4
 40 43 0 0 0
SMALL
USER_CHARGES
****
VDW energy = -25.60
@<TRIPOS>ATOM
   1 O1        3.4420    -9.1855    -5.2979  O.2     1  <O>11      -0.2666
   2 C1        2.8552    -9.8129    -4.4288  C.2     1  <O>11       0.2652
   3 C2        1.4620   -10.1610    -4.6040  C.ar    1  <O>11       0.0752
   4 C3        1.1317   -11.3710    -5.2192  C.ar    1  <O>11      -0.0431
   5 C4       -0.2136   -11.7087    -5.4033  C.ar    1  <O>11      -0.0406
   6 C5       -0.5665   -12.9836    -6.0575  C.3     1  <O>11       0.0171
   7 C6       -0.6742   -12.7747    -7.5244  C.ar    1  <O>11       0.0736
   8 N1       -0.1892   -11.5940    -8.0981  N.ar    1  <O>11      -0.1750
   9 N2       -0.3722   -11.3421    -9.4144  N.ar    1  <O>11      -0.2425
  10 C7       -1.0214   -12.2557   -10.1753  C.ar    1  <O>11       0.2725
  11 O2       -1.2648   -11.8906   -11.5131  O.2     1  <O>11      -0.2658
  12 C8       -1.4464   -13.5054    -9.7017  C.ar    1  <O>11       0.0496
  13 C9       -2.0723   -14.4846   -10.5073  C.ar    1  <O>11      -0.0487
  14 C10      -2.5004   -15.6959    -9.9635  C.ar    1  <O>11      -0.0610
  15 C11      -2.3182   -15.9510    -8.6090  C.ar    1  <O>11      -0.0611
  16 C12      -1.7085   -14.9934    -7.7967  C.ar    1  <O>11      -0.0521
  17 C13      -1.2611   -13.7632    -8.3324  C.ar    1  <O>11       0.0106
  18 C14      -1.2215   -10.8431    -4.9705  C.ar    1  <O>11      -0.0555
  19 C15      -0.8757    -9.6378    -4.3497  C.ar    1  <O>11      -0.0254
  20 C16       0.4633    -9.2929    -4.1603  C.ar    1  <O>11       0.1357
  21 F1        0.8028    -8.1157    -3.5453  F       1  <O>11      -0.2047
  22 N3        3.5160   -10.1860    -3.2900  N.ar    1  <O>11      -0.2903
  23 C17       2.8907   -10.8560    -2.3608  C.ar    1  <O>11       0.0127
  24 C18       3.8914   -11.0888    -1.4179  C.ar    1  <O>11      -0.0437
  25 C19       5.0635   -10.4511    -1.9137  C.ar    1  <O>11      -0.0437
  26 C20       4.7722    -9.8730    -3.1308  C.ar    1  <O>11       0.0127
  27 H1       -1.5219   -13.3377    -5.6697  H       1  <O>11       0.0377
  28 H2        0.2062   -13.7241    -5.8513  H       1  <O>11       0.0377
  29 H3       -0.0297   -10.4856    -9.8245  H       1  <O>11       0.1921
  30 H4        1.8757   -12.0122    -5.5360  H       1  <O>11       0.0629
  31 H5       -2.2145   -14.3004   -11.5127  H       1  <O>11       0.0625
  32 H6       -2.9519   -16.4018   -10.5659  H       1  <O>11       0.0618
  33 H7       -2.6332   -16.8468    -8.2047  H       1  <O>11       0.0618
  34 H8       -1.5823   -15.1858    -6.7907  H       1  <O>11       0.0624
  35 H9       -2.2138   -11.0911    -5.1078  H       1  <O>11       0.0621
  36 H10      -1.6184    -8.9973    -4.0287  H       1  <O>11       0.0646
  37 H11       1.8998   -11.1429    -2.3311  H       1  <O>11       0.0814
  38 H12       3.8004   -11.6179    -0.5365  H       1  <O>11       0.0633
  39 H13       5.9800   -10.4257    -1.4401  H       1  <O>11       0.0633
  40 H14       5.3896    -9.3314    -3.7558  H       1  <O>11       0.0814
@<TRIPOS>BOND
     1     1     2    2
     2     2     3    1
     3     3     4   ar
     4     4     5   ar
     5     5     6    1
     6     6     7    1
     7     7     8   ar
     8     8     9   ar
     9     9    10   ar
    10    10    11    2
    11    10    12   ar
    12    12    13   ar
    13    13    14   ar
    14    14    15   ar
    15    15    16   ar
    16    16    17   ar
    17     7    17   ar
    18    12    17   ar
    19     5    18   ar
    20    18    19   ar
    21    19    20   ar
    22     3    20   ar
    23    20    21    1
    24     2    22   am
    25    22    23   ar
    26    23    24   ar
    27    24    25   ar
    28    25    26   ar
    29    22    26   ar
    30     6    27    1
    31     6    28    1
    32     9    29    1
    33     4    30    1
    34    13    31    1
    35    14    32    1
    36    15    33    1
    37    16    34    1
    38    18    35    1
    39    19    36    1
    40    23    37    1
    41    24    38    1
    42    25    39    1
    43    26    40    1
@<TRIPOS>MOLECULE
mol64_1_5
 40 43 0 0 0
SMALL
USER_CHARGES
****
VDW energy = -25.44
@<TRIPOS>ATOM
   1 O1        3.4420    -9.1855    -5.2979  O.2     1  <O>11      -0.2666
   2 C1        2.8552    -9.8129    -4.4288  C.2     1  <O>11       0.2652
   3 C2        1.4620   -10.1610    -4.6040  C.ar    1  <O>11       0.0752
   4 C3        0.4753    -9.2800    -4.1544  C.ar    1  <O>11      -0.0431
   5 C4       -0.8742    -9.6157    -4.3092  C.ar    1  <O>11      -0.0406
   6 C5       -1.9193    -8.6901    -3.8308  C.3     1  <O>11       0.0171
   7 C6       -2.2568    -9.0102    -2.4199  C.ar    1  <O>11       0.0736
   8 N1       -1.4287    -9.8629    -1.6811  N.ar    1  <O>11      -0.1750
   9 N2       -1.7755   -10.2471    -0.4313  N.ar    1  <O>11      -0.2425
  10 C7       -2.9313    -9.7845     0.1026  C.ar    1  <O>11       0.2725
  11 O2       -3.2822   -10.2981     1.3656  O.2     1  <O>11      -0.2658
  12 C8       -3.7634    -8.8489    -0.5292  C.ar    1  <O>11       0.0496
  13 C9       -4.9401    -8.3201     0.0498  C.ar    1  <O>11      -0.0487
  14 C10      -5.7406    -7.4158    -0.6486  C.ar    1  <O>11      -0.0610
  15 C11      -5.3871    -7.0268    -1.9357  C.ar    1  <O>11      -0.0611
  16 C12      -4.2326    -7.5436    -2.5261  C.ar    1  <O>11      -0.0521
  17 C13      -3.4050    -8.4553    -1.8301  C.ar    1  <O>11       0.0106
  18 C14      -1.2337   -10.8229    -4.9139  C.ar    1  <O>11      -0.0555
  19 C15      -0.2346   -11.6922    -5.3656  C.ar    1  <O>11      -0.0254
  20 C16       1.1140   -11.3656    -5.2170  C.ar    1  <O>11       0.1357
  21 F1        2.0933   -12.2132    -5.6662  F       1  <O>11      -0.2047
  22 N3        3.5160   -10.1860    -3.2900  N.ar    1  <O>11      -0.2903
  23 C17       4.7730    -9.8730    -3.1310  C.ar    1  <O>11       0.0127
  24 C18       5.0580   -10.3660    -1.8580  C.ar    1  <O>11      -0.0437
  25 C19       3.8660   -10.9920    -1.3960  C.ar    1  <O>11      -0.0437
  26 C20       2.8910   -10.8550    -2.3610  C.ar    1  <O>11       0.0127
  27 H1       -2.8097    -8.7972    -4.4507  H       1  <O>11       0.0377
  28 H2       -1.5538    -7.6652    -3.8939  H       1  <O>11       0.0377
  29 H3       -1.1813   -10.8696     0.0965  H       1  <O>11       0.1921
  30 H4        0.7403    -8.3868    -3.7107  H       1  <O>11       0.0629
  31 H5       -5.2108    -8.6074     1.0033  H       1  <O>11       0.0625
  32 H6       -6.5943    -7.0360    -0.2103  H       1  <O>11       0.0618
  33 H7       -5.9773    -6.3571    -2.4538  H       1  <O>11       0.0618
  34 H8       -3.9793    -7.2563    -3.4844  H       1  <O>11       0.0624
  35 H9       -2.2289   -11.0716    -5.0266  H       1  <O>11       0.0621
  36 H10      -0.4978   -12.5841    -5.8131  H       1  <O>11       0.0646
  37 H11       5.4013    -9.3817    -3.7859  H       1  <O>11       0.0814
  38 H12       5.9543   -10.2918    -1.3519  H       1  <O>11       0.0633
  39 H13       3.7507   -11.4696    -0.4885  H       1  <O>11       0.0633
  40 H14       1.9165   -11.1947    -2.3509  H       1  <O>11       0.0814
@<TRIPOS>BOND
     1     1     2    2
     2     2     3    1
     3     3     4   ar
     4     4     5   ar
     5     5     6    1
     6     6     7    1
     7     7     8   ar
     8     8     9   ar
     9     9    10   ar
    10    10    11    2
    11    10    12   ar
    12    12    13   ar
    13    13    14   ar
    14    14    15   ar
    15    15    16   ar
    16    16    17   ar
    17     7    17   ar
    18    12    17   ar
    19     5    18   ar
    20    18    19   ar
    21    19    20   ar
    22     3    20   ar
    23    20    21    1
    24     2    22   am
    25    22    23   ar
    26    23    24   ar
    27    24    25   ar
    28    25    26   ar
    29    22    26   ar
    30     6    27    1
    31     6    28    1
    32     9    29    1
    33     4    30    1
    34    13    31    1
    35    14    32    1
    36    15    33    1
    37    16    34    1
    38    18    35    1
    39    19    36    1
    40    23    37    1
    41    24    38    1
    42    25    39    1
    43    26    40    1
@<TRIPOS>MOLECULE
mol64_1_6
 40 43 0 0 0
SMALL
USER_CHARGES
****
VDW energy = -25.42
@<TRIPOS>ATOM
   1 O1        3.4420    -9.1855    -5.2979  O.2     1  <O>11      -0.2666
   2 C1        2.8552    -9.8129    -4.4288  C.2     1  <O>11       0.2652
   3 C2        1.4620   -10.1610    -4.6040  C.ar    1  <O>11       0.0752
   4 C3        0.4753    -9.2800    -4.1544  C.ar    1  <O>11      -0.0431
   5 C4       -0.8742    -9.6157    -4.3092  C.ar    1  <O>11      -0.0406
   6 C5       -1.9193    -8.6901    -3.8308  C.3     1  <O>11       0.0171
   7 C6       -2.2568    -9.0102    -2.4199  C.ar    1  <O>11       0.0736
   8 N1       -1.4287    -9.8629    -1.6811  N.ar    1  <O>11      -0.1750
   9 N2       -1.7755   -10.2471    -0.4313  N.ar    1  <O>11      -0.2425
  10 C7       -2.9313    -9.7845     0.1026  C.ar    1  <O>11       0.2725
  11 O2       -3.2822   -10.2981     1.3656  O.2     1  <O>11      -0.2658
  12 C8       -3.7634    -8.8489    -0.5292  C.ar    1  <O>11       0.0496
  13 C9       -4.9401    -8.3201     0.0498  C.ar    1  <O>11      -0.0487
  14 C10      -5.7406    -7.4158    -0.6486  C.ar    1  <O>11      -0.0610
  15 C11      -5.3871    -7.0268    -1.9357  C.ar    1  <O>11      -0.0611
  16 C12      -4.2326    -7.5436    -2.5261  C.ar    1  <O>11      -0.0521
  17 C13      -3.4050    -8.4553    -1.8301  C.ar    1  <O>11       0.0106
  18 C14      -1.2337   -10.8229    -4.9139  C.ar    1  <O>11      -0.0555
  19 C15      -0.2346   -11.6922    -5.3656  C.ar    1  <O>11      -0.0254
  20 C16       1.1140   -11.3656    -5.2170  C.ar    1  <O>11       0.1357
  21 F1        2.0933   -12.2132    -5.6662  F       1  <O>11      -0.2047
  22 N3        3.5160   -10.1860    -3.2900  N.ar    1  <O>11      -0.2903
  23 C17       2.8907   -10.8560    -2.3608  C.ar    1  <O>11       0.0127
  24 C18       3.8914   -11.0888    -1.4179  C.ar    1  <O>11      -0.0437
  25 C19       5.0635   -10.4511    -1.9137  C.ar    1  <O>11      -0.0437
  26 C20       4.7722    -9.8730    -3.1308  C.ar    1  <O>11       0.0127
  27 H1       -2.8097    -8.7972    -4.4507  H       1  <O>11       0.0377
  28 H2       -1.5538    -7.6652    -3.8939  H       1  <O>11       0.0377
  29 H3       -1.1813   -10.8696     0.0965  H       1  <O>11       0.1921
  30 H4        0.7403    -8.3868    -3.7107  H       1  <O>11       0.0629
  31 H5       -5.2108    -8.6074     1.0033  H       1  <O>11       0.0625
  32 H6       -6.5943    -7.0360    -0.2103  H       1  <O>11       0.0618
  33 H7       -5.9773    -6.3571    -2.4538  H       1  <O>11       0.0618
  34 H8       -3.9793    -7.2563    -3.4844  H       1  <O>11       0.0624
  35 H9       -2.2289   -11.0716    -5.0266  H       1  <O>11       0.0621
  36 H10      -0.4978   -12.5841    -5.8131  H       1  <O>11       0.0646
  37 H11       1.8998   -11.1429    -2.3311  H       1  <O>11       0.0814
  38 H12       3.8004   -11.6179    -0.5365  H       1  <O>11       0.0633
  39 H13       5.9800   -10.4257    -1.4401  H       1  <O>11       0.0633
  40 H14       5.3896    -9.3314    -3.7558  H       1  <O>11       0.0814
@<TRIPOS>BOND
     1     1     2    2
     2     2     3    1
     3     3     4   ar
     4     4     5   ar
     5     5     6    1
     6     6     7    1
     7     7     8   ar
     8     8     9   ar
     9     9    10   ar
    10    10    11    2
    11    10    12   ar
    12    12    13   ar
    13    13    14   ar
    14    14    15   ar
    15    15    16   ar
    16    16    17   ar
    17     7    17   ar
    18    12    17   ar
    19     5    18   ar
    20    18    19   ar
    21    19    20   ar
    22     3    20   ar
    23    20    21    1
    24     2    22   am
    25    22    23   ar
    26    23    24   ar
    27    24    25   ar
    28    25    26   ar
    29    22    26   ar
    30     6    27    1
    31     6    28    1
    32     9    29    1
    33     4    30    1
    34    13    31    1
    35    14    32    1
    36    15    33    1
    37    16    34    1
    38    18    35    1
    39    19    36    1
    40    23    37    1
    41    24    38    1
    42    25    39    1
    43    26    40    1
@<TRIPOS>MOLECULE
mol64_1_7
 40 43 0 0 0
SMALL
USER_CHARGES
****
VDW energy = -25.30
@<TRIPOS>ATOM
   1 O1        3.4420    -9.1855    -5.2979  O.2     1  <O>11      -0.2666
   2 C1        2.8552    -9.8129    -4.4288  C.2     1  <O>11       0.2652
   3 C2        1.4620   -10.1610    -4.6040  C.ar    1  <O>11       0.0752
   4 C3        1.1317   -11.3710    -5.2192  C.ar    1  <O>11      -0.0431
   5 C4       -0.2136   -11.7087    -5.4033  C.ar    1  <O>11      -0.0406
   6 C5       -0.5665   -12.9836    -6.0575  C.3     1  <O>11       0.0171
   7 C6       -0.0144   -14.1149    -5.2685  C.ar    1  <O>11       0.0736
   8 N1        1.2703   -14.5963    -5.5447  N.ar    1  <O>11      -0.1750
   9 N2        1.7475   -15.6902    -4.9080  N.ar    1  <O>11      -0.2425
  10 C7        0.9690   -16.3080    -3.9876  C.ar    1  <O>11       0.2725
  11 O2        1.4844   -17.4951    -3.4332  O.2     1  <O>11      -0.2658
  12 C8       -0.2851   -15.8309    -3.5795  C.ar    1  <O>11       0.0496
  13 C9       -1.0746   -16.4408    -2.5774  C.ar    1  <O>11      -0.0487
  14 C10      -2.3297   -15.9318    -2.2427  C.ar    1  <O>11      -0.0610
  15 C11      -2.8224   -14.8116    -2.9026  C.ar    1  <O>11      -0.0611
  16 C12      -2.0600   -14.2002    -3.8993  C.ar    1  <O>11      -0.0521
  17 C13      -0.7822   -14.6978    -4.2463  C.ar    1  <O>11       0.0106
  18 C14      -1.2215   -10.8431    -4.9705  C.ar    1  <O>11      -0.0555
  19 C15      -0.8757    -9.6378    -4.3497  C.ar    1  <O>11      -0.0254
  20 C16       0.4633    -9.2929    -4.1603  C.ar    1  <O>11       0.1357
  21 F1        0.8028    -8.1157    -3.5453  F       1  <O>11      -0.2047
  22 N3        3.5160   -10.1860    -3.2900  N.ar    1  <O>11      -0.2903
  23 C17       4.7730    -9.8730    -3.1310  C.ar    1  <O>11       0.0127
  24 C18       5.0580   -10.3660    -1.8580  C.ar    1  <O>11      -0.0437
  25 C19       3.8660   -10.9920    -1.3960  C.ar    1  <O>11      -0.0437
  26 C20       2.8910   -10.8550    -2.3610  C.ar    1  <O>11       0.0127
  27 H1       -0.1468   -13.0031    -7.0635  H       1  <O>11       0.0377
  28 H2       -1.6511   -13.0750    -6.1145  H       1  <O>11       0.0377
  29 H3        2.6710   -16.0413    -5.1154  H       1  <O>11       0.1921
  30 H4        1.8757   -12.0122    -5.5360  H       1  <O>11       0.0629
  31 H5       -0.7171   -17.2750    -2.0863  H       1  <O>11       0.0625
  32 H6       -2.8919   -16.3863    -1.5062  H       1  <O>11       0.0618
  33 H7       -3.7501   -14.4327    -2.6559  H       1  <O>11       0.0618
  34 H8       -2.4341   -13.3732    -4.3903  H       1  <O>11       0.0624
  35 H9       -2.2138   -11.0911    -5.1078  H       1  <O>11       0.0621
  36 H10      -1.6184    -8.9973    -4.0287  H       1  <O>11       0.0646
  37 H11       5.4013    -9.3817    -3.7859  H       1  <O>11       0.0814
  38 H12       5.9543   -10.2918    -1.3519  H       1  <O>11       0.0633
  39 H13       3.7507   -11.4696    -0.4885  H       1  <O>11       0.0633
  40 H14       1.9165   -11.1947    -2.3509  H       1  <O>11       0.0814
@<TRIPOS>BOND
     1     1     2    2
     2     2     3    1
     3     3     4   ar
     4     4     5   ar
     5     5     6    1
     6     6     7    1
     7     7     8   ar
     8     8     9   ar
     9     9    10   ar
    10    10    11    2
    11    10    12   ar
    12    12    13   ar
    13    13    14   ar
    14    14    15   ar
    15    15    16   ar
    16    16    17   ar
    17     7    17   ar
    18    12    17   ar
    19     5    18   ar
    20    18    19   ar
    21    19    20   ar
    22     3    20   ar
    23    20    21    1
    24     2    22   am
    25    22    23   ar
    26    23    24   ar
    27    24    25   ar
    28    25    26   ar
    29    22    26   ar
    30     6    27    1
    31     6    28    1
    32     9    29    1
    33     4    30    1
    34    13    31    1
    35    14    32    1
    36    15    33    1
    37    16    34    1
    38    18    35    1
    39    19    36    1
    40    23    37    1
    41    24    38    1
    42    25    39    1
    43    26    40    1
@<TRIPOS>MOLECULE
mol64_1_8
 40 43 0 0 0
SMALL
USER_CHARGES
****
VDW energy = -25.28
@<TRIPOS>ATOM
   1 O1        3.4420    -9.1855    -5.2979  O.2     1  <O>11      -0.2666
   2 C1        2.8552    -9.8129    -4.4288  C.2     1  <O>11       0.2652
   3 C2        1.4620   -10.1610    -4.6040  C.ar    1  <O>11       0.0752
   4 C3        1.1317   -11.3710    -5.2192  C.ar    1  <O>11      -0.0431
   5 C4       -0.2136   -11.7087    -5.4033  C.ar    1  <O>11      -0.0406
   6 C5       -0.5665   -12.9836    -6.0575  C.3     1  <O>11       0.0171
   7 C6       -0.0144   -14.1149    -5.2685  C.ar    1  <O>11       0.0736
   8 N1        1.2703   -14.5963    -5.5447  N.ar    1  <O>11      -0.1750
   9 N2        1.7475   -15.6902    -4.9080  N.ar    1  <O>11      -0.2425
  10 C7        0.9690   -16.3080    -3.9876  C.ar    1  <O>11       0.2725
  11 O2        1.4844   -17.4951    -3.4332  O.2     1  <O>11      -0.2658
  12 C8       -0.2851   -15.8309    -3.5795  C.ar    1  <O>11       0.0496
  13 C9       -1.0746   -16.4408    -2.5774  C.ar    1  <O>11      -0.0487
  14 C10      -2.3297   -15.9318    -2.2427  C.ar    1  <O>11      -0.0610
  15 C11      -2.8224   -14.8116    -2.9026  C.ar    1  <O>11      -0.0611
  16 C12      -2.0600   -14.2002    -3.8993  C.ar    1  <O>11      -0.0521
  17 C13      -0.7822   -14.6978    -4.2463  C.ar    1  <O>11       0.0106
  18 C14      -1.2215   -10.8431    -4.9705  C.ar    1  <O>11      -0.0555
  19 C15      -0.8757    -9.6378    -4.3497  C.ar    1  <O>11      -0.0254
  20 C16       0.4633    -9.2929    -4.1603  C.ar    1  <O>11       0.1357
  21 F1        0.8028    -8.1157    -3.5453  F       1  <O>11      -0.2047
  22 N3        3.5160   -10.1860    -3.2900  N.ar    1  <O>11      -0.2903
  23 C17       2.8907   -10.8560    -2.3608  C.ar    1  <O>11       0.0127
  24 C18       3.8914   -11.0888    -1.4179  C.ar    1  <O>11      -0.0437
  25 C19       5.0635   -10.4511    -1.9137  C.ar    1  <O>11      -0.0437
  26 C20       4.7722    -9.8730    -3.1308  C.ar    1  <O>11       0.0127
  27 H1       -0.1468   -13.0031    -7.0635  H       1  <O>11       0.0377
  28 H2       -1.6511   -13.0750    -6.1145  H       1  <O>11       0.0377
  29 H3        2.6710   -16.0413    -5.1154  H       1  <O>11       0.1921
  30 H4        1.8757   -12.0122    -5.5360  H       1  <O>11       0.0629
  31 H5       -0.7171   -17.2750    -2.0863  H       1  <O>11       0.0625
  32 H6       -2.8919   -16.3863    -1.5062  H       1  <O>11       0.0618
  33 H7       -3.7501   -14.4327    -2.6559  H       1  <O>11       0.0618
  34 H8       -2.4341   -13.3732    -4.3903  H       1  <O>11       0.0624
  35 H9       -2.2138   -11.0911    -5.1078  H       1  <O>11       0.0621
  36 H10      -1.6184    -8.9973    -4.0287  H       1  <O>11       0.0646
  37 H11       1.8998   -11.1429    -2.3311  H       1  <O>11       0.0814
  38 H12       3.8004   -11.6179    -0.5365  H       1  <O>11       0.0633
  39 H13       5.9800   -10.4257    -1.4401  H       1  <O>11       0.0633
  40 H14       5.3896    -9.3314    -3.7558  H       1  <O>11       0.0814
@<TRIPOS>BOND
     1     1     2    2
     2     2     3    1
     3     3     4   ar
     4     4     5   ar
     5     5     6    1
     6     6     7    1
     7     7     8   ar
     8     8     9   ar
     9     9    10   ar
    10    10    11    2
    11    10    12   ar
    12    12    13   ar
    13    13    14   ar
    14    14    15   ar
    15    15    16   ar
    16    16    17   ar
    17     7    17   ar
    18    12    17   ar
    19     5    18   ar
    20    18    19   ar
    21    19    20   ar
    22     3    20   ar
    23    20    21    1
    24     2    22   am
    25    22    23   ar
    26    23    24   ar
    27    24    25   ar
    28    25    26   ar
    29    22    26   ar
    30     6    27    1
    31     6    28    1
    32     9    29    1
    33     4    30    1
    34    13    31    1
    35    14    32    1
    36    15    33    1
    37    16    34    1
    38    18    35    1
    39    19    36    1
    40    23    37    1
    41    24    38    1
    42    25    39    1
    43    26    40    1
@<TRIPOS>MOLECULE
mol64_1_9
 40 43 0 0 0
SMALL
USER_CHARGES
****
VDW energy = -20.91
@<TRIPOS>ATOM
   1 O1        3.4420    -9.1855    -5.2979  O.2     1  <O>11      -0.2666
   2 C1        2.8552    -9.8129    -4.4288  C.2     1  <O>11       0.2652
   3 C2        1.4620   -10.1610    -4.6040  C.ar    1  <O>11       0.0752
   4 C3        1.1317   -11.3710    -5.2192  C.ar    1  <O>11      -0.0431
   5 C4       -0.2136   -11.7087    -5.4033  C.ar    1  <O>11      -0.0406
   6 C5       -0.5665   -12.9836    -6.0575  C.3     1  <O>11       0.0171
   7 C6       -0.6742   -12.7747    -7.5244  C.ar    1  <O>11       0.0736
   8 N1       -1.9026   -12.4126    -8.0889  N.ar    1  <O>11      -0.1750
   9 N2       -2.0432   -12.3200    -9.4310  N.ar    1  <O>11      -0.2425
  10 C7       -0.9736   -12.5704   -10.2236  C.ar    1  <O>11       0.2725
  11 O2       -1.2103   -12.5527   -11.6114  O.2     1  <O>11      -0.2658
  12 C8        0.3138   -12.8376    -9.7358  C.ar    1  <O>11       0.0496
  13 C9        1.4445   -13.0418   -10.5601  C.ar    1  <O>11      -0.0487
  14 C10       2.6917   -13.3366   -10.0087  C.ar    1  <O>11      -0.0610
  15 C11       2.8338   -13.4384    -8.6294  C.ar    1  <O>11      -0.0611
  16 C12       1.7273   -13.2468    -7.8003  C.ar    1  <O>11      -0.0521
  17 C13       0.4571   -12.9395    -8.3413  C.ar    1  <O>11       0.0106
  18 C14      -1.2215   -10.8431    -4.9705  C.ar    1  <O>11      -0.0555
  19 C15      -0.8757    -9.6378    -4.3497  C.ar    1  <O>11      -0.0254
  20 C16       0.4633    -9.2929    -4.1603  C.ar    1  <O>11       0.1357
  21 F1        0.8028    -8.1157    -3.5453  F       1  <O>11      -0.2047
  22 N3        3.5160   -10.1860    -3.2900  N.ar    1  <O>11      -0.2903
  23 C17       4.7730    -9.8730    -3.1310  C.ar    1  <O>11       0.0127
  24 C18       5.0580   -10.3660    -1.8580  C.ar    1  <O>11      -0.0437
  25 C19       3.8660   -10.9920    -1.3960  C.ar    1  <O>11      -0.0437
  26 C20       2.8910   -10.8550    -2.3610  C.ar    1  <O>11       0.0127
  27 H1       -1.5219   -13.3377    -5.6697  H       1  <O>11       0.0377
  28 H2        0.2062   -13.7241    -5.8513  H       1  <O>11       0.0377
  29 H3       -2.9325   -12.0677    -9.8367  H       1  <O>11       0.1921
  30 H4        1.8757   -12.0122    -5.5360  H       1  <O>11       0.0629
  31 H5        1.3457   -12.9718   -11.5849  H       1  <O>11       0.0625
  32 H6        3.5079   -13.4790   -10.6240  H       1  <O>11       0.0618
  33 H7        3.7556   -13.6554    -8.2193  H       1  <O>11       0.0618
  34 H8        1.8376   -13.3305    -6.7776  H       1  <O>11       0.0624
  35 H9       -2.2138   -11.0911    -5.1078  H       1  <O>11       0.0621
  36 H10      -1.6184    -8.9973    -4.0287  H       1  <O>11       0.0646
  37 H11       5.4013    -9.3817    -3.7859  H       1  <O>11       0.0814
  38 H12       5.9543   -10.2918    -1.3519  H       1  <O>11       0.0633
  39 H13       3.7507   -11.4696    -0.4885  H       1  <O>11       0.0633
  40 H14       1.9165   -11.1947    -2.3509  H       1  <O>11       0.0814
@<TRIPOS>BOND
     1     1     2    2
     2     2     3    1
     3     3     4   ar
     4     4     5   ar
     5     5     6    1
     6     6     7    1
     7     7     8   ar
     8     8     9   ar
     9     9    10   ar
    10    10    11    2
    11    10    12   ar
    12    12    13   ar
    13    13    14   ar
    14    14    15   ar
    15    15    16   ar
    16    16    17   ar
    17     7    17   ar
    18    12    17   ar
    19     5    18   ar
    20    18    19   ar
    21    19    20   ar
    22     3    20   ar
    23    20    21    1
    24     2    22   am
    25    22    23   ar
    26    23    24   ar
    27    24    25   ar
    28    25    26   ar
    29    22    26   ar
    30     6    27    1
    31     6    28    1
    32     9    29    1
    33     4    30    1
    34    13    31    1
    35    14    32    1
    36    15    33    1
    37    16    34    1
    38    18    35    1
    39    19    36    1
    40    23    37    1
    41    24    38    1
    42    25    39    1
    43    26    40    1
@<TRIPOS>MOLECULE
mol64_1_10
 40 43 0 0 0
SMALL
USER_CHARGES
****
VDW energy = -20.89
@<TRIPOS>ATOM
   1 O1        3.4420    -9.1855    -5.2979  O.2     1  <O>11      -0.2666
   2 C1        2.8552    -9.8129    -4.4288  C.2     1  <O>11       0.2652
   3 C2        1.4620   -10.1610    -4.6040  C.ar    1  <O>11       0.0752
   4 C3        1.1317   -11.3710    -5.2192  C.ar    1  <O>11      -0.0431
   5 C4       -0.2136   -11.7087    -5.4033  C.ar    1  <O>11      -0.0406
   6 C5       -0.5665   -12.9836    -6.0575  C.3     1  <O>11       0.0171
   7 C6       -0.6742   -12.7747    -7.5244  C.ar    1  <O>11       0.0736
   8 N1       -1.9026   -12.4126    -8.0889  N.ar    1  <O>11      -0.1750
   9 N2       -2.0432   -12.3200    -9.4310  N.ar    1  <O>11      -0.2425
  10 C7       -0.9736   -12.5704   -10.2236  C.ar    1  <O>11       0.2725
  11 O2       -1.2103   -12.5527   -11.6114  O.2     1  <O>11      -0.2658
  12 C8        0.3138   -12.8376    -9.7358  C.ar    1  <O>11       0.0496
  13 C9        1.4445   -13.0418   -10.5601  C.ar    1  <O>11      -0.0487
  14 C10       2.6917   -13.3366   -10.0087  C.ar    1  <O>11      -0.0610
  15 C11       2.8338   -13.4384    -8.6294  C.ar    1  <O>11      -0.0611
  16 C12       1.7273   -13.2468    -7.8003  C.ar    1  <O>11      -0.0521
  17 C13       0.4571   -12.9395    -8.3413  C.ar    1  <O>11       0.0106
  18 C14      -1.2215   -10.8431    -4.9705  C.ar    1  <O>11      -0.0555
  19 C15      -0.8757    -9.6378    -4.3497  C.ar    1  <O>11      -0.0254
  20 C16       0.4633    -9.2929    -4.1603  C.ar    1  <O>11       0.1357
  21 F1        0.8028    -8.1157    -3.5453  F       1  <O>11      -0.2047
  22 N3        3.5160   -10.1860    -3.2900  N.ar    1  <O>11      -0.2903
  23 C17       2.8907   -10.8560    -2.3608  C.ar    1  <O>11       0.0127
  24 C18       3.8914   -11.0888    -1.4179  C.ar    1  <O>11      -0.0437
  25 C19       5.0635   -10.4511    -1.9137  C.ar    1  <O>11      -0.0437
  26 C20       4.7722    -9.8730    -3.1308  C.ar    1  <O>11       0.0127
  27 H1       -1.5219   -13.3377    -5.6697  H       1  <O>11       0.0377
  28 H2        0.2062   -13.7241    -5.8513  H       1  <O>11       0.0377
  29 H3       -2.9325   -12.0677    -9.8367  H       1  <O>11       0.1921
  30 H4        1.8757   -12.0122    -5.5360  H       1  <O>11       0.0629
  31 H5        1.3457   -12.9718   -11.5849  H       1  <O>11       0.0625
  32 H6        3.5079   -13.4790   -10.6240  H       1  <O>11       0.0618
  33 H7        3.7556   -13.6554    -8.2193  H       1  <O>11       0.0618
  34 H8        1.8376   -13.3305    -6.7776  H       1  <O>11       0.0624
  35 H9       -2.2138   -11.0911    -5.1078  H       1  <O>11       0.0621
  36 H10      -1.6184    -8.9973    -4.0287  H       1  <O>11       0.0646
  37 H11       1.8998   -11.1429    -2.3311  H       1  <O>11       0.0814
  38 H12       3.8004   -11.6179    -0.5365  H       1  <O>11       0.0633
  39 H13       5.9800   -10.4257    -1.4401  H       1  <O>11       0.0633
  40 H14       5.3896    -9.3314    -3.7558  H       1  <O>11       0.0814
@<TRIPOS>BOND
     1     1     2    2
     2     2     3    1
     3     3     4   ar
     4     4     5   ar
     5     5     6    1
     6     6     7    1
     7     7     8   ar
     8     8     9   ar
     9     9    10   ar
    10    10    11    2
    11    10    12   ar
    12    12    13   ar
    13    13    14   ar
    14    14    15   ar
    15    15    16   ar
    16    16    17   ar
    17     7    17   ar
    18    12    17   ar
    19     5    18   ar
    20    18    19   ar
    21    19    20   ar
    22     3    20   ar
    23    20    21    1
    24     2    22   am
    25    22    23   ar
    26    23    24   ar
    27    24    25   ar
    28    25    26   ar
    29    22    26   ar
    30     6    27    1
    31     6    28    1
    32     9    29    1
    33     4    30    1
    34    13    31    1
    35    14    32    1
    36    15    33    1
    37    16    34    1
    38    18    35    1
    39    19    36    1
    40    23    37    1
    41    24    38    1
    42    25    39    1
    43    26    40    1
@<TRIPOS>MOLECULE
mol64_1_11
 40 43 0 0 0
SMALL
USER_CHARGES
****
VDW energy = -20.73
@<TRIPOS>ATOM
   1 O1        3.4420    -9.1855    -5.2979  O.2     1  <O>11      -0.2666
   2 C1        2.8552    -9.8129    -4.4288  C.2     1  <O>11       0.2652
   3 C2        1.4620   -10.1610    -4.6040  C.ar    1  <O>11       0.0752
   4 C3        1.1317   -11.3710    -5.2192  C.ar    1  <O>11      -0.0431
   5 C4       -0.2136   -11.7087    -5.4033  C.ar    1  <O>11      -0.0406
   6 C5       -0.5665   -12.9836    -6.0575  C.3     1  <O>11       0.0171
   7 C6        0.0042   -13.0116    -7.4288  C.ar    1  <O>11       0.0736
   8 N1        0.9620   -12.0631    -7.8050  N.ar    1  <O>11      -0.1750
   9 N2        1.4149   -12.0092    -9.0784  N.ar    1  <O>11      -0.2425
  10 C7        0.9378   -12.8958    -9.9847  C.ar    1  <O>11       0.2725
  11 O2        1.3750   -12.7245   -11.3119  O.2     1  <O>11      -0.2658
  12 C8        0.0570   -13.9397    -9.6663  C.ar    1  <O>11       0.0496
  13 C9       -0.3974   -14.9018   -10.5976  C.ar    1  <O>11      -0.0487
  14 C10      -1.3007   -15.8960   -10.2207  C.ar    1  <O>11      -0.0610
  15 C11      -1.7709   -15.9464    -8.9133  C.ar    1  <O>11      -0.0611
  16 C12      -1.3387   -15.0008    -7.9818  C.ar    1  <O>11      -0.0521
  17 C13      -0.4174   -13.9907    -8.3442  C.ar    1  <O>11       0.0106
  18 C14      -1.2215   -10.8431    -4.9705  C.ar    1  <O>11      -0.0555
  19 C15      -0.8757    -9.6378    -4.3497  C.ar    1  <O>11      -0.0254
  20 C16       0.4633    -9.2929    -4.1603  C.ar    1  <O>11       0.1357
  21 F1        0.8028    -8.1157    -3.5453  F       1  <O>11      -0.2047
  22 N3        3.5160   -10.1860    -3.2900  N.ar    1  <O>11      -0.2903
  23 C17       4.7730    -9.8730    -3.1310  C.ar    1  <O>11       0.0127
  24 C18       5.0580   -10.3660    -1.8580  C.ar    1  <O>11      -0.0437
  25 C19       3.8660   -10.9920    -1.3960  C.ar    1  <O>11      -0.0437
  26 C20       2.8910   -10.8550    -2.3610  C.ar    1  <O>11       0.0127
  27 H1       -1.6515   -13.0741    -6.1135  H       1  <O>11       0.0377
  28 H2       -0.1622   -13.8136    -5.4782  H       1  <O>11       0.0377
  29 H3        2.0990   -11.3182    -9.3500  H       1  <O>11       0.1921
  30 H4        1.8757   -12.0122    -5.5360  H       1  <O>11       0.0629
  31 H5       -0.0557   -14.8681   -11.5708  H       1  <O>11       0.0625
  32 H6       -1.6195   -16.5932   -10.9115  H       1  <O>11       0.0618
  33 H7       -2.4383   -16.6815    -8.6319  H       1  <O>11       0.0618
  34 H8       -1.6967   -15.0392    -7.0146  H       1  <O>11       0.0624
  35 H9       -2.2138   -11.0911    -5.1078  H       1  <O>11       0.0621
  36 H10      -1.6184    -8.9973    -4.0287  H       1  <O>11       0.0646
  37 H11       5.4013    -9.3817    -3.7859  H       1  <O>11       0.0814
  38 H12       5.9543   -10.2918    -1.3519  H       1  <O>11       0.0633
  39 H13       3.7507   -11.4696    -0.4885  H       1  <O>11       0.0633
  40 H14       1.9165   -11.1947    -2.3509  H       1  <O>11       0.0814
@<TRIPOS>BOND
     1     1     2    2
     2     2     3    1
     3     3     4   ar
     4     4     5   ar
     5     5     6    1
     6     6     7    1
     7     7     8   ar
     8     8     9   ar
     9     9    10   ar
    10    10    11    2
    11    10    12   ar
    12    12    13   ar
    13    13    14   ar
    14    14    15   ar
    15    15    16   ar
    16    16    17   ar
    17     7    17   ar
    18    12    17   ar
    19     5    18   ar
    20    18    19   ar
    21    19    20   ar
    22     3    20   ar
    23    20    21    1
    24     2    22   am
    25    22    23   ar
    26    23    24   ar
    27    24    25   ar
    28    25    26   ar
    29    22    26   ar
    30     6    27    1
    31     6    28    1
    32     9    29    1
    33     4    30    1
    34    13    31    1
    35    14    32    1
    36    15    33    1
    37    16    34    1
    38    18    35    1
    39    19    36    1
    40    23    37    1
    41    24    38    1
    42    25    39    1
    43    26    40    1
@<TRIPOS>MOLECULE
mol64_1_12
 40 43 0 0 0
SMALL
USER_CHARGES
****
VDW energy = -20.71
@<TRIPOS>ATOM
   1 O1        3.4420    -9.1855    -5.2979  O.2     1  <O>11      -0.2666
   2 C1        2.8552    -9.8129    -4.4288  C.2     1  <O>11       0.2652
   3 C2        1.4620   -10.1610    -4.6040  C.ar    1  <O>11       0.0752
   4 C3        1.1317   -11.3710    -5.2192  C.ar    1  <O>11      -0.0431
   5 C4       -0.2136   -11.7087    -5.4033  C.ar    1  <O>11      -0.0406
   6 C5       -0.5665   -12.9836    -6.0575  C.3     1  <O>11       0.0171
   7 C6        0.0042   -13.0116    -7.4288  C.ar    1  <O>11       0.0736
   8 N1        0.9620   -12.0631    -7.8050  N.ar    1  <O>11      -0.1750
   9 N2        1.4149   -12.0092    -9.0784  N.ar    1  <O>11      -0.2425
  10 C7        0.9378   -12.8958    -9.9847  C.ar    1  <O>11       0.2725
  11 O2        1.3750   -12.7245   -11.3119  O.2     1  <O>11      -0.2658
  12 C8        0.0570   -13.9397    -9.6663  C.ar    1  <O>11       0.0496
  13 C9       -0.3974   -14.9018   -10.5976  C.ar    1  <O>11      -0.0487
  14 C10      -1.3007   -15.8960   -10.2207  C.ar    1  <O>11      -0.0610
  15 C11      -1.7709   -15.9464    -8.9133  C.ar    1  <O>11      -0.0611
  16 C12      -1.3387   -15.0008    -7.9818  C.ar    1  <O>11      -0.0521
  17 C13      -0.4174   -13.9907    -8.3442  C.ar    1  <O>11       0.0106
  18 C14      -1.2215   -10.8431    -4.9705  C.ar    1  <O>11      -0.0555
  19 C15      -0.8757    -9.6378    -4.3497  C.ar    1  <O>11      -0.0254
  20 C16       0.4633    -9.2929    -4.1603  C.ar    1  <O>11       0.1357
  21 F1        0.8028    -8.1157    -3.5453  F       1  <O>11      -0.2047
  22 N3        3.5160   -10.1860    -3.2900  N.ar    1  <O>11      -0.2903
  23 C17       2.8907   -10.8560    -2.3608  C.ar    1  <O>11       0.0127
  24 C18       3.8914   -11.0888    -1.4179  C.ar    1  <O>11      -0.0437
  25 C19       5.0635   -10.4511    -1.9137  C.ar    1  <O>11      -0.0437
  26 C20       4.7722    -9.8730    -3.1308  C.ar    1  <O>11       0.0127
  27 H1       -1.6515   -13.0741    -6.1135  H       1  <O>11       0.0377
  28 H2       -0.1622   -13.8136    -5.4782  H       1  <O>11       0.0377
  29 H3        2.0990   -11.3182    -9.3500  H       1  <O>11       0.1921
  30 H4        1.8757   -12.0122    -5.5360  H       1  <O>11       0.0629
  31 H5       -0.0557   -14.8681   -11.5708  H       1  <O>11       0.0625
  32 H6       -1.6195   -16.5932   -10.9115  H       1  <O>11       0.0618
  33 H7       -2.4383   -16.6815    -8.6319  H       1  <O>11       0.0618
  34 H8       -1.6967   -15.0392    -7.0146  H       1  <O>11       0.0624
  35 H9       -2.2138   -11.0911    -5.1078  H       1  <O>11       0.0621
  36 H10      -1.6184    -8.9973    -4.0287  H       1  <O>11       0.0646
  37 H11       1.8998   -11.1429    -2.3311  H       1  <O>11       0.0814
  38 H12       3.8004   -11.6179    -0.5365  H       1  <O>11       0.0633
  39 H13       5.9800   -10.4257    -1.4401  H       1  <O>11       0.0633
  40 H14       5.3896    -9.3314    -3.7558  H       1  <O>11       0.0814
@<TRIPOS>BOND
     1     1     2    2
     2     2     3    1
     3     3     4   ar
     4     4     5   ar
     5     5     6    1
     6     6     7    1
     7     7     8   ar
     8     8     9   ar
     9     9    10   ar
    10    10    11    2
    11    10    12   ar
    12    12    13   ar
    13    13    14   ar
    14    14    15   ar
    15    15    16   ar
    16    16    17   ar
    17     7    17   ar
    18    12    17   ar
    19     5    18   ar
    20    18    19   ar
    21    19    20   ar
    22     3    20   ar
    23    20    21    1
    24     2    22   am
    25    22    23   ar
    26    23    24   ar
    27    24    25   ar
    28    25    26   ar
    29    22    26   ar
    30     6    27    1
    31     6    28    1
    32     9    29    1
    33     4    30    1
    34    13    31    1
    35    14    32    1
    36    15    33    1
    37    16    34    1
    38    18    35    1
    39    19    36    1
    40    23    37    1
    41    24    38    1
    42    25    39    1
    43    26    40    1
@<TRIPOS>MOLECULE
mol64_1_13
 40 43 0 0 0
SMALL
USER_CHARGES
****
VDW energy = -20.58
@<TRIPOS>ATOM
   1 O1        3.4420    -9.1855    -5.2979  O.2     1  <O>11      -0.2666
   2 C1        2.8552    -9.8129    -4.4288  C.2     1  <O>11       0.2652
   3 C2        1.4620   -10.1610    -4.6040  C.ar    1  <O>11       0.0752
   4 C3        0.4753    -9.2800    -4.1544  C.ar    1  <O>11      -0.0431
   5 C4       -0.8742    -9.6157    -4.3092  C.ar    1  <O>11      -0.0406
   6 C5       -1.9193    -8.6901    -3.8308  C.3     1  <O>11       0.0171
   7 C6       -1.7642    -8.4807    -2.3682  C.ar    1  <O>11       0.0736
   8 N1       -0.5936    -8.8974    -1.7244  N.ar    1  <O>11      -0.1750
   9 N2       -0.4785    -8.8094    -0.3796  N.ar    1  <O>11      -0.2425
  10 C7       -1.5086    -8.2995     0.3372  C.ar    1  <O>11       0.2725
  11 O2       -1.3651    -8.3256     1.7375  O.2     1  <O>11      -0.2658
  12 C8       -2.6712    -7.7661    -0.2381  C.ar    1  <O>11       0.0496
  13 C9       -3.7227    -7.1802     0.5038  C.ar    1  <O>11      -0.0487
  14 C10      -4.8677    -6.6978    -0.1307  C.ar    1  <O>11      -0.0610
  15 C11      -4.9881    -6.7950    -1.5124  C.ar    1  <O>11      -0.0611
  16 C12      -3.9632    -7.3765    -2.2606  C.ar    1  <O>11      -0.0521
  17 C13      -2.7919    -7.8638    -1.6351  C.ar    1  <O>11       0.0106
  18 C14      -1.2337   -10.8229    -4.9139  C.ar    1  <O>11      -0.0555
  19 C15      -0.2346   -11.6922    -5.3656  C.ar    1  <O>11      -0.0254
  20 C16       1.1140   -11.3656    -5.2170  C.ar    1  <O>11       0.1357
  21 F1        2.0933   -12.2132    -5.6662  F       1  <O>11      -0.2047
  22 N3        3.5160   -10.1860    -3.2900  N.ar    1  <O>11      -0.2903
  23 C17       4.7730    -9.8730    -3.1310  C.ar    1  <O>11       0.0127
  24 C18       5.0580   -10.3660    -1.8580  C.ar    1  <O>11      -0.0437
  25 C19       3.8660   -10.9920    -1.3960  C.ar    1  <O>11      -0.0437
  26 C20       2.8910   -10.8550    -2.3610  C.ar    1  <O>11       0.0127
  27 H1       -2.9018    -9.1162    -4.0348  H       1  <O>11       0.0377
  28 H2       -1.8232    -7.7350    -4.3472  H       1  <O>11       0.0377
  29 H3        0.3632    -9.1191     0.0839  H       1  <O>11       0.1921
  30 H4        0.7403    -8.3868    -3.7107  H       1  <O>11       0.0629
  31 H5       -3.6420    -7.1084     1.5301  H       1  <O>11       0.0625
  32 H6       -5.6246    -6.2693     0.4248  H       1  <O>11       0.0618
  33 H7       -5.8337    -6.4379    -1.9840  H       1  <O>11       0.0618
  34 H8       -4.0614    -7.4521    -3.2852  H       1  <O>11       0.0624
  35 H9       -2.2289   -11.0716    -5.0266  H       1  <O>11       0.0621
  36 H10      -0.4978   -12.5841    -5.8131  H       1  <O>11       0.0646
  37 H11       5.4013    -9.3817    -3.7859  H       1  <O>11       0.0814
  38 H12       5.9543   -10.2918    -1.3519  H       1  <O>11       0.0633
  39 H13       3.7507   -11.4696    -0.4885  H       1  <O>11       0.0633
  40 H14       1.9165   -11.1947    -2.3509  H       1  <O>11       0.0814
@<TRIPOS>BOND
     1     1     2    2
     2     2     3    1
     3     3     4   ar
     4     4     5   ar
     5     5     6    1
     6     6     7    1
     7     7     8   ar
     8     8     9   ar
     9     9    10   ar
    10    10    11    2
    11    10    12   ar
    12    12    13   ar
    13    13    14   ar
    14    14    15   ar
    15    15    16   ar
    16    16    17   ar
    17     7    17   ar
    18    12    17   ar
    19     5    18   ar
    20    18    19   ar
    21    19    20   ar
    22     3    20   ar
    23    20    21    1
    24     2    22   am
    25    22    23   ar
    26    23    24   ar
    27    24    25   ar
    28    25    26   ar
    29    22    26   ar
    30     6    27    1
    31     6    28    1
    32     9    29    1
    33     4    30    1
    34    13    31    1
    35    14    32    1
    36    15    33    1
    37    16    34    1
    38    18    35    1
    39    19    36    1
    40    23    37    1
    41    24    38    1
    42    25    39    1
    43    26    40    1
@<TRIPOS>MOLECULE
mol64_1_14
 40 43 0 0 0
SMALL
USER_CHARGES
****
VDW energy = -20.55
@<TRIPOS>ATOM
   1 O1        3.4420    -9.1855    -5.2979  O.2     1  <O>11      -0.2666
   2 C1        2.8552    -9.8129    -4.4288  C.2     1  <O>11       0.2652
   3 C2        1.4620   -10.1610    -4.6040  C.ar    1  <O>11       0.0752
   4 C3        0.4753    -9.2800    -4.1544  C.ar    1  <O>11      -0.0431
   5 C4       -0.8742    -9.6157    -4.3092  C.ar    1  <O>11      -0.0406
   6 C5       -1.9193    -8.6901    -3.8308  C.3     1  <O>11       0.0171
   7 C6       -1.7642    -8.4807    -2.3682  C.ar    1  <O>11       0.0736
   8 N1       -0.5936    -8.8974    -1.7244  N.ar    1  <O>11      -0.1750
   9 N2       -0.4785    -8.8094    -0.3796  N.ar    1  <O>11      -0.2425
  10 C7       -1.5086    -8.2995     0.3372  C.ar    1  <O>11       0.2725
  11 O2       -1.3651    -8.3256     1.7375  O.2     1  <O>11      -0.2658
  12 C8       -2.6712    -7.7661    -0.2381  C.ar    1  <O>11       0.0496
  13 C9       -3.7227    -7.1802     0.5038  C.ar    1  <O>11      -0.0487
  14 C10      -4.8677    -6.6978    -0.1307  C.ar    1  <O>11      -0.0610
  15 C11      -4.9881    -6.7950    -1.5124  C.ar    1  <O>11      -0.0611
  16 C12      -3.9632    -7.3765    -2.2606  C.ar    1  <O>11      -0.0521
  17 C13      -2.7919    -7.8638    -1.6351  C.ar    1  <O>11       0.0106
  18 C14      -1.2337   -10.8229    -4.9139  C.ar    1  <O>11      -0.0555
  19 C15      -0.2346   -11.6922    -5.3656  C.ar    1  <O>11      -0.0254
  20 C16       1.1140   -11.3656    -5.2170  C.ar    1  <O>11       0.1357
  21 F1        2.0933   -12.2132    -5.6662  F       1  <O>11      -0.2047
  22 N3        3.5160   -10.1860    -3.2900  N.ar    1  <O>11      -0.2903
  23 C17       2.8907   -10.8560    -2.3608  C.ar    1  <O>11       0.0127
  24 C18       3.8914   -11.0888    -1.4179  C.ar    1  <O>11      -0.0437
  25 C19       5.0635   -10.4511    -1.9137  C.ar    1  <O>11      -0.0437
  26 C20       4.7722    -9.8730    -3.1308  C.ar    1  <O>11       0.0127
  27 H1       -2.9018    -9.1162    -4.0348  H       1  <O>11       0.0377
  28 H2       -1.8232    -7.7350    -4.3472  H       1  <O>11       0.0377
  29 H3        0.3632    -9.1191     0.0839  H       1  <O>11       0.1921
  30 H4        0.7403    -8.3868    -3.7107  H       1  <O>11       0.0629
  31 H5       -3.6420    -7.1084     1.5301  H       1  <O>11       0.0625
  32 H6       -5.6246    -6.2693     0.4248  H       1  <O>11       0.0618
  33 H7       -5.8337    -6.4379    -1.9840  H       1  <O>11       0.0618
  34 H8       -4.0614    -7.4521    -3.2852  H       1  <O>11       0.0624
  35 H9       -2.2289   -11.0716    -5.0266  H       1  <O>11       0.0621
  36 H10      -0.4978   -12.5841    -5.8131  H       1  <O>11       0.0646
  37 H11       1.8998   -11.1429    -2.3311  H       1  <O>11       0.0814
  38 H12       3.8004   -11.6179    -0.5365  H       1  <O>11       0.0633
  39 H13       5.9800   -10.4257    -1.4401  H       1  <O>11       0.0633
  40 H14       5.3896    -9.3314    -3.7558  H       1  <O>11       0.0814
@<TRIPOS>BOND
     1     1     2    2
     2     2     3    1
     3     3     4   ar
     4     4     5   ar
     5     5     6    1
     6     6     7    1
     7     7     8   ar
     8     8     9   ar
     9     9    10   ar
    10    10    11    2
    11    10    12   ar
    12    12    13   ar
    13    13    14   ar
    14    14    15   ar
    15    15    16   ar
    16    16    17   ar
    17     7    17   ar
    18    12    17   ar
    19     5    18   ar
    20    18    19   ar
    21    19    20   ar
    22     3    20   ar
    23    20    21    1
    24     2    22   am
    25    22    23   ar
    26    23    24   ar
    27    24    25   ar
    28    25    26   ar
    29    22    26   ar
    30     6    27    1
    31     6    28    1
    32     9    29    1
    33     4    30    1
    34    13    31    1
    35    14    32    1
    36    15    33    1
    37    16    34    1
    38    18    35    1
    39    19    36    1
    40    23    37    1
    41    24    38    1
    42    25    39    1
    43    26    40    1
@<TRIPOS>MOLECULE
mol64_1_15
 40 43 0 0 0
SMALL
USER_CHARGES
****
VDW energy = -20.07
@<TRIPOS>ATOM
   1 O1        3.4420    -9.1855    -5.2979  O.2     1  <O>11      -0.2666
   2 C1        2.8552    -9.8129    -4.4288  C.2     1  <O>11       0.2652
   3 C2        1.4620   -10.1610    -4.6040  C.ar    1  <O>11       0.0752
   4 C3        1.1317   -11.3710    -5.2192  C.ar    1  <O>11      -0.0431
   5 C4       -0.2136   -11.7087    -5.4033  C.ar    1  <O>11      -0.0406
   6 C5       -0.5665   -12.9836    -6.0575  C.3     1  <O>11       0.0171
   7 C6       -1.9960   -12.9546    -6.4610  C.ar    1  <O>11       0.0736
   8 N1       -2.9803   -13.4049    -5.5739  N.ar    1  <O>11      -0.1750
   9 N2       -4.2737   -13.4828    -5.9620  N.ar    1  <O>11      -0.2425
  10 C7       -4.6073   -13.1061    -7.2197  C.ar    1  <O>11       0.2725
  11 O2       -5.9506   -13.3030    -7.5922  O.2     1  <O>11      -0.2658
  12 C8       -3.7013   -12.5484    -8.1336  C.ar    1  <O>11       0.0496
  13 C9       -4.0581   -12.1005    -9.4265  C.ar    1  <O>11      -0.0487
  14 C10      -3.0987   -11.5853   -10.2985  C.ar    1  <O>11      -0.0610
  15 C11      -1.7683   -11.5121    -9.9012  C.ar    1  <O>11      -0.0611
  16 C12      -1.3964   -11.9559    -8.6311  C.ar    1  <O>11      -0.0521
  17 C13      -2.3567   -12.4738    -7.7310  C.ar    1  <O>11       0.0106
  18 C14      -1.2215   -10.8431    -4.9705  C.ar    1  <O>11      -0.0555
  19 C15      -0.8757    -9.6378    -4.3497  C.ar    1  <O>11      -0.0254
  20 C16       0.4633    -9.2929    -4.1603  C.ar    1  <O>11       0.1357
  21 F1        0.8028    -8.1157    -3.5453  F       1  <O>11      -0.2047
  22 N3        3.5160   -10.1860    -3.2900  N.ar    1  <O>11      -0.2903
  23 C17       4.7730    -9.8730    -3.1310  C.ar    1  <O>11       0.0127
  24 C18       5.0580   -10.3660    -1.8580  C.ar    1  <O>11      -0.0437
  25 C19       3.8660   -10.9920    -1.3960  C.ar    1  <O>11      -0.0437
  26 C20       2.8910   -10.8550    -2.3610  C.ar    1  <O>11       0.0127
  27 H1       -0.4021   -13.8060    -5.3610  H       1  <O>11       0.0377
  28 H2        0.0577   -13.1244    -6.9398  H       1  <O>11       0.0377
  29 H3       -4.9809   -13.8166    -5.3235  H       1  <O>11       0.1921
  30 H4        1.8757   -12.0122    -5.5360  H       1  <O>11       0.0629
  31 H5       -5.0430   -12.1556    -9.7296  H       1  <O>11       0.0625
  32 H6       -3.3761   -11.2588   -11.2374  H       1  <O>11       0.0618
  33 H7       -1.0571   -11.1303   -10.5442  H       1  <O>11       0.0618
  34 H8       -0.4062   -11.9054    -8.3445  H       1  <O>11       0.0624
  35 H9       -2.2138   -11.0911    -5.1078  H       1  <O>11       0.0621
  36 H10      -1.6184    -8.9973    -4.0287  H       1  <O>11       0.0646
  37 H11       5.4013    -9.3817    -3.7859  H       1  <O>11       0.0814
  38 H12       5.9543   -10.2918    -1.3519  H       1  <O>11       0.0633
  39 H13       3.7507   -11.4696    -0.4885  H       1  <O>11       0.0633
  40 H14       1.9165   -11.1947    -2.3509  H       1  <O>11       0.0814
@<TRIPOS>BOND
     1     1     2    2
     2     2     3    1
     3     3     4   ar
     4     4     5   ar
     5     5     6    1
     6     6     7    1
     7     7     8   ar
     8     8     9   ar
     9     9    10   ar
    10    10    11    2
    11    10    12   ar
    12    12    13   ar
    13    13    14   ar
    14    14    15   ar
    15    15    16   ar
    16    16    17   ar
    17     7    17   ar
    18    12    17   ar
    19     5    18   ar
    20    18    19   ar
    21    19    20   ar
    22     3    20   ar
    23    20    21    1
    24     2    22   am
    25    22    23   ar
    26    23    24   ar
    27    24    25   ar
    28    25    26   ar
    29    22    26   ar
    30     6    27    1
    31     6    28    1
    32     9    29    1
    33     4    30    1
    34    13    31    1
    35    14    32    1
    36    15    33    1
    37    16    34    1
    38    18    35    1
    39    19    36    1
    40    23    37    1
    41    24    38    1
    42    25    39    1
    43    26    40    1
@<TRIPOS>MOLECULE
mol64_1_16
 40 43 0 0 0
SMALL
USER_CHARGES
****
VDW energy = -20.05
@<TRIPOS>ATOM
   1 O1        3.4420    -9.1855    -5.2979  O.2     1  <O>11      -0.2666
   2 C1        2.8552    -9.8129    -4.4288  C.2     1  <O>11       0.2652
   3 C2        1.4620   -10.1610    -4.6040  C.ar    1  <O>11       0.0752
   4 C3        1.1317   -11.3710    -5.2192  C.ar    1  <O>11      -0.0431
   5 C4       -0.2136   -11.7087    -5.4033  C.ar    1  <O>11      -0.0406
   6 C5       -0.5665   -12.9836    -6.0575  C.3     1  <O>11       0.0171
   7 C6       -1.9960   -12.9546    -6.4610  C.ar    1  <O>11       0.0736
   8 N1       -2.9803   -13.4049    -5.5739  N.ar    1  <O>11      -0.1750
   9 N2       -4.2737   -13.4828    -5.9620  N.ar    1  <O>11      -0.2425
  10 C7       -4.6073   -13.1061    -7.2197  C.ar    1  <O>11       0.2725
  11 O2       -5.9506   -13.3030    -7.5922  O.2     1  <O>11      -0.2658
  12 C8       -3.7013   -12.5484    -8.1336  C.ar    1  <O>11       0.0496
  13 C9       -4.0581   -12.1005    -9.4265  C.ar    1  <O>11      -0.0487
  14 C10      -3.0987   -11.5853   -10.2985  C.ar    1  <O>11      -0.0610
  15 C11      -1.7683   -11.5121    -9.9012  C.ar    1  <O>11      -0.0611
  16 C12      -1.3964   -11.9559    -8.6311  C.ar    1  <O>11      -0.0521
  17 C13      -2.3567   -12.4738    -7.7310  C.ar    1  <O>11       0.0106
  18 C14      -1.2215   -10.8431    -4.9705  C.ar    1  <O>11      -0.0555
  19 C15      -0.8757    -9.6378    -4.3497  C.ar    1  <O>11      -0.0254
  20 C16       0.4633    -9.2929    -4.1603  C.ar    1  <O>11       0.1357
  21 F1        0.8028    -8.1157    -3.5453  F       1  <O>11      -0.2047
  22 N3        3.5160   -10.1860    -3.2900  N.ar    1  <O>11      -0.2903
  23 C17       2.8907   -10.8560    -2.3608  C.ar    1  <O>11       0.0127
  24 C18       3.8914   -11.0888    -1.4179  C.ar    1  <O>11      -0.0437
  25 C19       5.0635   -10.4511    -1.9137  C.ar    1  <O>11      -0.0437
  26 C20       4.7722    -9.8730    -3.1308  C.ar    1  <O>11       0.0127
  27 H1       -0.4021   -13.8060    -5.3610  H       1  <O>11       0.0377
  28 H2        0.0577   -13.1244    -6.9398  H       1  <O>11       0.0377
  29 H3       -4.9809   -13.8166    -5.3235  H       1  <O>11       0.1921
  30 H4        1.8757   -12.0122    -5.5360  H       1  <O>11       0.0629
  31 H5       -5.0430   -12.1556    -9.7296  H       1  <O>11       0.0625
  32 H6       -3.3761   -11.2588   -11.2374  H       1  <O>11       0.0618
  33 H7       -1.0571   -11.1303   -10.5442  H       1  <O>11       0.0618
  34 H8       -0.4062   -11.9054    -8.3445  H       1  <O>11       0.0624
  35 H9       -2.2138   -11.0911    -5.1078  H       1  <O>11       0.0621
  36 H10      -1.6184    -8.9973    -4.0287  H       1  <O>11       0.0646
  37 H11       1.8998   -11.1429    -2.3311  H       1  <O>11       0.0814
  38 H12       3.8004   -11.6179    -0.5365  H       1  <O>11       0.0633
  39 H13       5.9800   -10.4257    -1.4401  H       1  <O>11       0.0633
  40 H14       5.3896    -9.3314    -3.7558  H       1  <O>11       0.0814
@<TRIPOS>BOND
     1     1     2    2
     2     2     3    1
     3     3     4   ar
     4     4     5   ar
     5     5     6    1
     6     6     7    1
     7     7     8   ar
     8     8     9   ar
     9     9    10   ar
    10    10    11    2
    11    10    12   ar
    12    12    13   ar
    13    13    14   ar
    14    14    15   ar
    15    15    16   ar
    16    16    17   ar
    17     7    17   ar
    18    12    17   ar
    19     5    18   ar
    20    18    19   ar
    21    19    20   ar
    22     3    20   ar
    23    20    21    1
    24     2    22   am
    25    22    23   ar
    26    23    24   ar
    27    24    25   ar
    28    25    26   ar
    29    22    26   ar
    30     6    27    1
    31     6    28    1
    32     9    29    1
    33     4    30    1
    34    13    31    1
    35    14    32    1
    36    15    33    1
    37    16    34    1
    38    18    35    1
    39    19    36    1
    40    23    37    1
    41    24    38    1
    42    25    39    1
    43    26    40    1
@<TRIPOS>MOLECULE
mol64_1_17
 40 43 0 0 0
SMALL
USER_CHARGES
****
VDW energy = -19.39
@<TRIPOS>ATOM
   1 O1        3.4420    -9.1855    -5.2979  O.2     1  <O>11      -0.2666
   2 C1        2.8552    -9.8129    -4.4288  C.2     1  <O>11       0.2652
   3 C2        1.4620   -10.1610    -4.6040  C.ar    1  <O>11       0.0752
   4 C3        1.1317   -11.3710    -5.2192  C.ar    1  <O>11      -0.0431
   5 C4       -0.2136   -11.7087    -5.4033  C.ar    1  <O>11      -0.0406
   6 C5       -0.5665   -12.9836    -6.0575  C.3     1  <O>11       0.0171
   7 C6        0.0042   -13.0116    -7.4288  C.ar    1  <O>11       0.0736
   8 N1        0.9142   -14.0134    -7.7852  N.ar    1  <O>11      -0.1750
   9 N2        1.5218   -13.9938    -8.9935  N.ar    1  <O>11      -0.2425
  10 C7        1.2279   -12.9965    -9.8618  C.ar    1  <O>11       0.2725
  11 O2        1.9653   -12.9787   -11.0611  O.2     1  <O>11      -0.2658
  12 C8        0.2544   -12.0156    -9.6234  C.ar    1  <O>11       0.0496
  13 C9       -0.0958   -11.0079   -10.5514  C.ar    1  <O>11      -0.0487
  14 C10      -1.0516   -10.0416   -10.2363  C.ar    1  <O>11      -0.0610
  15 C11      -1.6705   -10.0585    -8.9915  C.ar    1  <O>11      -0.0611
  16 C12      -1.3326   -11.0416    -8.0599  C.ar    1  <O>11      -0.0521
  17 C13      -0.3717   -12.0336    -8.3650  C.ar    1  <O>11       0.0106
  18 C14      -1.2215   -10.8431    -4.9705  C.ar    1  <O>11      -0.0555
  19 C15      -0.8757    -9.6378    -4.3497  C.ar    1  <O>11      -0.0254
  20 C16       0.4633    -9.2929    -4.1603  C.ar    1  <O>11       0.1357
  21 F1        0.8028    -8.1157    -3.5453  F       1  <O>11      -0.2047
  22 N3        3.5160   -10.1860    -3.2900  N.ar    1  <O>11      -0.2903
  23 C17       4.7730    -9.8730    -3.1310  C.ar    1  <O>11       0.0127
  24 C18       5.0580   -10.3660    -1.8580  C.ar    1  <O>11      -0.0437
  25 C19       3.8660   -10.9920    -1.3960  C.ar    1  <O>11      -0.0437
  26 C20       2.8910   -10.8550    -2.3610  C.ar    1  <O>11       0.0127
  27 H1       -1.6515   -13.0741    -6.1135  H       1  <O>11       0.0377
  28 H2       -0.1622   -13.8136    -5.4782  H       1  <O>11       0.0377
  29 H3        2.1848   -14.7123    -9.2451  H       1  <O>11       0.1921
  30 H4        1.8757   -12.0122    -5.5360  H       1  <O>11       0.0629
  31 H5        0.3625   -10.9868   -11.4759  H       1  <O>11       0.0625
  32 H6       -1.2989    -9.3152   -10.9264  H       1  <O>11       0.0618
  33 H7       -2.3786    -9.3453    -8.7566  H       1  <O>11       0.0618
  34 H8       -1.7905   -11.0446    -7.1350  H       1  <O>11       0.0624
  35 H9       -2.2138   -11.0911    -5.1078  H       1  <O>11       0.0621
  36 H10      -1.6184    -8.9973    -4.0287  H       1  <O>11       0.0646
  37 H11       5.4013    -9.3817    -3.7859  H       1  <O>11       0.0814
  38 H12       5.9543   -10.2918    -1.3519  H       1  <O>11       0.0633
  39 H13       3.7507   -11.4696    -0.4885  H       1  <O>11       0.0633
  40 H14       1.9165   -11.1947    -2.3509  H       1  <O>11       0.0814
@<TRIPOS>BOND
     1     1     2    2
     2     2     3    1
     3     3     4   ar
     4     4     5   ar
     5     5     6    1
     6     6     7    1
     7     7     8   ar
     8     8     9   ar
     9     9    10   ar
    10    10    11    2
    11    10    12   ar
    12    12    13   ar
    13    13    14   ar
    14    14    15   ar
    15    15    16   ar
    16    16    17   ar
    17     7    17   ar
    18    12    17   ar
    19     5    18   ar
    20    18    19   ar
    21    19    20   ar
    22     3    20   ar
    23    20    21    1
    24     2    22   am
    25    22    23   ar
    26    23    24   ar
    27    24    25   ar
    28    25    26   ar
    29    22    26   ar
    30     6    27    1
    31     6    28    1
    32     9    29    1
    33     4    30    1
    34    13    31    1
    35    14    32    1
    36    15    33    1
    37    16    34    1
    38    18    35    1
    39    19    36    1
    40    23    37    1
    41    24    38    1
    42    25    39    1
    43    26    40    1
@<TRIPOS>MOLECULE
mol64_1_18
 40 43 0 0 0
SMALL
USER_CHARGES
****
VDW energy = -19.19
@<TRIPOS>ATOM
   1 O1        3.4420    -9.1855    -5.2979  O.2     1  <O>11      -0.2666
   2 C1        2.8552    -9.8129    -4.4288  C.2     1  <O>11       0.2652
   3 C2        1.4620   -10.1610    -4.6040  C.ar    1  <O>11       0.0752
   4 C3        0.4753    -9.2800    -4.1544  C.ar    1  <O>11      -0.0431
   5 C4       -0.8742    -9.6157    -4.3092  C.ar    1  <O>11      -0.0406
   6 C5       -1.9193    -8.6901    -3.8308  C.3     1  <O>11       0.0171
   7 C6       -1.7876    -7.3879    -4.5338  C.ar    1  <O>11       0.0736
   8 N1       -2.4747    -7.1704    -5.7334  N.ar    1  <O>11      -0.1750
   9 N2       -2.2852    -6.0321    -6.4390  N.ar    1  <O>11      -0.2425
  10 C7       -1.4292    -5.0968    -5.9620  C.ar    1  <O>11       0.2725
  11 O2       -1.2025    -3.9811    -6.7902  O.2     1  <O>11      -0.2658
  12 C8       -0.7821    -5.1915    -4.7214  C.ar    1  <O>11       0.0496
  13 C9        0.0665    -4.1906    -4.1944  C.ar    1  <O>11      -0.0487
  14 C10       0.7056    -4.3639    -2.9665  C.ar    1  <O>11      -0.0610
  15 C11       0.5156    -5.5372    -2.2452  C.ar    1  <O>11      -0.0611
  16 C12      -0.3131    -6.5392    -2.7528  C.ar    1  <O>11      -0.0521
  17 C13      -0.9752    -6.3775    -3.9922  C.ar    1  <O>11       0.0106
  18 C14      -1.2337   -10.8229    -4.9139  C.ar    1  <O>11      -0.0555
  19 C15      -0.2346   -11.6922    -5.3656  C.ar    1  <O>11      -0.0254
  20 C16       1.1140   -11.3656    -5.2170  C.ar    1  <O>11       0.1357
  21 F1        2.0933   -12.2132    -5.6662  F       1  <O>11      -0.2047
  22 N3        3.5160   -10.1860    -3.2900  N.ar    1  <O>11      -0.2903
  23 C17       4.7730    -9.8730    -3.1310  C.ar    1  <O>11       0.0127
  24 C18       5.0580   -10.3660    -1.8580  C.ar    1  <O>11      -0.0437
  25 C19       3.8660   -10.9920    -1.3960  C.ar    1  <O>11      -0.0437
  26 C20       2.8910   -10.8550    -2.3610  C.ar    1  <O>11       0.0127
  27 H1       -1.8042    -8.5370    -2.7576  H       1  <O>11       0.0377
  28 H2       -2.9021    -9.1153    -4.0338  H       1  <O>11       0.0377
  29 H3       -2.7748    -5.8811    -7.3089  H       1  <O>11       0.1921
  30 H4        0.7403    -8.3868    -3.7107  H       1  <O>11       0.0629
  31 H5        0.2153    -3.3188    -4.7262  H       1  <O>11       0.0625
  32 H6        1.3186    -3.6220    -2.5939  H       1  <O>11       0.0618
  33 H7        0.9865    -5.6671    -1.3361  H       1  <O>11       0.0618
  34 H8       -0.4446    -7.4108    -2.2160  H       1  <O>11       0.0624
  35 H9       -2.2289   -11.0716    -5.0266  H       1  <O>11       0.0621
  36 H10      -0.4978   -12.5841    -5.8131  H       1  <O>11       0.0646
  37 H11       5.4013    -9.3817    -3.7859  H       1  <O>11       0.0814
  38 H12       5.9543   -10.2918    -1.3519  H       1  <O>11       0.0633
  39 H13       3.7507   -11.4696    -0.4885  H       1  <O>11       0.0633
  40 H14       1.9165   -11.1947    -2.3509  H       1  <O>11       0.0814
@<TRIPOS>BOND
     1     1     2    2
     2     2     3    1
     3     3     4   ar
     4     4     5   ar
     5     5     6    1
     6     6     7    1
     7     7     8   ar
     8     8     9   ar
     9     9    10   ar
    10    10    11    2
    11    10    12   ar
    12    12    13   ar
    13    13    14   ar
    14    14    15   ar
    15    15    16   ar
    16    16    17   ar
    17     7    17   ar
    18    12    17   ar
    19     5    18   ar
    20    18    19   ar
    21    19    20   ar
    22     3    20   ar
    23    20    21    1
    24     2    22   am
    25    22    23   ar
    26    23    24   ar
    27    24    25   ar
    28    25    26   ar
    29    22    26   ar
    30     6    27    1
    31     6    28    1
    32     9    29    1
    33     4    30    1
    34    13    31    1
    35    14    32    1
    36    15    33    1
    37    16    34    1
    38    18    35    1
    39    19    36    1
    40    23    37    1
    41    24    38    1
    42    25    39    1
    43    26    40    1
@<TRIPOS>MOLECULE
mol64_1_19
 40 43 0 0 0
SMALL
USER_CHARGES
****
VDW energy = -16.54
@<TRIPOS>ATOM
   1 O1        3.4420    -9.1855    -5.2979  O.2     1  <O>11      -0.2666
   2 C1        2.8552    -9.8129    -4.4288  C.2     1  <O>11       0.2652
   3 C2        1.4620   -10.1610    -4.6040  C.ar    1  <O>11       0.0752
   4 C3        1.1317   -11.3710    -5.2192  C.ar    1  <O>11      -0.0431
   5 C4       -0.2136   -11.7087    -5.4033  C.ar    1  <O>11      -0.0406
   6 C5       -0.5665   -12.9836    -6.0575  C.3     1  <O>11       0.0171
   7 C6        0.0042   -13.0116    -7.4288  C.ar    1  <O>11       0.0736
   8 N1       -0.7428   -12.5200    -8.5053  N.ar    1  <O>11      -0.1750
   9 N2       -0.2819   -12.6326    -9.7719  N.ar    1  <O>11      -0.2425
  10 C7        0.9213   -13.2173    -9.9850  C.ar    1  <O>11       0.2725
  11 O2        1.2986   -13.3914   -11.3301  O.2     1  <O>11      -0.2658
  12 C8        1.7757   -13.6418    -8.9571  C.ar    1  <O>11       0.0496
  13 C9        3.0569   -14.1993    -9.1742  C.ar    1  <O>11      -0.0487
  14 C10       3.8428   -14.6318    -8.1057  C.ar    1  <O>11      -0.0610
  15 C11       3.3653   -14.5220    -6.8045  C.ar    1  <O>11      -0.0611
  16 C12       2.1000   -13.9806    -6.5713  C.ar    1  <O>11      -0.0521
  17 C13       1.2928   -13.5298    -7.6418  C.ar    1  <O>11       0.0106
  18 C14      -1.2215   -10.8431    -4.9705  C.ar    1  <O>11      -0.0555
  19 C15      -0.8757    -9.6378    -4.3497  C.ar    1  <O>11      -0.0254
  20 C16       0.4633    -9.2929    -4.1603  C.ar    1  <O>11       0.1357
  21 F1        0.8028    -8.1157    -3.5453  F       1  <O>11      -0.2047
  22 N3        3.5160   -10.1860    -3.2900  N.ar    1  <O>11      -0.2903
  23 C17       4.7730    -9.8730    -3.1310  C.ar    1  <O>11       0.0127
  24 C18       5.0580   -10.3660    -1.8580  C.ar    1  <O>11      -0.0437
  25 C19       3.8660   -10.9920    -1.3960  C.ar    1  <O>11      -0.0437
  26 C20       2.8910   -10.8550    -2.3610  C.ar    1  <O>11       0.0127
  27 H1       -1.6515   -13.0741    -6.1135  H       1  <O>11       0.0377
  28 H2       -0.1622   -13.8136    -5.4782  H       1  <O>11       0.0377
  29 H3       -0.8266   -12.2856   -10.5479  H       1  <O>11       0.1921
  30 H4        1.8757   -12.0122    -5.5360  H       1  <O>11       0.0629
  31 H5        3.4161   -14.2876   -10.1376  H       1  <O>11       0.0625
  32 H6        4.7774   -15.0327    -8.2808  H       1  <O>11       0.0618
  33 H7        3.9453   -14.8403    -6.0125  H       1  <O>11       0.0618
  34 H8        1.7483   -13.9081    -5.6038  H       1  <O>11       0.0624
  35 H9       -2.2138   -11.0911    -5.1078  H       1  <O>11       0.0621
  36 H10      -1.6184    -8.9973    -4.0287  H       1  <O>11       0.0646
  37 H11       5.4013    -9.3817    -3.7859  H       1  <O>11       0.0814
  38 H12       5.9543   -10.2918    -1.3519  H       1  <O>11       0.0633
  39 H13       3.7507   -11.4696    -0.4885  H       1  <O>11       0.0633
  40 H14       1.9165   -11.1947    -2.3509  H       1  <O>11       0.0814
@<TRIPOS>BOND
     1     1     2    2
     2     2     3    1
     3     3     4   ar
     4     4     5   ar
     5     5     6    1
     6     6     7    1
     7     7     8   ar
     8     8     9   ar
     9     9    10   ar
    10    10    11    2
    11    10    12   ar
    12    12    13   ar
    13    13    14   ar
    14    14    15   ar
    15    15    16   ar
    16    16    17   ar
    17     7    17   ar
    18    12    17   ar
    19     5    18   ar
    20    18    19   ar
    21    19    20   ar
    22     3    20   ar
    23    20    21    1
    24     2    22   am
    25    22    23   ar
    26    23    24   ar
    27    24    25   ar
    28    25    26   ar
    29    22    26   ar
    30     6    27    1
    31     6    28    1
    32     9    29    1
    33     4    30    1
    34    13    31    1
    35    14    32    1
    36    15    33    1
    37    16    34    1
    38    18    35    1
    39    19    36    1
    40    23    37    1
    41    24    38    1
    42    25    39    1
    43    26    40    1
@<TRIPOS>MOLECULE
mol64_1_20
 40 43 0 0 0
SMALL
USER_CHARGES
****
VDW energy = 4.01
@<TRIPOS>ATOM
   1 O1        3.4420    -9.1855    -5.2979  O.2     1  <O>11      -0.2666
   2 C1        2.8552    -9.8129    -4.4288  C.2     1  <O>11       0.2652
   3 C2        1.4620   -10.1610    -4.6040  C.ar    1  <O>11       0.0752
   4 C3        0.5927    -9.2326    -5.1822  C.ar    1  <O>11      -0.0431
   5 C4       -0.7586    -9.5576    -5.3434  C.ar    1  <O>11      -0.0406
   6 C5       -1.6811    -8.5776    -5.9489  C.3     1  <O>11       0.0171
   7 C6       -2.2680    -7.7253    -4.8830  C.ar    1  <O>11       0.0736
   8 N1       -1.7182    -7.7404    -3.5962  N.ar    1  <O>11      -0.1750
   9 N2       -2.3025    -7.0514    -2.5894  N.ar    1  <O>11      -0.2425
  10 C7       -3.4226    -6.3341    -2.8461  C.ar    1  <O>11       0.2725
  11 O2       -4.0358    -5.7204    -1.7373  O.2     1  <O>11      -0.2658
  12 C8       -3.9770    -6.1837    -4.1255  C.ar    1  <O>11       0.0496
  13 C9       -5.1122    -5.3887    -4.4063  C.ar    1  <O>11      -0.0487
  14 C10      -5.6319    -5.3093    -5.6986  C.ar    1  <O>11      -0.0610
  15 C11      -5.0348    -6.0233    -6.7313  C.ar    1  <O>11      -0.0611
  16 C12      -3.9175    -6.8189    -6.4717  C.ar    1  <O>11      -0.0521
  17 C13      -3.3724    -6.9051    -5.1694  C.ar    1  <O>11       0.0106
  18 C14      -1.2358   -10.8050    -4.9328  C.ar    1  <O>11      -0.0555
  19 C15      -0.3521   -11.7274    -4.3617  C.ar    1  <O>11      -0.0254
  20 C16       0.9977   -11.4130    -4.1980  C.ar    1  <O>11       0.1357
  21 F1        1.8657   -12.3190    -3.6457  F       1  <O>11      -0.2047
  22 N3        3.5160   -10.1860    -3.2900  N.ar    1  <O>11      -0.2903
  23 C17       2.8907   -10.8560    -2.3608  C.ar    1  <O>11       0.0127
  24 C18       3.8914   -11.0888    -1.4179  C.ar    1  <O>11      -0.0437
  25 C19       5.0635   -10.4511    -1.9137  C.ar    1  <O>11      -0.0437
  26 C20       4.7722    -9.8730    -3.1308  C.ar    1  <O>11       0.0127
  27 H1       -2.4784    -9.1057    -6.4722  H       1  <O>11       0.0377
  28 H2       -1.1348    -7.9524    -6.6551  H       1  <O>11       0.0377
  29 H3       -1.9096    -7.0710    -1.6597  H       1  <O>11       0.1921
  30 H4        0.9453    -8.3124    -5.4886  H       1  <O>11       0.0629
  31 H5       -5.5630    -4.8592    -3.6438  H       1  <O>11       0.0625
  32 H6       -6.4586    -4.7213    -5.8877  H       1  <O>11       0.0618
  33 H7       -5.4169    -5.9653    -7.6883  H       1  <O>11       0.0618
  34 H8       -3.4829    -7.3520    -7.2412  H       1  <O>11       0.0624
  35 H9       -2.2328   -11.0443    -5.0499  H       1  <O>11       0.0621
  36 H10      -0.7021   -12.6495    -4.0583  H       1  <O>11       0.0646
  37 H11       1.8998   -11.1429    -2.3311  H       1  <O>11       0.0814
  38 H12       3.8004   -11.6179    -0.5365  H       1  <O>11       0.0633
  39 H13       5.9800   -10.4257    -1.4401  H       1  <O>11       0.0633
  40 H14       5.3896    -9.3314    -3.7558  H       1  <O>11       0.0814
@<TRIPOS>BOND
     1     1     2    2
     2     2     3    1
     3     3     4   ar
     4     4     5   ar
     5     5     6    1
     6     6     7    1
     7     7     8   ar
     8     8     9   ar
     9     9    10   ar
    10    10    11    2
    11    10    12   ar
    12    12    13   ar
    13    13    14   ar
    14    14    15   ar
    15    15    16   ar
    16    16    17   ar
    17     7    17   ar
    18    12    17   ar
    19     5    18   ar
    20    18    19   ar
    21    19    20   ar
    22     3    20   ar
    23    20    21    1
    24     2    22   am
    25    22    23   ar
    26    23    24   ar
    27    24    25   ar
    28    25    26   ar
    29    22    26   ar
    30     6    27    1
    31     6    28    1
    32     9    29    1
    33     4    30    1
    34    13    31    1
    35    14    32    1
    36    15    33    1
    37    16    34    1
    38    18    35    1
    39    19    36    1
    40    23    37    1
    41    24    38    1
    42    25    39    1
    43    26    40    1
@<TRIPOS>MOLECULE
mol64_1_21
 40 43 0 0 0
SMALL
USER_CHARGES
****
VDW energy = 5.61
@<TRIPOS>ATOM
   1 O1        3.4420    -9.1855    -5.2979  O.2     1  <O>11      -0.2666
   2 C1        2.8552    -9.8129    -4.4288  C.2     1  <O>11       0.2652
   3 C2        1.4620   -10.1610    -4.6040  C.ar    1  <O>11       0.0752
   4 C3        1.0120   -10.5683    -5.8623  C.ar    1  <O>11      -0.0431
   5 C4       -0.3367   -10.8946    -6.0422  C.ar    1  <O>11      -0.0406
   6 C5       -0.8169   -11.3202    -7.3712  C.3     1  <O>11       0.0171
   7 C6       -0.6992   -12.7963    -7.4914  C.ar    1  <O>11       0.0736
   8 N1       -0.4561   -13.5715    -6.3519  N.ar    1  <O>11      -0.1750
   9 N2       -0.2431   -14.9030    -6.4573  N.ar    1  <O>11      -0.2425
  10 C7       -0.2808   -15.4806    -7.6821  C.ar    1  <O>11       0.2725
  11 O2        0.0451   -16.8493    -7.7345  O.2     1  <O>11      -0.2658
  12 C8       -0.6185   -14.7953    -8.8581  C.ar    1  <O>11       0.0496
  13 C9       -0.7156   -15.4073   -10.1292  C.ar    1  <O>11      -0.0487
  14 C10      -1.0245   -14.6588   -11.2652  C.ar    1  <O>11      -0.0610
  15 C11      -1.2366   -13.2890   -11.1569  C.ar    1  <O>11      -0.0611
  16 C12      -1.1382   -12.6664    -9.9114  C.ar    1  <O>11      -0.0521
  17 C13      -0.8337   -13.4106    -8.7478  C.ar    1  <O>11       0.0106
  18 C14      -1.2280   -10.8179    -4.9689  C.ar    1  <O>11      -0.0555
  19 C15      -0.7616   -10.4151    -3.7128  C.ar    1  <O>11      -0.0254
  20 C16       0.5820   -10.0891    -3.5231  C.ar    1  <O>11       0.1357
  21 F1        1.0413    -9.7017    -2.2909  F       1  <O>11      -0.2047
  22 N3        3.5160   -10.1860    -3.2900  N.ar    1  <O>11      -0.2903
  23 C17       4.7730    -9.8730    -3.1310  C.ar    1  <O>11       0.0127
  24 C18       5.0580   -10.3660    -1.8580  C.ar    1  <O>11      -0.0437
  25 C19       3.8660   -10.9920    -1.3960  C.ar    1  <O>11      -0.0437
  26 C20       2.8910   -10.8550    -2.3610  C.ar    1  <O>11       0.0127
  27 H1       -0.2139   -10.8434    -8.1442  H       1  <O>11       0.0377
  28 H2       -1.8599   -11.0274    -7.4918  H       1  <O>11       0.0377
  29 H3       -0.0587   -15.4590    -5.6351  H       1  <O>11       0.1921
  30 H4        1.6706   -10.6282    -6.6546  H       1  <O>11       0.0629
  31 H5       -0.5555   -16.4229   -10.2178  H       1  <O>11       0.0625
  32 H6       -1.0956   -15.1213   -12.1851  H       1  <O>11       0.0618
  33 H7       -1.4662   -12.7336   -11.9958  H       1  <O>11       0.0618
  34 H8       -1.2898   -11.6482    -9.8385  H       1  <O>11       0.0624
  35 H9       -2.2232   -11.0568    -5.1017  H       1  <O>11       0.0621
  36 H10      -1.4179   -10.3584    -2.9184  H       1  <O>11       0.0646
  37 H11       5.4013    -9.3817    -3.7859  H       1  <O>11       0.0814
  38 H12       5.9543   -10.2918    -1.3519  H       1  <O>11       0.0633
  39 H13       3.7507   -11.4696    -0.4885  H       1  <O>11       0.0633
  40 H14       1.9165   -11.1947    -2.3509  H       1  <O>11       0.0814
@<TRIPOS>BOND
     1     1     2    2
     2     2     3    1
     3     3     4   ar
     4     4     5   ar
     5     5     6    1
     6     6     7    1
     7     7     8   ar
     8     8     9   ar
     9     9    10   ar
    10    10    11    2
    11    10    12   ar
    12    12    13   ar
    13    13    14   ar
    14    14    15   ar
    15    15    16   ar
    16    16    17   ar
    17     7    17   ar
    18    12    17   ar
    19     5    18   ar
    20    18    19   ar
    21    19    20   ar
    22     3    20   ar
    23    20    21    1
    24     2    22   am
    25    22    23   ar
    26    23    24   ar
    27    24    25   ar
    28    25    26   ar
    29    22    26   ar
    30     6    27    1
    31     6    28    1
    32     9    29    1
    33     4    30    1
    34    13    31    1
    35    14    32    1
    36    15    33    1
    37    16    34    1
    38    18    35    1
    39    19    36    1
    40    23    37    1
    41    24    38    1
    42    25    39    1
    43    26    40    1
@<TRIPOS>MOLECULE
mol64_1_22
 40 43 0 0 0
SMALL
USER_CHARGES
****
VDW energy = 6.63
@<TRIPOS>ATOM
   1 O1        3.4420    -9.1855    -5.2979  O.2     1  <O>11      -0.2666
   2 C1        2.8552    -9.8129    -4.4288  C.2     1  <O>11       0.2652
   3 C2        1.4620   -10.1610    -4.6040  C.ar    1  <O>11       0.0752
   4 C3        1.0120   -10.5683    -5.8623  C.ar    1  <O>11      -0.0431
   5 C4       -0.3367   -10.8946    -6.0422  C.ar    1  <O>11      -0.0406
   6 C5       -0.8169   -11.3202    -7.3712  C.3     1  <O>11       0.0171
   7 C6       -0.5725   -10.2360    -8.3571  C.ar    1  <O>11       0.0736
   8 N1        0.6337   -10.1966    -9.0655  N.ar    1  <O>11      -0.1750
   9 N2        0.9154    -9.1609    -9.8888  N.ar    1  <O>11      -0.2425
  10 C7        0.0071    -8.1659   -10.0292  C.ar    1  <O>11       0.2725
  11 O2        0.4010    -7.0716   -10.8226  O.2     1  <O>11      -0.2658
  12 C8       -1.2641    -8.1803    -9.4370  C.ar    1  <O>11       0.0496
  13 C9       -2.2363    -7.1714    -9.6282  C.ar    1  <O>11      -0.0487
  14 C10      -3.4711    -7.2317    -8.9815  C.ar    1  <O>11      -0.0610
  15 C11      -3.7570    -8.2930    -8.1301  C.ar    1  <O>11      -0.0611
  16 C12      -2.8069    -9.2946    -7.9238  C.ar    1  <O>11      -0.0521
  17 C13      -1.5530    -9.2539    -8.5771  C.ar    1  <O>11       0.0106
  18 C14      -1.2280   -10.8179    -4.9689  C.ar    1  <O>11      -0.0555
  19 C15      -0.7616   -10.4151    -3.7128  C.ar    1  <O>11      -0.0254
  20 C16       0.5820   -10.0891    -3.5231  C.ar    1  <O>11       0.1357
  21 F1        1.0413    -9.7017    -2.2909  F       1  <O>11      -0.2047
  22 N3        3.5160   -10.1860    -3.2900  N.ar    1  <O>11      -0.2903
  23 C17       4.7730    -9.8730    -3.1310  C.ar    1  <O>11       0.0127
  24 C18       5.0580   -10.3660    -1.8580  C.ar    1  <O>11      -0.0437
  25 C19       3.8660   -10.9920    -1.3960  C.ar    1  <O>11      -0.0437
  26 C20       2.8910   -10.8550    -2.3610  C.ar    1  <O>11       0.0127
  27 H1       -1.8854   -11.5308    -7.3201  H       1  <O>11       0.0377
  28 H2       -0.2837   -12.2193    -7.6796  H       1  <O>11       0.0377
  29 H3        1.7901    -9.1298   -10.3919  H       1  <O>11       0.1921
  30 H4        1.6706   -10.6282    -6.6546  H       1  <O>11       0.0629
  31 H5       -2.0295    -6.3786   -10.2556  H       1  <O>11       0.0625
  32 H6       -4.1714    -6.4894    -9.1349  H       1  <O>11       0.0618
  33 H7       -4.6701    -8.3402    -7.6515  H       1  <O>11       0.0618
  34 H8       -3.0224   -10.0762    -7.2853  H       1  <O>11       0.0624
  35 H9       -2.2232   -11.0568    -5.1017  H       1  <O>11       0.0621
  36 H10      -1.4179   -10.3584    -2.9184  H       1  <O>11       0.0646
  37 H11       5.4013    -9.3817    -3.7859  H       1  <O>11       0.0814
  38 H12       5.9543   -10.2918    -1.3519  H       1  <O>11       0.0633
  39 H13       3.7507   -11.4696    -0.4885  H       1  <O>11       0.0633
  40 H14       1.9165   -11.1947    -2.3509  H       1  <O>11       0.0814
@<TRIPOS>BOND
     1     1     2    2
     2     2     3    1
     3     3     4   ar
     4     4     5   ar
     5     5     6    1
     6     6     7    1
     7     7     8   ar
     8     8     9   ar
     9     9    10   ar
    10    10    11    2
    11    10    12   ar
    12    12    13   ar
    13    13    14   ar
    14    14    15   ar
    15    15    16   ar
    16    16    17   ar
    17     7    17   ar
    18    12    17   ar
    19     5    18   ar
    20    18    19   ar
    21    19    20   ar
    22     3    20   ar
    23    20    21    1
    24     2    22   am
    25    22    23   ar
    26    23    24   ar
    27    24    25   ar
    28    25    26   ar
    29    22    26   ar
    30     6    27    1
    31     6    28    1
    32     9    29    1
    33     4    30    1
    34    13    31    1
    35    14    32    1
    36    15    33    1
    37    16    34    1
    38    18    35    1
    39    19    36    1
    40    23    37    1
    41    24    38    1
    42    25    39    1
    43    26    40    1
@<TRIPOS>MOLECULE
mol64_1_23
 40 43 0 0 0
SMALL
USER_CHARGES
****
VDW energy = 7.67
@<TRIPOS>ATOM
   1 O1        3.4420    -9.1855    -5.2979  O.2     1  <O>11      -0.2666
   2 C1        2.8552    -9.8129    -4.4288  C.2     1  <O>11       0.2652
   3 C2        1.4620   -10.1610    -4.6040  C.ar    1  <O>11       0.0752
   4 C3        1.0120   -10.5683    -5.8623  C.ar    1  <O>11      -0.0431
   5 C4       -0.3367   -10.8946    -6.0422  C.ar    1  <O>11      -0.0406
   6 C5       -0.8169   -11.3202    -7.3712  C.3     1  <O>11       0.0171
   7 C6       -0.0893   -12.5451    -7.7922  C.ar    1  <O>11       0.0736
   8 N1        0.6730   -13.2583    -6.8602  N.ar    1  <O>11      -0.1750
   9 N2        1.4240   -14.3142    -7.2483  N.ar    1  <O>11      -0.2425
  10 C7        1.4189   -14.6817    -8.5521  C.ar    1  <O>11       0.2725
  11 O2        2.2952   -15.7247    -8.9077  O.2     1  <O>11      -0.2658
  12 C8        0.6059   -14.0864    -9.5276  C.ar    1  <O>11       0.0496
  13 C9        0.5552   -14.5056   -10.8771  C.ar    1  <O>11      -0.0487
  14 C10      -0.2528   -13.8467   -11.8042  C.ar    1  <O>11      -0.0610
  15 C11      -1.0190   -12.7572   -11.4058  C.ar    1  <O>11      -0.0611
  16 C12      -0.9765   -12.3248   -10.0793  C.ar    1  <O>11      -0.0521
  17 C13      -0.1692   -12.9855    -9.1241  C.ar    1  <O>11       0.0106
  18 C14      -1.2280   -10.8179    -4.9689  C.ar    1  <O>11      -0.0555
  19 C15      -0.7616   -10.4151    -3.7128  C.ar    1  <O>11      -0.0254
  20 C16       0.5820   -10.0891    -3.5231  C.ar    1  <O>11       0.1357
  21 F1        1.0413    -9.7017    -2.2909  F       1  <O>11      -0.2047
  22 N3        3.5160   -10.1860    -3.2900  N.ar    1  <O>11      -0.2903
  23 C17       4.7730    -9.8730    -3.1310  C.ar    1  <O>11       0.0127
  24 C18       5.0580   -10.3660    -1.8580  C.ar    1  <O>11      -0.0437
  25 C19       3.8660   -10.9920    -1.3960  C.ar    1  <O>11      -0.0437
  26 C20       2.8910   -10.8550    -2.3610  C.ar    1  <O>11       0.0127
  27 H1       -0.6367   -10.5240    -8.0938  H       1  <O>11       0.0377
  28 H2       -1.8852   -11.5307    -7.3215  H       1  <O>11       0.0377
  29 H3        1.9805   -14.8218    -6.5760  H       1  <O>11       0.1921
  30 H4        1.6706   -10.6282    -6.6546  H       1  <O>11       0.0629
  31 H5        1.1243   -15.3111   -11.1809  H       1  <O>11       0.0625
  32 H6       -0.2816   -14.1677   -12.7846  H       1  <O>11       0.0618
  33 H7       -1.6182   -12.2689   -12.0897  H       1  <O>11       0.0618
  34 H8       -1.5423   -11.5112    -9.7912  H       1  <O>11       0.0624
  35 H9       -2.2232   -11.0568    -5.1017  H       1  <O>11       0.0621
  36 H10      -1.4179   -10.3584    -2.9184  H       1  <O>11       0.0646
  37 H11       5.4013    -9.3817    -3.7859  H       1  <O>11       0.0814
  38 H12       5.9543   -10.2918    -1.3519  H       1  <O>11       0.0633
  39 H13       3.7507   -11.4696    -0.4885  H       1  <O>11       0.0633
  40 H14       1.9165   -11.1947    -2.3509  H       1  <O>11       0.0814
@<TRIPOS>BOND
     1     1     2    2
     2     2     3    1
     3     3     4   ar
     4     4     5   ar
     5     5     6    1
     6     6     7    1
     7     7     8   ar
     8     8     9   ar
     9     9    10   ar
    10    10    11    2
    11    10    12   ar
    12    12    13   ar
    13    13    14   ar
    14    14    15   ar
    15    15    16   ar
    16    16    17   ar
    17     7    17   ar
    18    12    17   ar
    19     5    18   ar
    20    18    19   ar
    21    19    20   ar
    22     3    20   ar
    23    20    21    1
    24     2    22   am
    25    22    23   ar
    26    23    24   ar
    27    24    25   ar
    28    25    26   ar
    29    22    26   ar
    30     6    27    1
    31     6    28    1
    32     9    29    1
    33     4    30    1
    34    13    31    1
    35    14    32    1
    36    15    33    1
    37    16    34    1
    38    18    35    1
    39    19    36    1
    40    23    37    1
    41    24    38    1
    42    25    39    1
    43    26    40    1
@<TRIPOS>MOLECULE
mol64_1_24
 40 43 0 0 0
SMALL
USER_CHARGES
****
VDW energy = 8.00
@<TRIPOS>ATOM
   1 O1        3.4420    -9.1855    -5.2979  O.2     1  <O>11      -0.2666
   2 C1        2.8552    -9.8129    -4.4288  C.2     1  <O>11       0.2652
   3 C2        1.4620   -10.1610    -4.6040  C.ar    1  <O>11       0.0752
   4 C3        0.5927    -9.2326    -5.1822  C.ar    1  <O>11      -0.0431
   5 C4       -0.7586    -9.5576    -5.3434  C.ar    1  <O>11      -0.0406
   6 C5       -1.6811    -8.5776    -5.9489  C.3     1  <O>11       0.0171
   7 C6       -1.2220    -8.2481    -7.3228  C.ar    1  <O>11       0.0736
   8 N1       -0.2456    -9.0382    -7.9401  N.ar    1  <O>11      -0.1750
   9 N2        0.2582    -8.6927    -9.1469  N.ar    1  <O>11      -0.2425
  10 C7       -0.2048    -7.5760    -9.7582  C.ar    1  <O>11       0.2725
  11 O2        0.4286    -7.2190   -10.9638  O.2     1  <O>11      -0.2658
  12 C8       -1.2515    -6.7887    -9.2568  C.ar    1  <O>11       0.0496
  13 C9       -1.7762    -5.6559    -9.9208  C.ar    1  <O>11      -0.0487
  14 C10      -2.7977    -4.8970    -9.3489  C.ar    1  <O>11      -0.0610
  15 C11      -3.3101    -5.2489    -8.1052  C.ar    1  <O>11      -0.0611
  16 C12      -2.7998    -6.3600    -7.4318  C.ar    1  <O>11      -0.0521
  17 C13      -1.7698    -7.1455    -7.9999  C.ar    1  <O>11       0.0106
  18 C14      -1.2358   -10.8050    -4.9328  C.ar    1  <O>11      -0.0555
  19 C15      -0.3521   -11.7274    -4.3617  C.ar    1  <O>11      -0.0254
  20 C16       0.9977   -11.4130    -4.1980  C.ar    1  <O>11       0.1357
  21 F1        1.8657   -12.3190    -3.6457  F       1  <O>11      -0.2047
  22 N3        3.5160   -10.1860    -3.2900  N.ar    1  <O>11      -0.2903
  23 C17       4.7730    -9.8730    -3.1310  C.ar    1  <O>11       0.0127
  24 C18       5.0580   -10.3660    -1.8580  C.ar    1  <O>11      -0.0437
  25 C19       3.8660   -10.9920    -1.3960  C.ar    1  <O>11      -0.0437
  26 C20       2.8910   -10.8550    -2.3610  C.ar    1  <O>11       0.0127
  27 H1       -1.6953    -7.6712    -5.3433  H       1  <O>11       0.0377
  28 H2       -2.6843    -9.0013    -5.9924  H       1  <O>11       0.0377
  29 H3        0.9691    -9.2590    -9.5864  H       1  <O>11       0.1921
  30 H4        0.9453    -8.3124    -5.4886  H       1  <O>11       0.0629
  31 H5       -1.3980    -5.3865   -10.8424  H       1  <O>11       0.0625
  32 H6       -3.1725    -4.0754    -9.8483  H       1  <O>11       0.0618
  33 H7       -4.0664    -4.6896    -7.6807  H       1  <O>11       0.0618
  34 H8       -3.1795    -6.6120    -6.5058  H       1  <O>11       0.0624
  35 H9       -2.2328   -11.0443    -5.0499  H       1  <O>11       0.0621
  36 H10      -0.7021   -12.6495    -4.0583  H       1  <O>11       0.0646
  37 H11       5.4013    -9.3817    -3.7859  H       1  <O>11       0.0814
  38 H12       5.9543   -10.2918    -1.3519  H       1  <O>11       0.0633
  39 H13       3.7507   -11.4696    -0.4885  H       1  <O>11       0.0633
  40 H14       1.9165   -11.1947    -2.3509  H       1  <O>11       0.0814
@<TRIPOS>BOND
     1     1     2    2
     2     2     3    1
     3     3     4   ar
     4     4     5   ar
     5     5     6    1
     6     6     7    1
     7     7     8   ar
     8     8     9   ar
     9     9    10   ar
    10    10    11    2
    11    10    12   ar
    12    12    13   ar
    13    13    14   ar
    14    14    15   ar
    15    15    16   ar
    16    16    17   ar
    17     7    17   ar
    18    12    17   ar
    19     5    18   ar
    20    18    19   ar
    21    19    20   ar
    22     3    20   ar
    23    20    21    1
    24     2    22   am
    25    22    23   ar
    26    23    24   ar
    27    24    25   ar
    28    25    26   ar
    29    22    26   ar
    30     6    27    1
    31     6    28    1
    32     9    29    1
    33     4    30    1
    34    13    31    1
    35    14    32    1
    36    15    33    1
    37    16    34    1
    38    18    35    1
    39    19    36    1
    40    23    37    1
    41    24    38    1
    42    25    39    1
    43    26    40    1
@<TRIPOS>MOLECULE
mol64_1_25
 40 43 0 0 0
SMALL
USER_CHARGES
****
VDW energy = 8.42
@<TRIPOS>ATOM
   1 O1        3.4420    -9.1855    -5.2979  O.2     1  <O>11      -0.2666
   2 C1        2.8552    -9.8129    -4.4288  C.2     1  <O>11       0.2652
   3 C2        1.4620   -10.1610    -4.6040  C.ar    1  <O>11       0.0752
   4 C3        0.5927    -9.2326    -5.1822  C.ar    1  <O>11      -0.0431
   5 C4       -0.7586    -9.5576    -5.3434  C.ar    1  <O>11      -0.0406
   6 C5       -1.6811    -8.5776    -5.9489  C.3     1  <O>11       0.0171
   7 C6       -1.7136    -8.7717    -7.4214  C.ar    1  <O>11       0.0736
   8 N1       -2.6460    -9.6475    -7.9889  N.ar    1  <O>11      -0.1750
   9 N2       -2.6216    -9.9150    -9.3146  N.ar    1  <O>11      -0.2425
  10 C7       -1.6886    -9.3128   -10.0905  C.ar    1  <O>11       0.2725
  11 O2       -1.6544    -9.7076   -11.4415  O.2     1  <O>11      -0.2658
  12 C8       -0.7871    -8.3472    -9.6196  C.ar    1  <O>11       0.0496
  13 C9        0.1491    -7.6744   -10.4384  C.ar    1  <O>11      -0.0487
  14 C10       1.0405    -6.7472    -9.8980  C.ar    1  <O>11      -0.0610
  15 C11       1.0193    -6.4781    -8.5342  C.ar    1  <O>11      -0.0611
  16 C12       0.1067    -7.1377    -7.7092  C.ar    1  <O>11      -0.0521
  17 C13      -0.8096    -8.0748    -8.2409  C.ar    1  <O>11       0.0106
  18 C14      -1.2358   -10.8050    -4.9328  C.ar    1  <O>11      -0.0555
  19 C15      -0.3521   -11.7274    -4.3617  C.ar    1  <O>11      -0.0254
  20 C16       0.9977   -11.4130    -4.1980  C.ar    1  <O>11       0.1357
  21 F1        1.8657   -12.3190    -3.6457  F       1  <O>11      -0.2047
  22 N3        3.5160   -10.1860    -3.2900  N.ar    1  <O>11      -0.2903
  23 C17       4.7730    -9.8730    -3.1310  C.ar    1  <O>11       0.0127
  24 C18       5.0580   -10.3660    -1.8580  C.ar    1  <O>11      -0.0437
  25 C19       3.8660   -10.9920    -1.3960  C.ar    1  <O>11      -0.0437
  26 C20       2.8910   -10.8550    -2.3610  C.ar    1  <O>11       0.0127
  27 H1       -1.3367    -7.5682    -5.7229  H       1  <O>11       0.0377
  28 H2       -2.6817    -8.7200    -5.5410  H       1  <O>11       0.0377
  29 H3       -3.2893   -10.5541    -9.7206  H       1  <O>11       0.1921
  30 H4        0.9453    -8.3124    -5.4886  H       1  <O>11       0.0629
  31 H5        0.1732    -7.8722   -11.4510  H       1  <O>11       0.0625
  32 H6        1.7150    -6.2617   -10.5099  H       1  <O>11       0.0618
  33 H7        1.6771    -5.7918    -8.1324  H       1  <O>11       0.0618
  34 H8        0.1005    -6.9387    -6.6966  H       1  <O>11       0.0624
  35 H9       -2.2328   -11.0443    -5.0499  H       1  <O>11       0.0621
  36 H10      -0.7021   -12.6495    -4.0583  H       1  <O>11       0.0646
  37 H11       5.4013    -9.3817    -3.7859  H       1  <O>11       0.0814
  38 H12       5.9543   -10.2918    -1.3519  H       1  <O>11       0.0633
  39 H13       3.7507   -11.4696    -0.4885  H       1  <O>11       0.0633
  40 H14       1.9165   -11.1947    -2.3509  H       1  <O>11       0.0814
@<TRIPOS>BOND
     1     1     2    2
     2     2     3    1
     3     3     4   ar
     4     4     5   ar
     5     5     6    1
     6     6     7    1
     7     7     8   ar
     8     8     9   ar
     9     9    10   ar
    10    10    11    2
    11    10    12   ar
    12    12    13   ar
    13    13    14   ar
    14    14    15   ar
    15    15    16   ar
    16    16    17   ar
    17     7    17   ar
    18    12    17   ar
    19     5    18   ar
    20    18    19   ar
    21    19    20   ar
    22     3    20   ar
    23    20    21    1
    24     2    22   am
    25    22    23   ar
    26    23    24   ar
    27    24    25   ar
    28    25    26   ar
    29    22    26   ar
    30     6    27    1
    31     6    28    1
    32     9    29    1
    33     4    30    1
    34    13    31    1
    35    14    32    1
    36    15    33    1
    37    16    34    1
    38    18    35    1
    39    19    36    1
    40    23    37    1
    41    24    38    1
    42    25    39    1
    43    26    40    1
@<TRIPOS>MOLECULE
mol64_1_26
 40 43 0 0 0
SMALL
USER_CHARGES
****
VDW energy = 10.10
@<TRIPOS>ATOM
   1 O1        3.4420    -9.1855    -5.2979  O.2     1  <O>11      -0.2666
   2 C1        2.8552    -9.8129    -4.4288  C.2     1  <O>11       0.2652
   3 C2        1.4620   -10.1610    -4.6040  C.ar    1  <O>11       0.0752
   4 C3        1.0120   -10.5683    -5.8623  C.ar    1  <O>11      -0.0431
   5 C4       -0.3367   -10.8946    -6.0422  C.ar    1  <O>11      -0.0406
   6 C5       -0.8169   -11.3202    -7.3712  C.3     1  <O>11       0.0171
   7 C6       -0.5725   -10.2360    -8.3571  C.ar    1  <O>11       0.0736
   8 N1        0.2657    -9.1661    -8.0235  N.ar    1  <O>11      -0.1750
   9 N2        0.4167    -8.1203    -8.8679  N.ar    1  <O>11      -0.2425
  10 C7       -0.2454    -8.1276   -10.0497  C.ar    1  <O>11       0.2725
  11 O2       -0.1229    -6.9678   -10.8383  O.2     1  <O>11      -0.2658
  12 C8       -1.0209    -9.2045   -10.5032  C.ar    1  <O>11       0.0496
  13 C9       -1.6659    -9.2394   -11.7610  C.ar    1  <O>11      -0.0487
  14 C10      -2.4504   -10.3303   -12.1362  C.ar    1  <O>11      -0.0610
  15 C11      -2.6107   -11.4017   -11.2648  C.ar    1  <O>11      -0.0611
  16 C12      -1.9871   -11.3818   -10.0160  C.ar    1  <O>11      -0.0521
  17 C13      -1.1819   -10.2878    -9.6221  C.ar    1  <O>11       0.0106
  18 C14      -1.2280   -10.8179    -4.9689  C.ar    1  <O>11      -0.0555
  19 C15      -0.7616   -10.4151    -3.7128  C.ar    1  <O>11      -0.0254
  20 C16       0.5820   -10.0891    -3.5231  C.ar    1  <O>11       0.1357
  21 F1        1.0413    -9.7017    -2.2909  F       1  <O>11      -0.2047
  22 N3        3.5160   -10.1860    -3.2900  N.ar    1  <O>11      -0.2903
  23 C17       4.7730    -9.8730    -3.1310  C.ar    1  <O>11       0.0127
  24 C18       5.0580   -10.3660    -1.8580  C.ar    1  <O>11      -0.0437
  25 C19       3.8660   -10.9920    -1.3960  C.ar    1  <O>11      -0.0437
  26 C20       2.8910   -10.8550    -2.3610  C.ar    1  <O>11       0.0127
  27 H1       -1.8854   -11.5308    -7.3201  H       1  <O>11       0.0377
  28 H2       -0.2837   -12.2193    -7.6796  H       1  <O>11       0.0377
  29 H3        1.0147    -7.3451    -8.6215  H       1  <O>11       0.1921
  30 H4        1.6706   -10.6282    -6.6546  H       1  <O>11       0.0629
  31 H5       -1.5547    -8.4459   -12.4114  H       1  <O>11       0.0625
  32 H6       -2.9112   -10.3421   -13.0595  H       1  <O>11       0.0618
  33 H7       -3.1897   -12.2103   -11.5406  H       1  <O>11       0.0618
  34 H8       -2.1156   -12.1770    -9.3708  H       1  <O>11       0.0624
  35 H9       -2.2232   -11.0568    -5.1017  H       1  <O>11       0.0621
  36 H10      -1.4179   -10.3584    -2.9184  H       1  <O>11       0.0646
  37 H11       5.4013    -9.3817    -3.7859  H       1  <O>11       0.0814
  38 H12       5.9543   -10.2918    -1.3519  H       1  <O>11       0.0633
  39 H13       3.7507   -11.4696    -0.4885  H       1  <O>11       0.0633
  40 H14       1.9165   -11.1947    -2.3509  H       1  <O>11       0.0814
@<TRIPOS>BOND
     1     1     2    2
     2     2     3    1
     3     3     4   ar
     4     4     5   ar
     5     5     6    1
     6     6     7    1
     7     7     8   ar
     8     8     9   ar
     9     9    10   ar
    10    10    11    2
    11    10    12   ar
    12    12    13   ar
    13    13    14   ar
    14    14    15   ar
    15    15    16   ar
    16    16    17   ar
    17     7    17   ar
    18    12    17   ar
    19     5    18   ar
    20    18    19   ar
    21    19    20   ar
    22     3    20   ar
    23    20    21    1
    24     2    22   am
    25    22    23   ar
    26    23    24   ar
    27    24    25   ar
    28    25    26   ar
    29    22    26   ar
    30     6    27    1
    31     6    28    1
    32     9    29    1
    33     4    30    1
    34    13    31    1
    35    14    32    1
    36    15    33    1
    37    16    34    1
    38    18    35    1
    39    19    36    1
    40    23    37    1
    41    24    38    1
    42    25    39    1
    43    26    40    1
@<TRIPOS>MOLECULE
mol64_1_27
 40 43 0 0 0
SMALL
USER_CHARGES
****
VDW energy = 11.71
@<TRIPOS>ATOM
   1 O1        3.4420    -9.1855    -5.2979  O.2     1  <O>11      -0.2666
   2 C1        2.8552    -9.8129    -4.4288  C.2     1  <O>11       0.2652
   3 C2        1.4620   -10.1610    -4.6040  C.ar    1  <O>11       0.0752
   4 C3        1.0120   -10.5683    -5.8623  C.ar    1  <O>11      -0.0431
   5 C4       -0.3367   -10.8946    -6.0422  C.ar    1  <O>11      -0.0406
   6 C5       -0.8169   -11.3202    -7.3712  C.3     1  <O>11       0.0171
   7 C6       -0.0893   -12.5451    -7.7922  C.ar    1  <O>11       0.0736
   8 N1       -0.5990   -13.8064    -7.4640  N.ar    1  <O>11      -0.1750
   9 N2        0.1021   -14.9278    -7.7480  N.ar    1  <O>11      -0.2425
  10 C7        1.3014   -14.8149    -8.3675  C.ar    1  <O>11       0.2725
  11 O2        2.0239   -16.0100    -8.5465  O.2     1  <O>11      -0.2658
  12 C8        1.8343   -13.5995    -8.8211  C.ar    1  <O>11       0.0496
  13 C9        3.0585   -13.4851    -9.5196  C.ar    1  <O>11      -0.0487
  14 C10       3.5469   -12.2392    -9.9138  C.ar    1  <O>11      -0.0610
  15 C11       2.8290   -11.0866    -9.6154  C.ar    1  <O>11      -0.0611
  16 C12       1.6219   -11.1795    -8.9205  C.ar    1  <O>11      -0.0521
  17 C13       1.1076   -12.4347    -8.5199  C.ar    1  <O>11       0.0106
  18 C14      -1.2280   -10.8179    -4.9689  C.ar    1  <O>11      -0.0555
  19 C15      -0.7616   -10.4151    -3.7128  C.ar    1  <O>11      -0.0254
  20 C16       0.5820   -10.0891    -3.5231  C.ar    1  <O>11       0.1357
  21 F1        1.0413    -9.7017    -2.2909  F       1  <O>11      -0.2047
  22 N3        3.5160   -10.1860    -3.2900  N.ar    1  <O>11      -0.2903
  23 C17       4.7730    -9.8730    -3.1310  C.ar    1  <O>11       0.0127
  24 C18       5.0580   -10.3660    -1.8580  C.ar    1  <O>11      -0.0437
  25 C19       3.8660   -10.9920    -1.3960  C.ar    1  <O>11      -0.0437
  26 C20       2.8910   -10.8550    -2.3610  C.ar    1  <O>11       0.0127
  27 H1       -0.6367   -10.5240    -8.0938  H       1  <O>11       0.0377
  28 H2       -1.8852   -11.5307    -7.3215  H       1  <O>11       0.0377
  29 H3       -0.2631   -15.8363    -7.5022  H       1  <O>11       0.1921
  30 H4        1.6706   -10.6282    -6.6546  H       1  <O>11       0.0629
  31 H5        3.5987   -14.3361    -9.7410  H       1  <O>11       0.0625
  32 H6        4.4402   -12.1732   -10.4265  H       1  <O>11       0.0618
  33 H7        3.1879   -10.1640    -9.9070  H       1  <O>11       0.0618
  34 H8        1.0971   -10.3197    -8.6958  H       1  <O>11       0.0624
  35 H9       -2.2232   -11.0568    -5.1017  H       1  <O>11       0.0621
  36 H10      -1.4179   -10.3584    -2.9184  H       1  <O>11       0.0646
  37 H11       5.4013    -9.3817    -3.7859  H       1  <O>11       0.0814
  38 H12       5.9543   -10.2918    -1.3519  H       1  <O>11       0.0633
  39 H13       3.7507   -11.4696    -0.4885  H       1  <O>11       0.0633
  40 H14       1.9165   -11.1947    -2.3509  H       1  <O>11       0.0814
@<TRIPOS>BOND
     1     1     2    2
     2     2     3    1
     3     3     4   ar
     4     4     5   ar
     5     5     6    1
     6     6     7    1
     7     7     8   ar
     8     8     9   ar
     9     9    10   ar
    10    10    11    2
    11    10    12   ar
    12    12    13   ar
    13    13    14   ar
    14    14    15   ar
    15    15    16   ar
    16    16    17   ar
    17     7    17   ar
    18    12    17   ar
    19     5    18   ar
    20    18    19   ar
    21    19    20   ar
    22     3    20   ar
    23    20    21    1
    24     2    22   am
    25    22    23   ar
    26    23    24   ar
    27    24    25   ar
    28    25    26   ar
    29    22    26   ar
    30     6    27    1
    31     6    28    1
    32     9    29    1
    33     4    30    1
    34    13    31    1
    35    14    32    1
    36    15    33    1
    37    16    34    1
    38    18    35    1
    39    19    36    1
    40    23    37    1
    41    24    38    1
    42    25    39    1
    43    26    40    1
@<TRIPOS>MOLECULE
mol64_1_28
 40 43 0 0 0
SMALL
USER_CHARGES
****
VDW energy = 12.28
@<TRIPOS>ATOM
   1 O1        3.4420    -9.1855    -5.2979  O.2     1  <O>11      -0.2666
   2 C1        2.8552    -9.8129    -4.4288  C.2     1  <O>11       0.2652
   3 C2        1.4620   -10.1610    -4.6040  C.ar    1  <O>11       0.0752
   4 C3        0.5927    -9.2326    -5.1822  C.ar    1  <O>11      -0.0431
   5 C4       -0.7586    -9.5576    -5.3434  C.ar    1  <O>11      -0.0406
   6 C5       -1.6811    -8.5776    -5.9489  C.3     1  <O>11       0.0171
   7 C6       -1.2220    -8.2481    -7.3228  C.ar    1  <O>11       0.0736
   8 N1       -1.6810    -8.9996    -8.4105  N.ar    1  <O>11      -0.1750
   9 N2       -1.1942    -8.7808    -9.6534  N.ar    1  <O>11      -0.2425
  10 C7       -0.2634    -7.8134    -9.8347  C.ar    1  <O>11       0.2725
  11 O2        0.2731    -7.7019   -11.1316  O.2     1  <O>11      -0.2658
  12 C8        0.1726    -6.9496    -8.8195  C.ar    1  <O>11       0.0496
  13 C9        1.1006    -5.9014    -9.0183  C.ar    1  <O>11      -0.0487
  14 C10       1.5167    -5.0990    -7.9556  C.ar    1  <O>11      -0.0610
  15 C11       1.0210    -5.3292    -6.6772  C.ar    1  <O>11      -0.0611
  16 C12       0.1093    -6.3638    -6.4606  C.ar    1  <O>11      -0.0521
  17 C13      -0.3296    -7.1822    -7.5274  C.ar    1  <O>11       0.0106
  18 C14      -1.2358   -10.8050    -4.9328  C.ar    1  <O>11      -0.0555
  19 C15      -0.3521   -11.7274    -4.3617  C.ar    1  <O>11      -0.0254
  20 C16       0.9977   -11.4130    -4.1980  C.ar    1  <O>11       0.1357
  21 F1        1.8657   -12.3190    -3.6457  F       1  <O>11      -0.2047
  22 N3        3.5160   -10.1860    -3.2900  N.ar    1  <O>11      -0.2903
  23 C17       4.7730    -9.8730    -3.1310  C.ar    1  <O>11       0.0127
  24 C18       5.0580   -10.3660    -1.8580  C.ar    1  <O>11      -0.0437
  25 C19       3.8660   -10.9920    -1.3960  C.ar    1  <O>11      -0.0437
  26 C20       2.8910   -10.8550    -2.3610  C.ar    1  <O>11       0.0127
  27 H1       -1.6953    -7.6712    -5.3433  H       1  <O>11       0.0377
  28 H2       -2.6843    -9.0013    -5.9924  H       1  <O>11       0.0377
  29 H3       -1.5199    -9.3302   -10.4352  H       1  <O>11       0.1921
  30 H4        0.9453    -8.3124    -5.4886  H       1  <O>11       0.0629
  31 H5        1.4758    -5.7273    -9.9638  H       1  <O>11       0.0625
  32 H6        2.1916    -4.3354    -8.1182  H       1  <O>11       0.0618
  33 H7        1.3266    -4.7362    -5.8898  H       1  <O>11       0.0618
  34 H8       -0.2497    -6.5341    -5.5081  H       1  <O>11       0.0624
  35 H9       -2.2328   -11.0443    -5.0499  H       1  <O>11       0.0621
  36 H10      -0.7021   -12.6495    -4.0583  H       1  <O>11       0.0646
  37 H11       5.4013    -9.3817    -3.7859  H       1  <O>11       0.0814
  38 H12       5.9543   -10.2918    -1.3519  H       1  <O>11       0.0633
  39 H13       3.7507   -11.4696    -0.4885  H       1  <O>11       0.0633
  40 H14       1.9165   -11.1947    -2.3509  H       1  <O>11       0.0814
@<TRIPOS>BOND
     1     1     2    2
     2     2     3    1
     3     3     4   ar
     4     4     5   ar
     5     5     6    1
     6     6     7    1
     7     7     8   ar
     8     8     9   ar
     9     9    10   ar
    10    10    11    2
    11    10    12   ar
    12    12    13   ar
    13    13    14   ar
    14    14    15   ar
    15    15    16   ar
    16    16    17   ar
    17     7    17   ar
    18    12    17   ar
    19     5    18   ar
    20    18    19   ar
    21    19    20   ar
    22     3    20   ar
    23    20    21    1
    24     2    22   am
    25    22    23   ar
    26    23    24   ar
    27    24    25   ar
    28    25    26   ar
    29    22    26   ar
    30     6    27    1
    31     6    28    1
    32     9    29    1
    33     4    30    1
    34    13    31    1
    35    14    32    1
    36    15    33    1
    37    16    34    1
    38    18    35    1
    39    19    36    1
    40    23    37    1
    41    24    38    1
    42    25    39    1
    43    26    40    1
@<TRIPOS>MOLECULE
mol64_1_29
 40 43 0 0 0
SMALL
USER_CHARGES
****
VDW energy = 12.78
@<TRIPOS>ATOM
   1 O1        3.4420    -9.1855    -5.2979  O.2     1  <O>11      -0.2666
   2 C1        2.8552    -9.8129    -4.4288  C.2     1  <O>11       0.2652
   3 C2        1.4620   -10.1610    -4.6040  C.ar    1  <O>11       0.0752
   4 C3        1.0120   -10.5683    -5.8623  C.ar    1  <O>11      -0.0431
   5 C4       -0.3367   -10.8946    -6.0422  C.ar    1  <O>11      -0.0406
   6 C5       -0.8169   -11.3202    -7.3712  C.3     1  <O>11       0.0171
   7 C6       -0.5725   -10.2360    -8.3571  C.ar    1  <O>11       0.0736
   8 N1        0.2657    -9.1661    -8.0235  N.ar    1  <O>11      -0.1750
   9 N2        0.4167    -8.1203    -8.8679  N.ar    1  <O>11      -0.2425
  10 C7       -0.2454    -8.1276   -10.0497  C.ar    1  <O>11       0.2725
  11 O2       -0.1229    -6.9678   -10.8383  O.2     1  <O>11      -0.2658
  12 C8       -1.0209    -9.2045   -10.5032  C.ar    1  <O>11       0.0496
  13 C9       -1.6659    -9.2394   -11.7610  C.ar    1  <O>11      -0.0487
  14 C10      -2.4504   -10.3303   -12.1362  C.ar    1  <O>11      -0.0610
  15 C11      -2.6107   -11.4017   -11.2648  C.ar    1  <O>11      -0.0611
  16 C12      -1.9871   -11.3818   -10.0160  C.ar    1  <O>11      -0.0521
  17 C13      -1.1819   -10.2878    -9.6221  C.ar    1  <O>11       0.0106
  18 C14      -1.2280   -10.8179    -4.9689  C.ar    1  <O>11      -0.0555
  19 C15      -0.7616   -10.4151    -3.7128  C.ar    1  <O>11      -0.0254
  20 C16       0.5820   -10.0891    -3.5231  C.ar    1  <O>11       0.1357
  21 F1        1.0413    -9.7017    -2.2909  F       1  <O>11      -0.2047
  22 N3        3.5160   -10.1860    -3.2900  N.ar    1  <O>11      -0.2903
  23 C17       2.8907   -10.8560    -2.3608  C.ar    1  <O>11       0.0127
  24 C18       3.8914   -11.0888    -1.4179  C.ar    1  <O>11      -0.0437
  25 C19       5.0635   -10.4511    -1.9137  C.ar    1  <O>11      -0.0437
  26 C20       4.7722    -9.8730    -3.1308  C.ar    1  <O>11       0.0127
  27 H1       -1.8854   -11.5308    -7.3201  H       1  <O>11       0.0377
  28 H2       -0.2837   -12.2193    -7.6796  H       1  <O>11       0.0377
  29 H3        1.0147    -7.3451    -8.6215  H       1  <O>11       0.1921
  30 H4        1.6706   -10.6282    -6.6546  H       1  <O>11       0.0629
  31 H5       -1.5547    -8.4459   -12.4114  H       1  <O>11       0.0625
  32 H6       -2.9112   -10.3421   -13.0595  H       1  <O>11       0.0618
  33 H7       -3.1897   -12.2103   -11.5406  H       1  <O>11       0.0618
  34 H8       -2.1156   -12.1770    -9.3708  H       1  <O>11       0.0624
  35 H9       -2.2232   -11.0568    -5.1017  H       1  <O>11       0.0621
  36 H10      -1.4179   -10.3584    -2.9184  H       1  <O>11       0.0646
  37 H11       1.8998   -11.1429    -2.3311  H       1  <O>11       0.0814
  38 H12       3.8004   -11.6179    -0.5365  H       1  <O>11       0.0633
  39 H13       5.9800   -10.4257    -1.4401  H       1  <O>11       0.0633
  40 H14       5.3896    -9.3314    -3.7558  H       1  <O>11       0.0814
@<TRIPOS>BOND
     1     1     2    2
     2     2     3    1
     3     3     4   ar
     4     4     5   ar
     5     5     6    1
     6     6     7    1
     7     7     8   ar
     8     8     9   ar
     9     9    10   ar
    10    10    11    2
    11    10    12   ar
    12    12    13   ar
    13    13    14   ar
    14    14    15   ar
    15    15    16   ar
    16    16    17   ar
    17     7    17   ar
    18    12    17   ar
    19     5    18   ar
    20    18    19   ar
    21    19    20   ar
    22     3    20   ar
    23    20    21    1
    24     2    22   am
    25    22    23   ar
    26    23    24   ar
    27    24    25   ar
    28    25    26   ar
    29    22    26   ar
    30     6    27    1
    31     6    28    1
    32     9    29    1
    33     4    30    1
    34    13    31    1
    35    14    32    1
    36    15    33    1
    37    16    34    1
    38    18    35    1
    39    19    36    1
    40    23    37    1
    41    24    38    1
    42    25    39    1
    43    26    40    1
@<TRIPOS>MOLECULE
mol64_1_30
 40 43 0 0 0
SMALL
USER_CHARGES
****
VDW energy = 14.67
@<TRIPOS>ATOM
   1 O1        3.4420    -9.1855    -5.2979  O.2     1  <O>11      -0.2666
   2 C1        2.8552    -9.8129    -4.4288  C.2     1  <O>11       0.2652
   3 C2        1.4620   -10.1610    -4.6040  C.ar    1  <O>11       0.0752
   4 C3        1.0120   -10.5683    -5.8623  C.ar    1  <O>11      -0.0431
   5 C4       -0.3367   -10.8946    -6.0422  C.ar    1  <O>11      -0.0406
   6 C5       -0.8169   -11.3202    -7.3712  C.3     1  <O>11       0.0171
   7 C6       -0.5725   -10.2360    -8.3571  C.ar    1  <O>11       0.0736
   8 N1       -1.5493    -9.2576    -8.5741  N.ar    1  <O>11      -0.1750
   9 N2       -1.3873    -8.3251    -9.5405  N.ar    1  <O>11      -0.2425
  10 C7       -0.2585    -8.3424   -10.2891  C.ar    1  <O>11       0.2725
  11 O2       -0.1951    -7.4080   -11.3403  O.2     1  <O>11      -0.2658
  12 C8        0.8111    -9.2221   -10.0683  C.ar    1  <O>11       0.0496
  13 C9        2.0147    -9.2047   -10.8103  C.ar    1  <O>11      -0.0487
  14 C10       3.0269   -10.1314   -10.5595  C.ar    1  <O>11      -0.0610
  15 C11       2.8566   -11.0939    -9.5707  C.ar    1  <O>11      -0.0611
  16 C12       1.6723   -11.1308    -8.8327  C.ar    1  <O>11      -0.0521
  17 C13       0.6388   -10.1944    -9.0679  C.ar    1  <O>11       0.0106
  18 C14      -1.2280   -10.8179    -4.9689  C.ar    1  <O>11      -0.0555
  19 C15      -0.7616   -10.4151    -3.7128  C.ar    1  <O>11      -0.0254
  20 C16       0.5820   -10.0891    -3.5231  C.ar    1  <O>11       0.1357
  21 F1        1.0413    -9.7017    -2.2909  F       1  <O>11      -0.2047
  22 N3        3.5160   -10.1860    -3.2900  N.ar    1  <O>11      -0.2903
  23 C17       4.7730    -9.8730    -3.1310  C.ar    1  <O>11       0.0127
  24 C18       5.0580   -10.3660    -1.8580  C.ar    1  <O>11      -0.0437
  25 C19       3.8660   -10.9920    -1.3960  C.ar    1  <O>11      -0.0437
  26 C20       2.8910   -10.8550    -2.3610  C.ar    1  <O>11       0.0127
  27 H1       -1.8854   -11.5308    -7.3201  H       1  <O>11       0.0377
  28 H2       -0.2837   -12.2193    -7.6796  H       1  <O>11       0.0377
  29 H3       -2.0973    -7.6257    -9.7016  H       1  <O>11       0.1921
  30 H4        1.6706   -10.6282    -6.6546  H       1  <O>11       0.0629
  31 H5        2.1464    -8.4956   -11.5485  H       1  <O>11       0.0625
  32 H6        3.9011   -10.1027   -11.1072  H       1  <O>11       0.0618
  33 H7        3.6044   -11.7798    -9.3827  H       1  <O>11       0.0618
  34 H8        1.5491   -11.8520    -8.1048  H       1  <O>11       0.0624
  35 H9       -2.2232   -11.0568    -5.1017  H       1  <O>11       0.0621
  36 H10      -1.4179   -10.3584    -2.9184  H       1  <O>11       0.0646
  37 H11       5.4013    -9.3817    -3.7859  H       1  <O>11       0.0814
  38 H12       5.9543   -10.2918    -1.3519  H       1  <O>11       0.0633
  39 H13       3.7507   -11.4696    -0.4885  H       1  <O>11       0.0633
  40 H14       1.9165   -11.1947    -2.3509  H       1  <O>11       0.0814
@<TRIPOS>BOND
     1     1     2    2
     2     2     3    1
     3     3     4   ar
     4     4     5   ar
     5     5     6    1
     6     6     7    1
     7     7     8   ar
     8     8     9   ar
     9     9    10   ar
    10    10    11    2
    11    10    12   ar
    12    12    13   ar
    13    13    14   ar
    14    14    15   ar
    15    15    16   ar
    16    16    17   ar
    17     7    17   ar
    18    12    17   ar
    19     5    18   ar
    20    18    19   ar
    21    19    20   ar
    22     3    20   ar
    23    20    21    1
    24     2    22   am
    25    22    23   ar
    26    23    24   ar
    27    24    25   ar
    28    25    26   ar
    29    22    26   ar
    30     6    27    1
    31     6    28    1
    32     9    29    1
    33     4    30    1
    34    13    31    1
    35    14    32    1
    36    15    33    1
    37    16    34    1
    38    18    35    1
    39    19    36    1
    40    23    37    1
    41    24    38    1
    42    25    39    1
    43    26    40    1
