@<TRIPOS>MOLECULE
mol71_1_1
 45 47 0 0 0
SMALL
USER_CHARGES
****
VDW energy = -204.37
@<TRIPOS>ATOM
   1 N1        2.8495    -9.8143    -4.4295  N.pl3   1  <O>11      -0.3580
   2 C1        1.4617   -10.1611    -4.6036  C.ar    1  <O>11       0.0246
   3 C2        0.8050   -10.8783    -3.6012  C.ar    1  <O>11      -0.0403
   4 C3       -0.5391   -11.2290    -3.7692  C.ar    1  <O>11      -0.0479
   5 C4       -1.2224   -10.8607    -4.9311  C.ar    1  <O>11       0.0367
   6 C5       -2.6120   -11.2220    -5.1120  C.2     1  <O>11       0.2426
   7 O1       -3.4937   -10.4689    -4.7262  O.2     1  <O>11      -0.2703
   8 N2       -2.9381   -12.4070    -5.7136  N.am    1  <O>11      -0.3259
   9 C6       -4.3384   -12.7718    -5.8949  C.3     1  <O>11      -0.0151
  10 N3       -5.0092   -12.8467    -4.5660  N.4     1  <O>11       0.3901
  11 C7       -5.0326   -11.7151    -6.7577  C.3     1  <O>11      -0.0439
  12 C8       -4.3489   -11.6388    -8.1130  C.3     1  <O>11       0.0054
  13 C9       -5.0232   -10.6133    -8.9496  C.ar    1  <O>11       0.1103
  14 N4       -6.0636    -9.9389    -8.4456  N.ar    1  <O>11      -0.2337
  15 C10      -6.6848    -9.0104    -9.1879  C.ar    1  <O>11       0.0781
  16 C11      -7.7632    -8.3211    -8.6462  C.ar    1  <O>11      -0.0355
  17 C12      -8.4554    -7.3426    -9.3658  C.ar    1  <O>11      -0.0597
  18 C13      -8.0656    -7.0345   -10.6627  C.ar    1  <O>11      -0.0609
  19 C14      -6.9883    -7.7087   -11.2304  C.ar    1  <O>11      -0.0474
  20 C15      -6.2953    -8.7005   -10.4919  C.ar    1  <O>11       0.0647
  21 C16      -5.2071    -9.4371   -10.9577  C.ar    1  <O>11       0.2592
  22 O2       -4.7858    -9.1550   -12.2709  O.2     1  <O>11      -0.2672
  23 N5       -4.5645   -10.3733   -10.2322  N.ar    1  <O>11      -0.3103
  24 C17      -0.5527   -10.1366    -5.9237  C.ar    1  <O>11      -0.0479
  25 C18       0.7874    -9.7806    -5.7650  C.ar    1  <O>11      -0.0403
  26 H1        3.3392    -9.2907    -5.1550  H       1  <O>11       0.1423
  27 H2        3.3420   -10.0924    -3.5807  H       1  <O>11       0.1423
  28 H3       -2.2017   -13.0359    -6.0351  H       1  <O>11       0.1470
  29 H4       -4.4003   -13.7413    -6.3885  H       1  <O>11       0.0282
  30 H5       -5.9887   -13.1013    -4.6932  H       1  <O>11      -0.0873
  31 H6       -4.9503   -11.9386    -4.1037  H       1  <O>11      -0.0873
  32 H7       -4.5467   -13.5509    -3.9902  H       1  <O>11      -0.0873
  33 H8       -4.9705   -10.7452    -6.2631  H       1  <O>11       0.0268
  34 H9       -6.0789   -11.9874    -6.8932  H       1  <O>11       0.0268
  35 H10      -4.4118   -12.6094    -8.6056  H       1  <O>11       0.0343
  36 H11      -3.3025   -11.3666    -7.9775  H       1  <O>11       0.0343
  37 H12      -3.7747   -10.9039   -10.5711  H       1  <O>11       0.1700
  38 H13       1.3082   -11.1481    -2.7415  H       1  <O>11       0.0636
  39 H14      -1.0275   -11.7615    -3.0324  H       1  <O>11       0.0626
  40 H15      -8.0623    -8.5383    -7.6826  H       1  <O>11       0.0639
  41 H16      -9.2536    -6.8506    -8.9347  H       1  <O>11       0.0618
  42 H17      -8.5701    -6.3124   -11.2005  H       1  <O>11       0.0618
  43 H18      -6.6926    -7.4855   -12.1937  H       1  <O>11       0.0626
  44 H19      -1.0552    -9.8628    -6.7825  H       1  <O>11       0.0626
  45 H20       1.2744    -9.2420    -6.4983  H       1  <O>11       0.0636
@<TRIPOS>BOND
     1     1     2    1
     2     2     3   ar
     3     3     4   ar
     4     4     5   ar
     5     5     6    1
     6     6     7    2
     7     6     8   am
     8     8     9    1
     9     9    10    1
    10     9    11    1
    11    11    12    1
    12    12    13    1
    13    13    14   ar
    14    14    15   ar
    15    15    16   ar
    16    16    17   ar
    17    17    18   ar
    18    18    19   ar
    19    19    20   ar
    20    15    20   ar
    21    20    21   ar
    22    21    22    2
    23    21    23   ar
    24    13    23   ar
    25     5    24   ar
    26    24    25   ar
    27     2    25   ar
    28     1    26    1
    29     1    27    1
    30     8    28    1
    31     9    29    1
    32    10    30    1
    33    10    31    1
    34    10    32    1
    35    11    33    1
    36    11    34    1
    37    12    35    1
    38    12    36    1
    39    23    37    1
    40     3    38    1
    41     4    39    1
    42    16    40    1
    43    17    41    1
    44    18    42    1
    45    19    43    1
    46    24    44    1
    47    25    45    1
@<TRIPOS>MOLECULE
mol71_1_2
 45 47 0 0 0
SMALL
USER_CHARGES
****
VDW energy = -204.15
@<TRIPOS>ATOM
   1 N1        2.8495    -9.8143    -4.4295  N.pl3   1  <O>11      -0.3580
   2 C1        1.4617   -10.1611    -4.6036  C.ar    1  <O>11       0.0246
   3 C2        0.8050   -10.8783    -3.6012  C.ar    1  <O>11      -0.0403
   4 C3       -0.5391   -11.2290    -3.7692  C.ar    1  <O>11      -0.0479
   5 C4       -1.2224   -10.8607    -4.9311  C.ar    1  <O>11       0.0367
   6 C5       -2.6120   -11.2220    -5.1120  C.2     1  <O>11       0.2426
   7 O1       -3.4937   -10.4689    -4.7262  O.2     1  <O>11      -0.2703
   8 N2       -2.9381   -12.4070    -5.7136  N.am    1  <O>11      -0.3259
   9 C6       -4.3384   -12.7718    -5.8949  C.3     1  <O>11      -0.0151
  10 N3       -5.0157   -11.7437    -6.7352  N.4     1  <O>11       0.3901
  11 C7       -4.4244   -14.1340    -6.5876  C.3     1  <O>11      -0.0439
  12 C8       -5.8836   -14.5151    -6.7763  C.3     1  <O>11       0.0054
  13 C9       -5.9662   -15.8370    -7.4486  C.ar    1  <O>11       0.1103
  14 N4       -4.8367   -16.4756    -7.7766  N.ar    1  <O>11      -0.2337
  15 C10      -4.8932   -17.6695    -8.3853  C.ar    1  <O>11       0.0781
  16 C11      -3.7089   -18.3164    -8.7177  C.ar    1  <O>11      -0.0355
  17 C12      -3.6968   -19.5612    -9.3541  C.ar    1  <O>11      -0.0597
  18 C13      -4.8959   -20.1871    -9.6690  C.ar    1  <O>11      -0.0609
  19 C14      -6.0974   -19.5624    -9.3471  C.ar    1  <O>11      -0.0474
  20 C15      -6.0974   -18.2993    -8.7038  C.ar    1  <O>11       0.0647
  21 C16      -7.2359   -17.5832    -8.3364  C.ar    1  <O>11       0.2592
  22 O2       -8.4708   -18.1849    -8.6437  O.2     1  <O>11      -0.2672
  23 N5       -7.2067   -16.3840    -7.7226  N.ar    1  <O>11      -0.3103
  24 C17      -0.5527   -10.1366    -5.9237  C.ar    1  <O>11      -0.0479
  25 C18       0.7874    -9.7806    -5.7650  C.ar    1  <O>11      -0.0403
  26 H1        3.3392    -9.2907    -5.1550  H       1  <O>11       0.1423
  27 H2        3.3420   -10.0924    -3.5807  H       1  <O>11       0.1423
  28 H3       -2.2017   -13.0359    -6.0351  H       1  <O>11       0.1470
  29 H4       -4.8282   -12.8271    -4.9231  H       1  <O>11       0.0282
  30 H5       -5.9948   -11.9995    -6.8624  H       1  <O>11      -0.0873
  31 H6       -4.5560   -11.6917    -7.6451  H       1  <O>11      -0.0873
  32 H7       -4.9584   -10.8353    -6.2740  H       1  <O>11      -0.0873
  33 H8       -3.9281   -14.8855    -5.9727  H       1  <O>11       0.0268
  34 H9       -3.9346   -14.0786    -7.5594  H       1  <O>11       0.0268
  35 H10      -6.3779   -13.7625    -7.3909  H       1  <O>11       0.0343
  36 H11      -6.3734   -14.5704    -5.8045  H       1  <O>11       0.0343
  37 H12      -8.0329   -15.8684    -7.4553  H       1  <O>11       0.1700
  38 H13       1.3082   -11.1481    -2.7415  H       1  <O>11       0.0636
  39 H14      -1.0275   -11.7615    -3.0324  H       1  <O>11       0.0626
  40 H15      -2.8104   -17.8638    -8.4877  H       1  <O>11       0.0639
  41 H16      -2.7996   -20.0136    -9.5891  H       1  <O>11       0.0618
  42 H17      -4.8961   -21.1068   -10.1373  H       1  <O>11       0.0618
  43 H18      -6.9927   -20.0211    -9.5778  H       1  <O>11       0.0626
  44 H19      -1.0552    -9.8628    -6.7825  H       1  <O>11       0.0626
  45 H20       1.2744    -9.2420    -6.4983  H       1  <O>11       0.0636
@<TRIPOS>BOND
     1     1     2    1
     2     2     3   ar
     3     3     4   ar
     4     4     5   ar
     5     5     6    1
     6     6     7    2
     7     6     8   am
     8     8     9    1
     9     9    10    1
    10     9    11    1
    11    11    12    1
    12    12    13    1
    13    13    14   ar
    14    14    15   ar
    15    15    16   ar
    16    16    17   ar
    17    17    18   ar
    18    18    19   ar
    19    19    20   ar
    20    15    20   ar
    21    20    21   ar
    22    21    22    2
    23    21    23   ar
    24    13    23   ar
    25     5    24   ar
    26    24    25   ar
    27     2    25   ar
    28     1    26    1
    29     1    27    1
    30     8    28    1
    31     9    29    1
    32    10    30    1
    33    10    31    1
    34    10    32    1
    35    11    33    1
    36    11    34    1
    37    12    35    1
    38    12    36    1
    39    23    37    1
    40     3    38    1
    41     4    39    1
    42    16    40    1
    43    17    41    1
    44    18    42    1
    45    19    43    1
    46    24    44    1
    47    25    45    1
@<TRIPOS>MOLECULE
mol71_1_3
 45 47 0 0 0
SMALL
USER_CHARGES
****
VDW energy = -201.29
@<TRIPOS>ATOM
   1 N1        2.8495    -9.8143    -4.4295  N.pl3   1  <O>11      -0.3580
   2 C1        1.4617   -10.1611    -4.6036  C.ar    1  <O>11       0.0246
   3 C2        0.8050   -10.8783    -3.6012  C.ar    1  <O>11      -0.0403
   4 C3       -0.5391   -11.2290    -3.7692  C.ar    1  <O>11      -0.0479
   5 C4       -1.2224   -10.8607    -4.9311  C.ar    1  <O>11       0.0367
   6 C5       -2.6120   -11.2220    -5.1120  C.2     1  <O>11       0.2426
   7 O1       -3.3886   -10.4262    -5.6189  O.2     1  <O>11      -0.2703
   8 N2       -3.0560   -12.4537    -4.7143  N.am    1  <O>11      -0.3259
   9 C6       -4.4566   -12.8176    -4.8955  C.3     1  <O>11      -0.0151
  10 N3       -4.8019   -12.7615    -6.3444  N.4     1  <O>11       0.3901
  11 C7       -4.6862   -14.2371    -4.3711  C.3     1  <O>11      -0.0439
  12 C8       -6.1458   -14.6166    -4.5590  C.3     1  <O>11       0.0054
  13 C9       -6.3677   -15.9943    -4.0500  C.ar    1  <O>11       0.1103
  14 N4       -5.3380   -16.6735    -3.5308  N.ar    1  <O>11      -0.2337
  15 C10      -5.5206   -17.9190    -3.0678  C.ar    1  <O>11       0.0781
  16 C11      -4.4384   -18.6075    -2.5325  C.ar    1  <O>11      -0.0355
  17 C12      -4.5596   -19.9081    -2.0341  C.ar    1  <O>11      -0.0597
  18 C13      -5.7924   -20.5467    -2.0639  C.ar    1  <O>11      -0.0609
  19 C14      -6.8938   -19.8806    -2.5939  C.ar    1  <O>11      -0.0474
  20 C15      -6.7586   -18.5628    -3.0984  C.ar    1  <O>11       0.0647
  21 C16      -7.7888   -17.8029    -3.6506  C.ar    1  <O>11       0.2592
  22 O2       -9.0532   -18.4194    -3.7016  O.2     1  <O>11      -0.2672
  23 N5       -7.6325   -16.5497    -4.1207  N.ar    1  <O>11      -0.3103
  24 C17      -0.5527   -10.1366    -5.9237  C.ar    1  <O>11      -0.0479
  25 C18       0.7874    -9.7806    -5.7650  C.ar    1  <O>11      -0.0403
  26 H1        3.3392    -9.2907    -5.1550  H       1  <O>11       0.1423
  27 H2        3.3420   -10.0924    -3.5807  H       1  <O>11       0.1423
  28 H3       -2.4075   -13.1178    -4.2906  H       1  <O>11       0.1470
  29 H4       -5.0873   -12.1206    -4.3443  H       1  <O>11       0.0282
  30 H5       -5.7813   -13.0167    -6.4708  H       1  <O>11      -0.0873
  31 H6       -4.2104   -13.4140    -6.8604  H       1  <O>11      -0.0873
  32 H7       -4.6488   -11.8154    -6.6946  H       1  <O>11      -0.0873
  33 H8       -4.4326   -14.2776    -3.3112  H       1  <O>11       0.0268
  34 H9       -4.0554   -14.9341    -4.9222  H       1  <O>11       0.0268
  35 H10      -6.3973   -14.5753    -5.6190  H       1  <O>11       0.0343
  36 H11      -6.7765   -13.9196    -4.0078  H       1  <O>11       0.0343
  37 H12      -8.3810   -16.0003    -4.5181  H       1  <O>11       0.1700
  38 H13       1.3082   -11.1481    -2.7415  H       1  <O>11       0.0636
  39 H14      -1.0275   -11.7615    -3.0324  H       1  <O>11       0.0626
  40 H15      -3.5167   -18.1442    -2.5019  H       1  <O>11       0.0639
  41 H16      -3.7353   -20.3921    -1.6451  H       1  <O>11       0.0618
  42 H17      -5.8911   -21.5061    -1.6967  H       1  <O>11       0.0618
  43 H18      -7.8134   -20.3484    -2.6197  H       1  <O>11       0.0626
  44 H19      -1.0552    -9.8628    -6.7825  H       1  <O>11       0.0626
  45 H20       1.2744    -9.2420    -6.4983  H       1  <O>11       0.0636
@<TRIPOS>BOND
     1     1     2    1
     2     2     3   ar
     3     3     4   ar
     4     4     5   ar
     5     5     6    1
     6     6     7    2
     7     6     8   am
     8     8     9    1
     9     9    10    1
    10     9    11    1
    11    11    12    1
    12    12    13    1
    13    13    14   ar
    14    14    15   ar
    15    15    16   ar
    16    16    17   ar
    17    17    18   ar
    18    18    19   ar
    19    19    20   ar
    20    15    20   ar
    21    20    21   ar
    22    21    22    2
    23    21    23   ar
    24    13    23   ar
    25     5    24   ar
    26    24    25   ar
    27     2    25   ar
    28     1    26    1
    29     1    27    1
    30     8    28    1
    31     9    29    1
    32    10    30    1
    33    10    31    1
    34    10    32    1
    35    11    33    1
    36    11    34    1
    37    12    35    1
    38    12    36    1
    39    23    37    1
    40     3    38    1
    41     4    39    1
    42    16    40    1
    43    17    41    1
    44    18    42    1
    45    19    43    1
    46    24    44    1
    47    25    45    1
@<TRIPOS>MOLECULE
mol71_1_4
 45 47 0 0 0
SMALL
USER_CHARGES
****
VDW energy = -201.26
@<TRIPOS>ATOM
   1 N1        2.8495    -9.8143    -4.4295  N.pl3   1  <O>11      -0.3580
   2 C1        1.4617   -10.1611    -4.6036  C.ar    1  <O>11       0.0246
   3 C2        0.8050   -10.8783    -3.6012  C.ar    1  <O>11      -0.0403
   4 C3       -0.5391   -11.2290    -3.7692  C.ar    1  <O>11      -0.0479
   5 C4       -1.2224   -10.8607    -4.9311  C.ar    1  <O>11       0.0367
   6 C5       -2.6120   -11.2220    -5.1120  C.2     1  <O>11       0.2426
   7 O1       -3.4937   -10.4689    -4.7262  O.2     1  <O>11      -0.2703
   8 N2       -2.9381   -12.4070    -5.7136  N.am    1  <O>11      -0.3259
   9 C6       -4.3384   -12.7718    -5.8949  C.3     1  <O>11      -0.0151
  10 N3       -5.0157   -11.7437    -6.7352  N.4     1  <O>11       0.3901
  11 C7       -4.4244   -14.1340    -6.5876  C.3     1  <O>11      -0.0439
  12 C8       -3.7409   -14.0572    -7.9429  C.3     1  <O>11       0.0054
  13 C9       -3.8248   -15.3794    -8.6144  C.ar    1  <O>11       0.1103
  14 N4       -4.4425   -16.3907    -7.9925  N.ar    1  <O>11      -0.2337
  15 C10      -4.5262   -17.5917    -8.5839  C.ar    1  <O>11       0.0781
  16 C11      -5.1718   -18.6289    -7.9214  C.ar    1  <O>11      -0.0355
  17 C12      -5.2930   -19.9046    -8.4804  C.ar    1  <O>11      -0.0597
  18 C13      -4.7602   -20.1610    -9.7371  C.ar    1  <O>11      -0.0609
  19 C14      -4.1087   -19.1405   -10.4238  C.ar    1  <O>11      -0.0474
  20 C15      -3.9901   -17.8515    -9.8462  C.ar    1  <O>11       0.0647
  21 C16      -3.3605   -16.7584   -10.4400  C.ar    1  <O>11       0.2592
  22 O2       -2.8043   -16.9818   -11.7136  O.2     1  <O>11      -0.2672
  23 N5       -3.2646   -15.5418    -9.8686  N.ar    1  <O>11      -0.3103
  24 C17      -0.5527   -10.1366    -5.9237  C.ar    1  <O>11      -0.0479
  25 C18       0.7874    -9.7806    -5.7650  C.ar    1  <O>11      -0.0403
  26 H1        3.3392    -9.2907    -5.1550  H       1  <O>11       0.1423
  27 H2        3.3420   -10.0924    -3.5807  H       1  <O>11       0.1423
  28 H3       -2.2017   -13.0359    -6.0351  H       1  <O>11       0.1470
  29 H4       -4.8282   -12.8271    -4.9231  H       1  <O>11       0.0282
  30 H5       -5.9948   -11.9995    -6.8624  H       1  <O>11      -0.0873
  31 H6       -4.5560   -11.6917    -7.6451  H       1  <O>11      -0.0873
  32 H7       -4.9584   -10.8353    -6.2740  H       1  <O>11      -0.0873
  33 H8       -5.4716   -14.4067    -6.7225  H       1  <O>11       0.0268
  34 H9       -3.9297   -14.8856    -5.9730  H       1  <O>11       0.0268
  35 H10      -2.6944   -13.7842    -7.8059  H       1  <O>11       0.0343
  36 H11      -4.2356   -13.3055    -8.5575  H       1  <O>11       0.0343
  37 H12      -2.8101   -14.7508   -10.3019  H       1  <O>11       0.1700
  38 H13       1.3082   -11.1481    -2.7415  H       1  <O>11       0.0636
  39 H14      -1.0275   -11.7615    -3.0324  H       1  <O>11       0.0626
  40 H15      -5.5744   -18.4519    -6.9878  H       1  <O>11       0.0639
  41 H16      -5.7769   -20.6535    -7.9608  H       1  <O>11       0.0618
  42 H17      -4.8466   -21.0994   -10.1578  H       1  <O>11       0.0618
  43 H18      -3.7102   -19.3232   -11.3581  H       1  <O>11       0.0626
  44 H19      -1.0552    -9.8628    -6.7825  H       1  <O>11       0.0626
  45 H20       1.2744    -9.2420    -6.4983  H       1  <O>11       0.0636
@<TRIPOS>BOND
     1     1     2    1
     2     2     3   ar
     3     3     4   ar
     4     4     5   ar
     5     5     6    1
     6     6     7    2
     7     6     8   am
     8     8     9    1
     9     9    10    1
    10     9    11    1
    11    11    12    1
    12    12    13    1
    13    13    14   ar
    14    14    15   ar
    15    15    16   ar
    16    16    17   ar
    17    17    18   ar
    18    18    19   ar
    19    19    20   ar
    20    15    20   ar
    21    20    21   ar
    22    21    22    2
    23    21    23   ar
    24    13    23   ar
    25     5    24   ar
    26    24    25   ar
    27     2    25   ar
    28     1    26    1
    29     1    27    1
    30     8    28    1
    31     9    29    1
    32    10    30    1
    33    10    31    1
    34    10    32    1
    35    11    33    1
    36    11    34    1
    37    12    35    1
    38    12    36    1
    39    23    37    1
    40     3    38    1
    41     4    39    1
    42    16    40    1
    43    17    41    1
    44    18    42    1
    45    19    43    1
    46    24    44    1
    47    25    45    1
@<TRIPOS>MOLECULE
mol71_1_5
 45 47 0 0 0
SMALL
USER_CHARGES
****
VDW energy = -200.26
@<TRIPOS>ATOM
   1 N1        2.8495    -9.8143    -4.4295  N.pl3   1  <O>11      -0.3580
   2 C1        1.4617   -10.1611    -4.6036  C.ar    1  <O>11       0.0246
   3 C2        0.8050   -10.8783    -3.6012  C.ar    1  <O>11      -0.0403
   4 C3       -0.5391   -11.2290    -3.7692  C.ar    1  <O>11      -0.0479
   5 C4       -1.2224   -10.8607    -4.9311  C.ar    1  <O>11       0.0367
   6 C5       -2.6120   -11.2220    -5.1120  C.2     1  <O>11       0.2426
   7 O1       -3.4937   -10.4689    -4.7262  O.2     1  <O>11      -0.2703
   8 N2       -2.9381   -12.4070    -5.7136  N.am    1  <O>11      -0.3259
   9 C6       -4.3384   -12.7718    -5.8949  C.3     1  <O>11      -0.0151
  10 N3       -5.0092   -12.8467    -4.5660  N.4     1  <O>11       0.3901
  11 C7       -5.0326   -11.7151    -6.7577  C.3     1  <O>11      -0.0439
  12 C8       -6.4918   -12.0951    -6.9476  C.3     1  <O>11       0.0054
  13 C9       -7.1647   -11.0692    -7.7849  C.ar    1  <O>11       0.1103
  14 N4       -7.7190   -11.4343    -8.9470  N.ar    1  <O>11      -0.2337
  15 C10      -8.3295   -10.5204    -9.7159  C.ar    1  <O>11       0.0781
  16 C11      -8.8989   -10.9198   -10.9192  C.ar    1  <O>11      -0.0355
  17 C12      -9.5486   -10.0185   -11.7679  C.ar    1  <O>11      -0.0597
  18 C13      -9.6399    -8.6791   -11.4126  C.ar    1  <O>11      -0.0609
  19 C14      -9.0791    -8.2511   -10.2126  C.ar    1  <O>11      -0.0474
  20 C15      -8.4210    -9.1736    -9.3611  C.ar    1  <O>11       0.0647
  21 C16      -7.8245    -8.8584    -8.1409  C.ar    1  <O>11       0.2592
  22 O2       -7.8935    -7.5081    -7.7494  O.2     1  <O>11      -0.2672
  23 N5       -7.2072    -9.7572    -7.3492  N.ar    1  <O>11      -0.3103
  24 C17      -0.5527   -10.1366    -5.9237  C.ar    1  <O>11      -0.0479
  25 C18       0.7874    -9.7806    -5.7650  C.ar    1  <O>11      -0.0403
  26 H1        3.3392    -9.2907    -5.1550  H       1  <O>11       0.1423
  27 H2        3.3420   -10.0924    -3.5807  H       1  <O>11       0.1423
  28 H3       -2.2017   -13.0359    -6.0351  H       1  <O>11       0.1470
  29 H4       -4.4003   -13.7413    -6.3885  H       1  <O>11       0.0282
  30 H5       -5.9887   -13.1013    -4.6932  H       1  <O>11      -0.0873
  31 H6       -4.9503   -11.9386    -4.1037  H       1  <O>11      -0.0873
  32 H7       -4.5467   -13.5509    -3.9902  H       1  <O>11      -0.0873
  33 H8       -4.5408   -11.6603    -7.7295  H       1  <O>11       0.0268
  34 H9       -4.9706   -10.7456    -6.2641  H       1  <O>11       0.0268
  35 H10      -6.9815   -12.1497    -5.9751  H       1  <O>11       0.0343
  36 H11      -6.5538   -13.0646    -7.4412  H       1  <O>11       0.0343
  37 H12      -6.7779    -9.5267    -6.4645  H       1  <O>11       0.1700
  38 H13       1.3082   -11.1481    -2.7415  H       1  <O>11       0.0636
  39 H14      -1.0275   -11.7615    -3.0324  H       1  <O>11       0.0626
  40 H15      -8.8404   -11.9126   -11.1948  H       1  <O>11       0.0639
  41 H16      -9.9590   -10.3475   -12.6557  H       1  <O>11       0.0618
  42 H17     -10.1190    -8.0073   -12.0324  H       1  <O>11       0.0618
  43 H18      -9.1428    -7.2573    -9.9415  H       1  <O>11       0.0626
  44 H19      -1.0552    -9.8628    -6.7825  H       1  <O>11       0.0626
  45 H20       1.2744    -9.2420    -6.4983  H       1  <O>11       0.0636
@<TRIPOS>BOND
     1     1     2    1
     2     2     3   ar
     3     3     4   ar
     4     4     5   ar
     5     5     6    1
     6     6     7    2
     7     6     8   am
     8     8     9    1
     9     9    10    1
    10     9    11    1
    11    11    12    1
    12    12    13    1
    13    13    14   ar
    14    14    15   ar
    15    15    16   ar
    16    16    17   ar
    17    17    18   ar
    18    18    19   ar
    19    19    20   ar
    20    15    20   ar
    21    20    21   ar
    22    21    22    2
    23    21    23   ar
    24    13    23   ar
    25     5    24   ar
    26    24    25   ar
    27     2    25   ar
    28     1    26    1
    29     1    27    1
    30     8    28    1
    31     9    29    1
    32    10    30    1
    33    10    31    1
    34    10    32    1
    35    11    33    1
    36    11    34    1
    37    12    35    1
    38    12    36    1
    39    23    37    1
    40     3    38    1
    41     4    39    1
    42    16    40    1
    43    17    41    1
    44    18    42    1
    45    19    43    1
    46    24    44    1
    47    25    45    1
@<TRIPOS>MOLECULE
mol71_1_6
 45 47 0 0 0
SMALL
USER_CHARGES
****
VDW energy = -199.58
@<TRIPOS>ATOM
   1 N1        2.8495    -9.8143    -4.4295  N.pl3   1  <O>11      -0.3580
   2 C1        1.4617   -10.1611    -4.6036  C.ar    1  <O>11       0.0246
   3 C2        0.8050   -10.8783    -3.6012  C.ar    1  <O>11      -0.0403
   4 C3       -0.5391   -11.2290    -3.7692  C.ar    1  <O>11      -0.0479
   5 C4       -1.2224   -10.8607    -4.9311  C.ar    1  <O>11       0.0367
   6 C5       -2.6120   -11.2220    -5.1120  C.2     1  <O>11       0.2426
   7 O1       -3.4937   -10.4689    -4.7262  O.2     1  <O>11      -0.2703
   8 N2       -2.9381   -12.4070    -5.7136  N.am    1  <O>11      -0.3259
   9 C6       -4.3384   -12.7718    -5.8949  C.3     1  <O>11      -0.0151
  10 N3       -5.0092   -12.8467    -4.5660  N.4     1  <O>11       0.3901
  11 C7       -5.0326   -11.7151    -6.7577  C.3     1  <O>11      -0.0439
  12 C8       -6.4918   -12.0951    -6.9476  C.3     1  <O>11       0.0054
  13 C9       -7.1647   -11.0692    -7.7849  C.ar    1  <O>11       0.1103
  14 N4       -6.4587   -10.0238    -8.2317  N.ar    1  <O>11      -0.2337
  15 C10      -7.0510    -9.0876    -8.9878  C.ar    1  <O>11       0.0781
  16 C11      -6.3002    -8.0098    -9.4419  C.ar    1  <O>11      -0.0355
  17 C12      -6.8559    -6.9991   -10.2322  C.ar    1  <O>11      -0.0597
  18 C13      -8.1973    -7.0589   -10.5867  C.ar    1  <O>11      -0.0609
  19 C14      -8.9730    -8.1275   -10.1464  C.ar    1  <O>11      -0.0474
  20 C15      -8.3993    -9.1454    -9.3438  C.ar    1  <O>11       0.0647
  21 C16      -9.0783   -10.2573    -8.8474  C.ar    1  <O>11       0.2592
  22 O2      -10.4422   -10.3498    -9.1830  O.2     1  <O>11      -0.2672
  23 N5       -8.5067   -11.2125    -8.0880  N.ar    1  <O>11      -0.3103
  24 C17      -0.5527   -10.1366    -5.9237  C.ar    1  <O>11      -0.0479
  25 C18       0.7874    -9.7806    -5.7650  C.ar    1  <O>11      -0.0403
  26 H1        3.3392    -9.2907    -5.1550  H       1  <O>11       0.1423
  27 H2        3.3420   -10.0924    -3.5807  H       1  <O>11       0.1423
  28 H3       -2.2017   -13.0359    -6.0351  H       1  <O>11       0.1470
  29 H4       -4.4003   -13.7413    -6.3885  H       1  <O>11       0.0282
  30 H5       -5.9887   -13.1013    -4.6932  H       1  <O>11      -0.0873
  31 H6       -4.9503   -11.9386    -4.1037  H       1  <O>11      -0.0873
  32 H7       -4.5467   -13.5509    -3.9902  H       1  <O>11      -0.0873
  33 H8       -4.5408   -11.6603    -7.7295  H       1  <O>11       0.0268
  34 H9       -4.9706   -10.7456    -6.2641  H       1  <O>11       0.0268
  35 H10      -6.9815   -12.1497    -5.9751  H       1  <O>11       0.0343
  36 H11      -6.5538   -13.0646    -7.4412  H       1  <O>11       0.0343
  37 H12      -9.0001   -12.0184    -7.7316  H       1  <O>11       0.1700
  38 H13       1.3082   -11.1481    -2.7415  H       1  <O>11       0.0636
  39 H14      -1.0275   -11.7615    -3.0324  H       1  <O>11       0.0626
  40 H15      -5.3016    -7.9537    -9.1879  H       1  <O>11       0.0639
  41 H16      -6.2709    -6.2110   -10.5511  H       1  <O>11       0.0618
  42 H17      -8.6151    -6.3179   -11.1710  H       1  <O>11       0.0618
  43 H18      -9.9706    -8.1791   -10.4056  H       1  <O>11       0.0626
  44 H19      -1.0552    -9.8628    -6.7825  H       1  <O>11       0.0626
  45 H20       1.2744    -9.2420    -6.4983  H       1  <O>11       0.0636
@<TRIPOS>BOND
     1     1     2    1
     2     2     3   ar
     3     3     4   ar
     4     4     5   ar
     5     5     6    1
     6     6     7    2
     7     6     8   am
     8     8     9    1
     9     9    10    1
    10     9    11    1
    11    11    12    1
    12    12    13    1
    13    13    14   ar
    14    14    15   ar
    15    15    16   ar
    16    16    17   ar
    17    17    18   ar
    18    18    19   ar
    19    19    20   ar
    20    15    20   ar
    21    20    21   ar
    22    21    22    2
    23    21    23   ar
    24    13    23   ar
    25     5    24   ar
    26    24    25   ar
    27     2    25   ar
    28     1    26    1
    29     1    27    1
    30     8    28    1
    31     9    29    1
    32    10    30    1
    33    10    31    1
    34    10    32    1
    35    11    33    1
    36    11    34    1
    37    12    35    1
    38    12    36    1
    39    23    37    1
    40     3    38    1
    41     4    39    1
    42    16    40    1
    43    17    41    1
    44    18    42    1
    45    19    43    1
    46    24    44    1
    47    25    45    1
@<TRIPOS>MOLECULE
mol71_1_7
 45 47 0 0 0
SMALL
USER_CHARGES
****
VDW energy = -199.57
@<TRIPOS>ATOM
   1 N1        2.8495    -9.8143    -4.4295  N.pl3   1  <O>11      -0.3580
   2 C1        1.4617   -10.1611    -4.6036  C.ar    1  <O>11       0.0246
   3 C2        0.8050   -10.8783    -3.6012  C.ar    1  <O>11      -0.0403
   4 C3       -0.5391   -11.2290    -3.7692  C.ar    1  <O>11      -0.0479
   5 C4       -1.2224   -10.8607    -4.9311  C.ar    1  <O>11       0.0367
   6 C5       -2.6120   -11.2220    -5.1120  C.2     1  <O>11       0.2426
   7 O1       -3.1960   -11.8551    -4.2450  O.2     1  <O>11      -0.2703
   8 N2       -3.2710   -10.8559    -6.2540  N.am    1  <O>11      -0.3259
   9 C6       -4.6710   -11.2209    -6.4370  C.3     1  <O>11      -0.0151
  10 N3       -5.4882   -10.6232    -5.3430  N.4     1  <O>11       0.3901
  11 C7       -5.1627   -10.6937    -7.7872  C.3     1  <O>11      -0.0439
  12 C8       -4.3299   -11.3033    -8.9028  C.3     1  <O>11       0.0054
  13 C9       -4.8077   -10.7913   -10.2126  C.ar    1  <O>11       0.1103
  14 N4       -5.8286    -9.9265   -10.2438  N.ar    1  <O>11      -0.2337
  15 C10      -6.2735    -9.4552   -11.4181  C.ar    1  <O>11       0.0781
  16 C11      -7.3349    -8.5579   -11.4289  C.ar    1  <O>11      -0.0355
  17 C12      -7.8478    -8.0298   -12.6175  C.ar    1  <O>11      -0.0597
  18 C13      -7.2902    -8.3997   -13.8344  C.ar    1  <O>11      -0.0609
  19 C14      -6.2256    -9.2963   -13.8534  C.ar    1  <O>11      -0.0474
  20 C15      -5.7153    -9.8270   -12.6421  C.ar    1  <O>11       0.0647
  21 C16      -4.6570   -10.7291   -12.5414  C.ar    1  <O>11       0.2592
  22 O2       -4.0689   -11.1305   -13.7557  O.2     1  <O>11      -0.2672
  23 N5       -4.1898   -11.2159   -11.3750  N.ar    1  <O>11      -0.3103
  24 C17      -0.5527   -10.1366    -5.9237  C.ar    1  <O>11      -0.0479
  25 C18       0.7874    -9.7806    -5.7650  C.ar    1  <O>11      -0.0403
  26 H1        3.3392    -9.2907    -5.1550  H       1  <O>11       0.1423
  27 H2        3.3420   -10.0924    -3.5807  H       1  <O>11       0.1423
  28 H3       -2.7830   -10.3279    -6.9779  H       1  <O>11       0.1470
  29 H4       -4.7698   -12.3058    -6.4131  H       1  <O>11       0.0282
  30 H5       -6.4675   -10.8781    -5.4717  H       1  <O>11      -0.0873
  31 H6       -5.3948    -9.6070    -5.3652  H       1  <O>11      -0.0873
  32 H7       -5.1607   -10.9742    -4.4426  H       1  <O>11      -0.0873
  33 H8       -5.0639    -9.6079    -7.8103  H       1  <O>11       0.0268
  34 H9       -6.2089   -10.9661    -7.9241  H       1  <O>11       0.0268
  35 H10      -4.4298   -12.3887    -8.8778  H       1  <O>11       0.0343
  36 H11      -3.2837   -11.0309    -8.7659  H       1  <O>11       0.0343
  37 H12      -3.4214   -11.8675   -11.3046  H       1  <O>11       0.1700
  38 H13       1.3082   -11.1481    -2.7415  H       1  <O>11       0.0636
  39 H14      -1.0275   -11.7615    -3.0324  H       1  <O>11       0.0626
  40 H15      -7.7575    -8.2726   -10.5317  H       1  <O>11       0.0639
  41 H16      -8.6384    -7.3671   -12.5906  H       1  <O>11       0.0618
  42 H17      -7.6616    -8.0134   -14.7164  H       1  <O>11       0.0618
  43 H18      -5.8058    -9.5761   -14.7537  H       1  <O>11       0.0626
  44 H19      -1.0552    -9.8628    -6.7825  H       1  <O>11       0.0626
  45 H20       1.2744    -9.2420    -6.4983  H       1  <O>11       0.0636
@<TRIPOS>BOND
     1     1     2    1
     2     2     3   ar
     3     3     4   ar
     4     4     5   ar
     5     5     6    1
     6     6     7    2
     7     6     8   am
     8     8     9    1
     9     9    10    1
    10     9    11    1
    11    11    12    1
    12    12    13    1
    13    13    14   ar
    14    14    15   ar
    15    15    16   ar
    16    16    17   ar
    17    17    18   ar
    18    18    19   ar
    19    19    20   ar
    20    15    20   ar
    21    20    21   ar
    22    21    22    2
    23    21    23   ar
    24    13    23   ar
    25     5    24   ar
    26    24    25   ar
    27     2    25   ar
    28     1    26    1
    29     1    27    1
    30     8    28    1
    31     9    29    1
    32    10    30    1
    33    10    31    1
    34    10    32    1
    35    11    33    1
    36    11    34    1
    37    12    35    1
    38    12    36    1
    39    23    37    1
    40     3    38    1
    41     4    39    1
    42    16    40    1
    43    17    41    1
    44    18    42    1
    45    19    43    1
    46    24    44    1
    47    25    45    1
@<TRIPOS>MOLECULE
mol71_1_8
 45 47 0 0 0
SMALL
USER_CHARGES
****
VDW energy = -198.49
@<TRIPOS>ATOM
   1 N1        2.8495    -9.8143    -4.4295  N.pl3   1  <O>11      -0.3580
   2 C1        1.4617   -10.1611    -4.6036  C.ar    1  <O>11       0.0246
   3 C2        0.8050   -10.8783    -3.6012  C.ar    1  <O>11      -0.0403
   4 C3       -0.5391   -11.2290    -3.7692  C.ar    1  <O>11      -0.0479
   5 C4       -1.2224   -10.8607    -4.9311  C.ar    1  <O>11       0.0367
   6 C5       -2.6120   -11.2220    -5.1120  C.2     1  <O>11       0.2426
   7 O1       -3.1960   -11.8551    -4.2450  O.2     1  <O>11      -0.2703
   8 N2       -3.2710   -10.8559    -6.2540  N.am    1  <O>11      -0.3259
   9 C6       -4.6710   -11.2209    -6.4370  C.3     1  <O>11      -0.0151
  10 N3       -5.4882   -10.6232    -5.3430  N.4     1  <O>11       0.3901
  11 C7       -5.1627   -10.6937    -7.7872  C.3     1  <O>11      -0.0439
  12 C8       -6.6216   -11.0744    -7.9788  C.3     1  <O>11       0.0054
  13 C9       -7.0980   -10.5623    -9.2892  C.ar    1  <O>11       0.1103
  14 N4       -7.6345    -9.3382    -9.3571  N.ar    1  <O>11      -0.2337
  15 C10      -8.0709    -8.8608   -10.5321  C.ar    1  <O>11       0.0781
  16 C11      -8.6249    -7.5871   -10.5815  C.ar    1  <O>11      -0.0355
  17 C12      -9.0999    -7.0303   -11.7728  C.ar    1  <O>11      -0.0597
  18 C13      -9.0213    -7.7568   -12.9538  C.ar    1  <O>11      -0.0609
  19 C14      -8.4704    -9.0350   -12.9339  C.ar    1  <O>11      -0.0474
  20 C15      -7.9940    -9.5900   -11.7197  C.ar    1  <O>11       0.0647
  21 C16      -7.4260   -10.8558   -11.5818  C.ar    1  <O>11       0.2592
  22 O2       -7.3334   -11.6237   -12.7579  O.2     1  <O>11      -0.2672
  23 N5       -6.9782   -11.3580   -10.4142  N.ar    1  <O>11      -0.3103
  24 C17      -0.5527   -10.1366    -5.9237  C.ar    1  <O>11      -0.0479
  25 C18       0.7874    -9.7806    -5.7650  C.ar    1  <O>11      -0.0403
  26 H1        3.3392    -9.2907    -5.1550  H       1  <O>11       0.1423
  27 H2        3.3420   -10.0924    -3.5807  H       1  <O>11       0.1423
  28 H3       -2.7830   -10.3279    -6.9779  H       1  <O>11       0.1470
  29 H4       -4.7698   -12.3058    -6.4131  H       1  <O>11       0.0282
  30 H5       -6.4675   -10.8781    -5.4717  H       1  <O>11      -0.0873
  31 H6       -5.3948    -9.6070    -5.3652  H       1  <O>11      -0.0873
  32 H7       -5.1607   -10.9742    -4.4426  H       1  <O>11      -0.0873
  33 H8       -4.5640   -11.1308    -8.5870  H       1  <O>11       0.0268
  34 H9       -5.0640    -9.6088    -7.8110  H       1  <O>11       0.0268
  35 H10      -7.2183   -10.6368    -7.1782  H       1  <O>11       0.0343
  36 H11      -6.7204   -12.1593    -7.9550  H       1  <O>11       0.0343
  37 H12      -6.5649   -12.2743   -10.3174  H       1  <O>11       0.1700
  38 H13       1.3082   -11.1481    -2.7415  H       1  <O>11       0.0636
  39 H14      -1.0275   -11.7615    -3.0324  H       1  <O>11       0.0626
  40 H15      -8.6876    -7.0351    -9.7118  H       1  <O>11       0.0639
  41 H16      -9.5077    -6.0823   -11.7745  H       1  <O>11       0.0618
  42 H17      -9.3681    -7.3528   -13.8378  H       1  <O>11       0.0618
  43 H18      -8.4085    -9.5811   -13.8074  H       1  <O>11       0.0626
  44 H19      -1.0552    -9.8628    -6.7825  H       1  <O>11       0.0626
  45 H20       1.2744    -9.2420    -6.4983  H       1  <O>11       0.0636
@<TRIPOS>BOND
     1     1     2    1
     2     2     3   ar
     3     3     4   ar
     4     4     5   ar
     5     5     6    1
     6     6     7    2
     7     6     8   am
     8     8     9    1
     9     9    10    1
    10     9    11    1
    11    11    12    1
    12    12    13    1
    13    13    14   ar
    14    14    15   ar
    15    15    16   ar
    16    16    17   ar
    17    17    18   ar
    18    18    19   ar
    19    19    20   ar
    20    15    20   ar
    21    20    21   ar
    22    21    22    2
    23    21    23   ar
    24    13    23   ar
    25     5    24   ar
    26    24    25   ar
    27     2    25   ar
    28     1    26    1
    29     1    27    1
    30     8    28    1
    31     9    29    1
    32    10    30    1
    33    10    31    1
    34    10    32    1
    35    11    33    1
    36    11    34    1
    37    12    35    1
    38    12    36    1
    39    23    37    1
    40     3    38    1
    41     4    39    1
    42    16    40    1
    43    17    41    1
    44    18    42    1
    45    19    43    1
    46    24    44    1
    47    25    45    1
@<TRIPOS>MOLECULE
mol71_1_9
 45 47 0 0 0
SMALL
USER_CHARGES
****
VDW energy = -196.72
@<TRIPOS>ATOM
   1 N1        2.8495    -9.8143    -4.4295  N.pl3   1  <O>11      -0.3580
   2 C1        1.4617   -10.1611    -4.6036  C.ar    1  <O>11       0.0246
   3 C2        0.8050   -10.8783    -3.6012  C.ar    1  <O>11      -0.0403
   4 C3       -0.5391   -11.2290    -3.7692  C.ar    1  <O>11      -0.0479
   5 C4       -1.2224   -10.8607    -4.9311  C.ar    1  <O>11       0.0367
   6 C5       -2.6120   -11.2220    -5.1120  C.2     1  <O>11       0.2426
   7 O1       -3.0110   -11.5830    -6.2092  O.2     1  <O>11      -0.2703
   8 N2       -3.4787   -11.1581    -4.0551  N.am    1  <O>11      -0.3259
   9 C6       -4.8793   -11.5210    -4.2374  C.3     1  <O>11      -0.0151
  10 N3       -5.4950   -10.6300    -5.2616  N.4     1  <O>11       0.3901
  11 C7       -4.9721   -12.9755    -4.7049  C.3     1  <O>11      -0.0439
  12 C8       -6.4316   -13.3546    -4.8945  C.3     1  <O>11       0.0054
  13 C9       -6.5207   -14.7661    -5.3482  C.ar    1  <O>11       0.1103
  14 N4       -5.3957   -15.4706    -5.5186  N.ar    1  <O>11      -0.2337
  15 C10      -5.4579   -16.7460    -5.9291  C.ar    1  <O>11       0.0781
  16 C11      -4.2781   -17.4604    -6.1000  C.ar    1  <O>11      -0.0355
  17 C12      -4.2721   -18.7919    -6.5264  C.ar    1  <O>11      -0.0597
  18 C13      -5.4731   -19.4378    -6.7895  C.ar    1  <O>11      -0.0609
  19 C14      -6.6703   -18.7467    -6.6262  C.ar    1  <O>11      -0.0474
  20 C15      -6.6639   -17.3963    -6.1953  C.ar    1  <O>11       0.0647
  21 C16      -7.7977   -16.6089    -5.9990  C.ar    1  <O>11       0.2592
  22 O2       -9.0341   -17.2290    -6.2600  O.2     1  <O>11      -0.2672
  23 N5       -7.7627   -15.3269    -5.5856  N.ar    1  <O>11      -0.3103
  24 C17      -0.5527   -10.1366    -5.9237  C.ar    1  <O>11      -0.0479
  25 C18       0.7874    -9.7806    -5.7650  C.ar    1  <O>11      -0.0403
  26 H1        3.3392    -9.2907    -5.1550  H       1  <O>11       0.1423
  27 H2        3.3420   -10.0924    -3.5807  H       1  <O>11       0.1423
  28 H3       -3.1454   -10.8561    -3.1392  H       1  <O>11       0.1470
  29 H4       -5.4098   -11.4090    -3.2922  H       1  <O>11       0.0282
  30 H5       -6.4745   -10.8845    -5.3894  H       1  <O>11      -0.0873
  31 H6       -4.9974   -10.7347    -6.1466  H       1  <O>11      -0.0873
  32 H7       -5.4333    -9.6601    -4.9505  H       1  <O>11      -0.0873
  33 H8       -4.5208   -13.6268    -3.9556  H       1  <O>11       0.0268
  34 H9       -4.4417   -13.0875    -5.6502  H       1  <O>11       0.0268
  35 H10      -6.8809   -12.7023    -5.6437  H       1  <O>11       0.0343
  36 H11      -6.9621   -13.2426    -3.9493  H       1  <O>11       0.0343
  37 H12      -8.5856   -14.7593    -5.4418  H       1  <O>11       0.1700
  38 H13       1.3082   -11.1481    -2.7415  H       1  <O>11       0.0636
  39 H14      -1.0275   -11.7615    -3.0324  H       1  <O>11       0.0626
  40 H15      -3.3784   -16.9936    -5.9060  H       1  <O>11       0.0639
  41 H16      -3.3780   -19.2932    -6.6454  H       1  <O>11       0.0618
  42 H17      -5.4778   -20.4210    -7.1032  H       1  <O>11       0.0618
  43 H18      -7.5668   -19.2198    -6.8196  H       1  <O>11       0.0626
  44 H19      -1.0552    -9.8628    -6.7825  H       1  <O>11       0.0626
  45 H20       1.2744    -9.2420    -6.4983  H       1  <O>11       0.0636
@<TRIPOS>BOND
     1     1     2    1
     2     2     3   ar
     3     3     4   ar
     4     4     5   ar
     5     5     6    1
     6     6     7    2
     7     6     8   am
     8     8     9    1
     9     9    10    1
    10     9    11    1
    11    11    12    1
    12    12    13    1
    13    13    14   ar
    14    14    15   ar
    15    15    16   ar
    16    16    17   ar
    17    17    18   ar
    18    18    19   ar
    19    19    20   ar
    20    15    20   ar
    21    20    21   ar
    22    21    22    2
    23    21    23   ar
    24    13    23   ar
    25     5    24   ar
    26    24    25   ar
    27     2    25   ar
    28     1    26    1
    29     1    27    1
    30     8    28    1
    31     9    29    1
    32    10    30    1
    33    10    31    1
    34    10    32    1
    35    11    33    1
    36    11    34    1
    37    12    35    1
    38    12    36    1
    39    23    37    1
    40     3    38    1
    41     4    39    1
    42    16    40    1
    43    17    41    1
    44    18    42    1
    45    19    43    1
    46    24    44    1
    47    25    45    1
@<TRIPOS>MOLECULE
mol71_1_10
 45 47 0 0 0
SMALL
USER_CHARGES
****
VDW energy = -196.43
@<TRIPOS>ATOM
   1 N1        2.8495    -9.8143    -4.4295  N.pl3   1  <O>11      -0.3580
   2 C1        1.4617   -10.1611    -4.6036  C.ar    1  <O>11       0.0246
   3 C2        0.8050   -10.8783    -3.6012  C.ar    1  <O>11      -0.0403
   4 C3       -0.5391   -11.2290    -3.7692  C.ar    1  <O>11      -0.0479
   5 C4       -1.2224   -10.8607    -4.9311  C.ar    1  <O>11       0.0367
   6 C5       -2.6120   -11.2220    -5.1120  C.2     1  <O>11       0.2426
   7 O1       -3.1960   -11.8551    -4.2450  O.2     1  <O>11      -0.2703
   8 N2       -3.2710   -10.8559    -6.2540  N.am    1  <O>11      -0.3259
   9 C6       -4.6710   -11.2209    -6.4370  C.3     1  <O>11      -0.0151
  10 N3       -5.4882   -10.6232    -5.3430  N.4     1  <O>11       0.3901
  11 C7       -5.1627   -10.6937    -7.7872  C.3     1  <O>11      -0.0439
  12 C8       -6.6216   -11.0744    -7.9788  C.3     1  <O>11       0.0054
  13 C9       -7.0980   -10.5623    -9.2892  C.ar    1  <O>11       0.1103
  14 N4       -6.2512    -9.8854   -10.0739  N.ar    1  <O>11      -0.2337
  15 C10      -6.6652    -9.4149   -11.2597  C.ar    1  <O>11       0.0781
  16 C11      -5.7703    -8.7145   -12.0598  C.ar    1  <O>11      -0.0355
  17 C12      -6.1373    -8.1965   -13.3055  C.ar    1  <O>11      -0.0597
  18 C13      -7.4311    -8.3803   -13.7755  C.ar    1  <O>11      -0.0609
  19 C14      -8.3483    -9.0787   -12.9954  C.ar    1  <O>11      -0.0474
  20 C15      -7.9655    -9.5975   -11.7330  C.ar    1  <O>11       0.0647
  21 C16      -8.7973   -10.3094   -10.8698  C.ar    1  <O>11       0.2592
  22 O2      -10.1186   -10.5119   -11.3110  O.2     1  <O>11      -0.2672
  23 N5       -8.4059   -10.7943    -9.6750  N.ar    1  <O>11      -0.3103
  24 C17      -0.5527   -10.1366    -5.9237  C.ar    1  <O>11      -0.0479
  25 C18       0.7874    -9.7806    -5.7650  C.ar    1  <O>11      -0.0403
  26 H1        3.3392    -9.2907    -5.1550  H       1  <O>11       0.1423
  27 H2        3.3420   -10.0924    -3.5807  H       1  <O>11       0.1423
  28 H3       -2.7830   -10.3279    -6.9779  H       1  <O>11       0.1470
  29 H4       -4.7698   -12.3058    -6.4131  H       1  <O>11       0.0282
  30 H5       -6.4675   -10.8781    -5.4717  H       1  <O>11      -0.0873
  31 H6       -5.3948    -9.6070    -5.3652  H       1  <O>11      -0.0873
  32 H7       -5.1607   -10.9742    -4.4426  H       1  <O>11      -0.0873
  33 H8       -4.5640   -11.1308    -8.5870  H       1  <O>11       0.0268
  34 H9       -5.0640    -9.6088    -7.8110  H       1  <O>11       0.0268
  35 H10      -7.2183   -10.6368    -7.1782  H       1  <O>11       0.0343
  36 H11      -6.7204   -12.1593    -7.9550  H       1  <O>11       0.0343
  37 H12      -9.0097   -11.3118    -9.0525  H       1  <O>11       0.1700
  38 H13       1.3082   -11.1481    -2.7415  H       1  <O>11       0.0636
  39 H14      -1.0275   -11.7615    -3.0324  H       1  <O>11       0.0626
  40 H15      -4.8049    -8.5723   -11.7240  H       1  <O>11       0.0639
  41 H16      -5.4488    -7.6791   -13.8740  H       1  <O>11       0.0618
  42 H17      -7.7099    -8.0026   -14.6946  H       1  <O>11       0.0618
  43 H18      -9.3117    -9.2194   -13.3377  H       1  <O>11       0.0626
  44 H19      -1.0552    -9.8628    -6.7825  H       1  <O>11       0.0626
  45 H20       1.2744    -9.2420    -6.4983  H       1  <O>11       0.0636
@<TRIPOS>BOND
     1     1     2    1
     2     2     3   ar
     3     3     4   ar
     4     4     5   ar
     5     5     6    1
     6     6     7    2
     7     6     8   am
     8     8     9    1
     9     9    10    1
    10     9    11    1
    11    11    12    1
    12    12    13    1
    13    13    14   ar
    14    14    15   ar
    15    15    16   ar
    16    16    17   ar
    17    17    18   ar
    18    18    19   ar
    19    19    20   ar
    20    15    20   ar
    21    20    21   ar
    22    21    22    2
    23    21    23   ar
    24    13    23   ar
    25     5    24   ar
    26    24    25   ar
    27     2    25   ar
    28     1    26    1
    29     1    27    1
    30     8    28    1
    31     9    29    1
    32    10    30    1
    33    10    31    1
    34    10    32    1
    35    11    33    1
    36    11    34    1
    37    12    35    1
    38    12    36    1
    39    23    37    1
    40     3    38    1
    41     4    39    1
    42    16    40    1
    43    17    41    1
    44    18    42    1
    45    19    43    1
    46    24    44    1
    47    25    45    1
@<TRIPOS>MOLECULE
mol71_1_11
 45 47 0 0 0
SMALL
USER_CHARGES
****
VDW energy = -196.28
@<TRIPOS>ATOM
   1 N1        2.8495    -9.8143    -4.4295  N.pl3   1  <O>11      -0.3580
   2 C1        1.4617   -10.1611    -4.6036  C.ar    1  <O>11       0.0246
   3 C2        0.8050   -10.8783    -3.6012  C.ar    1  <O>11      -0.0403
   4 C3       -0.5391   -11.2290    -3.7692  C.ar    1  <O>11      -0.0479
   5 C4       -1.2224   -10.8607    -4.9311  C.ar    1  <O>11       0.0367
   6 C5       -2.6120   -11.2220    -5.1120  C.2     1  <O>11       0.2426
   7 O1       -3.4937   -10.4689    -4.7262  O.2     1  <O>11      -0.2703
   8 N2       -2.9381   -12.4070    -5.7136  N.am    1  <O>11      -0.3259
   9 C6       -4.3384   -12.7718    -5.8949  C.3     1  <O>11      -0.0151
  10 N3       -5.0157   -11.7437    -6.7352  N.4     1  <O>11       0.3901
  11 C7       -4.4244   -14.1340    -6.5876  C.3     1  <O>11      -0.0439
  12 C8       -5.8836   -14.5151    -6.7763  C.3     1  <O>11       0.0054
  13 C9       -6.5501   -14.5900    -5.4510  C.ar    1  <O>11       0.1103
  14 N4       -5.8400   -14.3325    -4.3462  N.ar    1  <O>11      -0.2337
  15 C10      -6.4258   -14.3969    -3.1414  C.ar    1  <O>11       0.0781
  16 C11      -5.6710   -14.1259    -2.0064  C.ar    1  <O>11      -0.0355
  17 C12      -6.2192   -14.1765    -0.7212  C.ar    1  <O>11      -0.0597
  18 C13      -7.5587   -14.5031    -0.5546  C.ar    1  <O>11      -0.0609
  19 C14      -8.3388   -14.7787    -1.6740  C.ar    1  <O>11      -0.0474
  20 C15      -7.7715   -14.7264    -2.9720  C.ar    1  <O>11       0.0647
  21 C16      -8.4550   -14.9830    -4.1598  C.ar    1  <O>11       0.2592
  22 O2       -9.8150   -15.3218    -4.0301  O.2     1  <O>11      -0.2672
  23 N5       -7.8908   -14.9232    -5.3821  N.ar    1  <O>11      -0.3103
  24 C17      -0.5527   -10.1366    -5.9237  C.ar    1  <O>11      -0.0479
  25 C18       0.7874    -9.7806    -5.7650  C.ar    1  <O>11      -0.0403
  26 H1        3.3392    -9.2907    -5.1550  H       1  <O>11       0.1423
  27 H2        3.3420   -10.0924    -3.5807  H       1  <O>11       0.1423
  28 H3       -2.2017   -13.0359    -6.0351  H       1  <O>11       0.1470
  29 H4       -4.8282   -12.8271    -4.9231  H       1  <O>11       0.0282
  30 H5       -5.9948   -11.9995    -6.8624  H       1  <O>11      -0.0873
  31 H6       -4.5560   -11.6917    -7.6451  H       1  <O>11      -0.0873
  32 H7       -4.9584   -10.8353    -6.2740  H       1  <O>11      -0.0873
  33 H8       -3.9281   -14.8855    -5.9727  H       1  <O>11       0.0268
  34 H9       -3.9346   -14.0786    -7.5594  H       1  <O>11       0.0268
  35 H10      -5.9437   -15.4855    -7.2694  H       1  <O>11       0.0343
  36 H11      -6.3791   -13.7635    -7.3903  H       1  <O>11       0.0343
  37 H12      -8.3886   -15.1072    -6.2413  H       1  <O>11       0.1700
  38 H13       1.3082   -11.1481    -2.7415  H       1  <O>11       0.0636
  39 H14      -1.0275   -11.7615    -3.0324  H       1  <O>11       0.0626
  40 H15      -4.6747   -13.8797    -2.1155  H       1  <O>11       0.0639
  41 H16      -5.6303   -13.9718     0.1011  H       1  <O>11       0.0618
  42 H17      -7.9718   -14.5412     0.3903  H       1  <O>11       0.0618
  43 H18      -9.3350   -15.0222    -1.5584  H       1  <O>11       0.0626
  44 H19      -1.0552    -9.8628    -6.7825  H       1  <O>11       0.0626
  45 H20       1.2744    -9.2420    -6.4983  H       1  <O>11       0.0636
@<TRIPOS>BOND
     1     1     2    1
     2     2     3   ar
     3     3     4   ar
     4     4     5   ar
     5     5     6    1
     6     6     7    2
     7     6     8   am
     8     8     9    1
     9     9    10    1
    10     9    11    1
    11    11    12    1
    12    12    13    1
    13    13    14   ar
    14    14    15   ar
    15    15    16   ar
    16    16    17   ar
    17    17    18   ar
    18    18    19   ar
    19    19    20   ar
    20    15    20   ar
    21    20    21   ar
    22    21    22    2
    23    21    23   ar
    24    13    23   ar
    25     5    24   ar
    26    24    25   ar
    27     2    25   ar
    28     1    26    1
    29     1    27    1
    30     8    28    1
    31     9    29    1
    32    10    30    1
    33    10    31    1
    34    10    32    1
    35    11    33    1
    36    11    34    1
    37    12    35    1
    38    12    36    1
    39    23    37    1
    40     3    38    1
    41     4    39    1
    42    16    40    1
    43    17    41    1
    44    18    42    1
    45    19    43    1
    46    24    44    1
    47    25    45    1
@<TRIPOS>MOLECULE
mol71_1_12
 45 47 0 0 0
SMALL
USER_CHARGES
****
VDW energy = -194.80
@<TRIPOS>ATOM
   1 N1        2.8495    -9.8143    -4.4295  N.pl3   1  <O>11      -0.3580
   2 C1        1.4617   -10.1611    -4.6036  C.ar    1  <O>11       0.0246
   3 C2        0.8050   -10.8783    -3.6012  C.ar    1  <O>11      -0.0403
   4 C3       -0.5391   -11.2290    -3.7692  C.ar    1  <O>11      -0.0479
   5 C4       -1.2224   -10.8607    -4.9311  C.ar    1  <O>11       0.0367
   6 C5       -2.6120   -11.2220    -5.1120  C.2     1  <O>11       0.2426
   7 O1       -3.4937   -10.4689    -4.7262  O.2     1  <O>11      -0.2703
   8 N2       -2.9381   -12.4070    -5.7136  N.am    1  <O>11      -0.3259
   9 C6       -4.3384   -12.7718    -5.8949  C.3     1  <O>11      -0.0151
  10 N3       -4.4237   -14.0986    -6.5687  N.4     1  <O>11       0.3901
  11 C7       -5.0260   -12.8480    -4.5295  C.3     1  <O>11      -0.0439
  12 C8       -6.4856   -13.2275    -4.7179  C.3     1  <O>11       0.0054
  13 C9       -7.1587   -12.2019    -5.5553  C.ar    1  <O>11       0.1103
  14 N4       -7.7142   -12.5675    -6.7167  N.ar    1  <O>11      -0.2337
  15 C10      -8.3250   -11.6539    -7.4857  C.ar    1  <O>11       0.0781
  16 C11      -8.8956   -12.0539    -8.6882  C.ar    1  <O>11      -0.0355
  17 C12      -9.5455   -11.1529    -9.5370  C.ar    1  <O>11      -0.0597
  18 C13      -9.6360    -9.8131    -9.1825  C.ar    1  <O>11      -0.0609
  19 C14      -9.0740    -9.3846    -7.9833  C.ar    1  <O>11      -0.0474
  20 C15      -8.4155   -10.3068    -7.1317  C.ar    1  <O>11       0.0647
  21 C16      -7.8179    -9.9910    -5.9123  C.ar    1  <O>11       0.2592
  22 O2       -7.8859    -8.6404    -5.5216  O.2     1  <O>11      -0.2672
  23 N5       -7.2002   -10.8895    -5.1205  N.ar    1  <O>11      -0.3103
  24 C17      -0.5527   -10.1366    -5.9237  C.ar    1  <O>11      -0.0479
  25 C18       0.7874    -9.7806    -5.7650  C.ar    1  <O>11      -0.0403
  26 H1        3.3392    -9.2907    -5.1550  H       1  <O>11       0.1423
  27 H2        3.3420   -10.0924    -3.5807  H       1  <O>11       0.1423
  28 H3       -2.2017   -13.0359    -6.0351  H       1  <O>11       0.1470
  29 H4       -4.8332   -12.0198    -6.5090  H       1  <O>11       0.0282
  30 H5       -5.4032   -14.3538    -6.6948  H       1  <O>11      -0.0873
  31 H6       -3.9595   -14.8025    -5.9934  H       1  <O>11      -0.0873
  32 H7       -3.9652   -14.0485    -7.4789  H       1  <O>11      -0.0873
  33 H8       -4.9625   -11.8772    -4.0369  H       1  <O>11       0.0268
  34 H9       -4.5312   -13.5999    -3.9154  H       1  <O>11       0.0268
  35 H10      -6.9744   -13.2812    -3.7449  H       1  <O>11       0.0343
  36 H11      -6.5483   -14.1973    -5.2108  H       1  <O>11       0.0343
  37 H12      -6.7701   -10.6586    -4.2363  H       1  <O>11       0.1700
  38 H13       1.3082   -11.1481    -2.7415  H       1  <O>11       0.0636
  39 H14      -1.0275   -11.7615    -3.0324  H       1  <O>11       0.0626
  40 H15      -8.8378   -13.0469    -8.9632  H       1  <O>11       0.0639
  41 H16      -9.9569   -11.4823   -10.4242  H       1  <O>11       0.0618
  42 H17     -10.1153    -9.1416    -9.8024  H       1  <O>11       0.0618
  43 H18      -9.1370    -8.3906    -7.7129  H       1  <O>11       0.0626
  44 H19      -1.0552    -9.8628    -6.7825  H       1  <O>11       0.0626
  45 H20       1.2744    -9.2420    -6.4983  H       1  <O>11       0.0636
@<TRIPOS>BOND
     1     1     2    1
     2     2     3   ar
     3     3     4   ar
     4     4     5   ar
     5     5     6    1
     6     6     7    2
     7     6     8   am
     8     8     9    1
     9     9    10    1
    10     9    11    1
    11    11    12    1
    12    12    13    1
    13    13    14   ar
    14    14    15   ar
    15    15    16   ar
    16    16    17   ar
    17    17    18   ar
    18    18    19   ar
    19    19    20   ar
    20    15    20   ar
    21    20    21   ar
    22    21    22    2
    23    21    23   ar
    24    13    23   ar
    25     5    24   ar
    26    24    25   ar
    27     2    25   ar
    28     1    26    1
    29     1    27    1
    30     8    28    1
    31     9    29    1
    32    10    30    1
    33    10    31    1
    34    10    32    1
    35    11    33    1
    36    11    34    1
    37    12    35    1
    38    12    36    1
    39    23    37    1
    40     3    38    1
    41     4    39    1
    42    16    40    1
    43    17    41    1
    44    18    42    1
    45    19    43    1
    46    24    44    1
    47    25    45    1
@<TRIPOS>MOLECULE
mol71_1_13
 45 47 0 0 0
SMALL
USER_CHARGES
****
VDW energy = -194.30
@<TRIPOS>ATOM
   1 N1        2.8495    -9.8143    -4.4295  N.pl3   1  <O>11      -0.3580
   2 C1        1.4617   -10.1611    -4.6036  C.ar    1  <O>11       0.0246
   3 C2        0.8050   -10.8783    -3.6012  C.ar    1  <O>11      -0.0403
   4 C3       -0.5391   -11.2290    -3.7692  C.ar    1  <O>11      -0.0479
   5 C4       -1.2224   -10.8607    -4.9311  C.ar    1  <O>11       0.0367
   6 C5       -2.6120   -11.2220    -5.1120  C.2     1  <O>11       0.2426
   7 O1       -3.1960   -11.8550    -4.2450  O.2     1  <O>11      -0.2703
   8 N2       -3.2710   -10.8560    -6.2540  N.am    1  <O>11      -0.3259
   9 C6       -4.6710   -11.2210    -6.4370  C.3     1  <O>11      -0.0151
  10 N3       -4.8069   -12.7050    -6.4035  N.4     1  <O>11       0.3901
  11 C7       -5.5088   -10.6067    -5.3129  C.3     1  <O>11      -0.0439
  12 C8       -6.9682   -10.9862    -5.5035  C.3     1  <O>11       0.0054
  13 C9       -7.7804   -10.3898    -4.4123  C.ar    1  <O>11       0.1103
  14 N4       -7.9728   -11.0852    -3.2851  N.ar    1  <O>11      -0.2337
  15 C10      -8.7047   -10.5621    -2.2903  C.ar    1  <O>11       0.0781
  16 C11      -8.8926   -11.3003    -1.1278  C.ar    1  <O>11      -0.0355
  17 C12      -9.6450   -10.8148    -0.0541  C.ar    1  <O>11      -0.0597
  18 C13     -10.2279    -9.5567    -0.1327  C.ar    1  <O>11      -0.0609
  19 C14     -10.0557    -8.7950    -1.2849  C.ar    1  <O>11      -0.0474
  20 C15      -9.2924    -9.2985    -2.3681  C.ar    1  <O>11       0.0647
  21 C16      -9.0550    -8.6263    -3.5663  C.ar    1  <O>11       0.2592
  22 O2       -9.6341    -7.3488    -3.6840  O.2     1  <O>11      -0.2672
  23 N5       -8.3222    -9.1282    -4.5797  N.ar    1  <O>11      -0.3103
  24 C17      -0.5527   -10.1366    -5.9237  C.ar    1  <O>11      -0.0479
  25 C18       0.7874    -9.7806    -5.7650  C.ar    1  <O>11      -0.0403
  26 H1        3.3392    -9.2907    -5.1550  H       1  <O>11       0.1423
  27 H2        3.3420   -10.0924    -3.5807  H       1  <O>11       0.1423
  28 H3       -2.7830   -10.3280    -6.9780  H       1  <O>11       0.1470
  29 H4       -5.0218   -10.8455    -7.3979  H       1  <O>11       0.0282
  30 H5       -5.7862   -12.9599    -6.5308  H       1  <O>11      -0.0873
  31 H6       -4.4775   -13.0563    -5.5035  H       1  <O>11      -0.0873
  32 H7       -4.2483   -13.1151    -7.1525  H       1  <O>11      -0.0873
  33 H8       -5.4084    -9.5211    -5.3376  H       1  <O>11       0.0268
  34 H9       -5.1581   -10.9822    -4.3520  H       1  <O>11       0.0268
  35 H10      -7.0663   -12.0717    -5.4789  H       1  <O>11       0.0343
  36 H11      -7.3189   -10.6108    -6.4644  H       1  <O>11       0.0343
  37 H12      -8.1496    -8.6383    -5.4458  H       1  <O>11       0.1700
  38 H13       1.3082   -11.1481    -2.7415  H       1  <O>11       0.0636
  39 H14      -1.0275   -11.7615    -3.0324  H       1  <O>11       0.0626
  40 H15      -8.4633   -12.2359    -1.0549  H       1  <O>11       0.0639
  41 H16      -9.7669   -11.3896     0.7942  H       1  <O>11       0.0618
  42 H17     -10.7836    -9.1901     0.6559  H       1  <O>11       0.0618
  43 H18     -10.4857    -7.8592    -1.3509  H       1  <O>11       0.0626
  44 H19      -1.0552    -9.8628    -6.7825  H       1  <O>11       0.0626
  45 H20       1.2744    -9.2420    -6.4983  H       1  <O>11       0.0636
@<TRIPOS>BOND
     1     1     2    1
     2     2     3   ar
     3     3     4   ar
     4     4     5   ar
     5     5     6    1
     6     6     7    2
     7     6     8   am
     8     8     9    1
     9     9    10    1
    10     9    11    1
    11    11    12    1
    12    12    13    1
    13    13    14   ar
    14    14    15   ar
    15    15    16   ar
    16    16    17   ar
    17    17    18   ar
    18    18    19   ar
    19    19    20   ar
    20    15    20   ar
    21    20    21   ar
    22    21    22    2
    23    21    23   ar
    24    13    23   ar
    25     5    24   ar
    26    24    25   ar
    27     2    25   ar
    28     1    26    1
    29     1    27    1
    30     8    28    1
    31     9    29    1
    32    10    30    1
    33    10    31    1
    34    10    32    1
    35    11    33    1
    36    11    34    1
    37    12    35    1
    38    12    36    1
    39    23    37    1
    40     3    38    1
    41     4    39    1
    42    16    40    1
    43    17    41    1
    44    18    42    1
    45    19    43    1
    46    24    44    1
    47    25    45    1
@<TRIPOS>MOLECULE
mol71_1_14
 45 47 0 0 0
SMALL
USER_CHARGES
****
VDW energy = -193.90
@<TRIPOS>ATOM
   1 N1        2.8495    -9.8143    -4.4295  N.pl3   1  <O>11      -0.3580
   2 C1        1.4617   -10.1611    -4.6036  C.ar    1  <O>11       0.0246
   3 C2        0.8050   -10.8783    -3.6012  C.ar    1  <O>11      -0.0403
   4 C3       -0.5391   -11.2290    -3.7692  C.ar    1  <O>11      -0.0479
   5 C4       -1.2224   -10.8607    -4.9311  C.ar    1  <O>11       0.0367
   6 C5       -2.6120   -11.2220    -5.1120  C.2     1  <O>11       0.2426
   7 O1       -3.4937   -10.4689    -4.7262  O.2     1  <O>11      -0.2703
   8 N2       -2.9381   -12.4070    -5.7136  N.am    1  <O>11      -0.3259
   9 C6       -4.3384   -12.7718    -5.8949  C.3     1  <O>11      -0.0151
  10 N3       -5.0092   -12.8467    -4.5660  N.4     1  <O>11       0.3901
  11 C7       -5.0326   -11.7151    -6.7577  C.3     1  <O>11      -0.0439
  12 C8       -6.4918   -12.0951    -6.9476  C.3     1  <O>11       0.0054
  13 C9       -6.5748   -13.4168    -7.6203  C.ar    1  <O>11       0.1103
  14 N4       -5.4456   -14.0562    -7.9476  N.ar    1  <O>11      -0.2337
  15 C10      -5.5023   -15.2499    -8.5566  C.ar    1  <O>11       0.0781
  16 C11      -4.3182   -15.8975    -8.8882  C.ar    1  <O>11      -0.0355
  17 C12      -4.3065   -17.1422    -9.5248  C.ar    1  <O>11      -0.0597
  18 C13      -5.5057   -17.7672    -9.8408  C.ar    1  <O>11      -0.0609
  19 C14      -6.7071   -17.1418    -9.5197  C.ar    1  <O>11      -0.0474
  20 C15      -6.7067   -15.8788    -8.8762  C.ar    1  <O>11       0.0647
  21 C16      -7.8450   -15.1621    -8.5096  C.ar    1  <O>11       0.2592
  22 O2       -9.0801   -15.7628    -8.8179  O.2     1  <O>11      -0.2672
  23 N5       -7.8155   -13.9630    -7.8955  N.ar    1  <O>11      -0.3103
  24 C17      -0.5527   -10.1366    -5.9237  C.ar    1  <O>11      -0.0479
  25 C18       0.7874    -9.7806    -5.7650  C.ar    1  <O>11      -0.0403
  26 H1        3.3392    -9.2907    -5.1550  H       1  <O>11       0.1423
  27 H2        3.3420   -10.0924    -3.5807  H       1  <O>11       0.1423
  28 H3       -2.2017   -13.0359    -6.0351  H       1  <O>11       0.1470
  29 H4       -4.4003   -13.7413    -6.3885  H       1  <O>11       0.0282
  30 H5       -5.9887   -13.1013    -4.6932  H       1  <O>11      -0.0873
  31 H6       -4.9503   -11.9386    -4.1037  H       1  <O>11      -0.0873
  32 H7       -4.5467   -13.5509    -3.9902  H       1  <O>11      -0.0873
  33 H8       -4.5408   -11.6603    -7.7295  H       1  <O>11       0.0268
  34 H9       -4.9706   -10.7456    -6.2641  H       1  <O>11       0.0268
  35 H10      -6.9852   -11.3421    -7.5625  H       1  <O>11       0.0343
  36 H11      -6.9825   -12.1504    -5.9762  H       1  <O>11       0.0343
  37 H12      -8.6415   -13.4468    -7.6287  H       1  <O>11       0.1700
  38 H13       1.3082   -11.1481    -2.7415  H       1  <O>11       0.0636
  39 H14      -1.0275   -11.7615    -3.0324  H       1  <O>11       0.0626
  40 H15      -3.4196   -15.4456    -8.6573  H       1  <O>11       0.0639
  41 H16      -3.4094   -17.5952    -9.7592  H       1  <O>11       0.0618
  42 H17      -5.5062   -18.6868   -10.3093  H       1  <O>11       0.0618
  43 H18      -7.6025   -17.5998    -9.7513  H       1  <O>11       0.0626
  44 H19      -1.0552    -9.8628    -6.7825  H       1  <O>11       0.0626
  45 H20       1.2744    -9.2420    -6.4983  H       1  <O>11       0.0636
@<TRIPOS>BOND
     1     1     2    1
     2     2     3   ar
     3     3     4   ar
     4     4     5   ar
     5     5     6    1
     6     6     7    2
     7     6     8   am
     8     8     9    1
     9     9    10    1
    10     9    11    1
    11    11    12    1
    12    12    13    1
    13    13    14   ar
    14    14    15   ar
    15    15    16   ar
    16    16    17   ar
    17    17    18   ar
    18    18    19   ar
    19    19    20   ar
    20    15    20   ar
    21    20    21   ar
    22    21    22    2
    23    21    23   ar
    24    13    23   ar
    25     5    24   ar
    26    24    25   ar
    27     2    25   ar
    28     1    26    1
    29     1    27    1
    30     8    28    1
    31     9    29    1
    32    10    30    1
    33    10    31    1
    34    10    32    1
    35    11    33    1
    36    11    34    1
    37    12    35    1
    38    12    36    1
    39    23    37    1
    40     3    38    1
    41     4    39    1
    42    16    40    1
    43    17    41    1
    44    18    42    1
    45    19    43    1
    46    24    44    1
    47    25    45    1
@<TRIPOS>MOLECULE
mol71_1_15
 45 47 0 0 0
SMALL
USER_CHARGES
****
VDW energy = -193.42
@<TRIPOS>ATOM
   1 N1        2.8495    -9.8143    -4.4295  N.pl3   1  <O>11      -0.3580
   2 C1        1.4617   -10.1611    -4.6036  C.ar    1  <O>11       0.0246
   3 C2        0.8050   -10.8783    -3.6012  C.ar    1  <O>11      -0.0403
   4 C3       -0.5391   -11.2290    -3.7692  C.ar    1  <O>11      -0.0479
   5 C4       -1.2224   -10.8607    -4.9311  C.ar    1  <O>11       0.0367
   6 C5       -2.6120   -11.2220    -5.1120  C.2     1  <O>11       0.2426
   7 O1       -3.3886   -10.4262    -5.6189  O.2     1  <O>11      -0.2703
   8 N2       -3.0560   -12.4537    -4.7143  N.am    1  <O>11      -0.3259
   9 C6       -4.4566   -12.8176    -4.8955  C.3     1  <O>11      -0.0151
  10 N3       -4.8019   -12.7615    -6.3444  N.4     1  <O>11       0.3901
  11 C7       -4.6862   -14.2371    -4.3711  C.3     1  <O>11      -0.0439
  12 C8       -6.1458   -14.6166    -4.5590  C.3     1  <O>11       0.0054
  13 C9       -7.0044   -13.6657    -3.8074  C.ar    1  <O>11       0.1103
  14 N4       -6.4315   -12.6736    -3.1156  N.ar    1  <O>11      -0.2337
  15 C10      -7.1918   -11.8069    -2.4303  C.ar    1  <O>11       0.0781
  16 C11      -6.5775   -10.7836    -1.7182  C.ar    1  <O>11      -0.0355
  17 C12      -7.3107    -9.8478    -0.9824  C.ar    1  <O>11      -0.0597
  18 C13      -8.6970    -9.9260    -0.9527  C.ar    1  <O>11      -0.0609
  19 C14      -9.3390   -10.9404    -1.6573  C.ar    1  <O>11      -0.0474
  20 C15      -8.5850   -11.8848    -2.3983  C.ar    1  <O>11       0.0647
  21 C16      -9.1195   -12.9389    -3.1379  C.ar    1  <O>11       0.2592
  22 O2      -10.5224   -13.0526    -3.1280  O.2     1  <O>11      -0.2672
  23 N5       -8.3784   -13.8216    -3.8362  N.ar    1  <O>11      -0.3103
  24 C17      -0.5527   -10.1366    -5.9237  C.ar    1  <O>11      -0.0479
  25 C18       0.7874    -9.7806    -5.7650  C.ar    1  <O>11      -0.0403
  26 H1        3.3392    -9.2907    -5.1550  H       1  <O>11       0.1423
  27 H2        3.3420   -10.0924    -3.5807  H       1  <O>11       0.1423
  28 H3       -2.4075   -13.1178    -4.2906  H       1  <O>11       0.1470
  29 H4       -5.0873   -12.1206    -4.3443  H       1  <O>11       0.0282
  30 H5       -5.7813   -13.0167    -6.4708  H       1  <O>11      -0.0873
  31 H6       -4.2104   -13.4140    -6.8604  H       1  <O>11      -0.0873
  32 H7       -4.6488   -11.8154    -6.6946  H       1  <O>11      -0.0873
  33 H8       -4.4326   -14.2776    -3.3112  H       1  <O>11       0.0268
  34 H9       -4.0554   -14.9341    -4.9222  H       1  <O>11       0.0268
  35 H10      -6.3083   -15.6277    -4.1849  H       1  <O>11       0.0343
  36 H11      -6.3987   -14.5754    -5.6181  H       1  <O>11       0.0343
  37 H12      -8.7681   -14.5830    -4.3733  H       1  <O>11       0.1700
  38 H13       1.3082   -11.1481    -2.7415  H       1  <O>11       0.0636
  39 H14      -1.0275   -11.7615    -3.0324  H       1  <O>11       0.0626
  40 H15      -5.5481   -10.7122    -1.7331  H       1  <O>11       0.0639
  41 H16      -6.8232    -9.1013    -0.4627  H       1  <O>11       0.0618
  42 H17      -9.2460    -9.2385    -0.4134  H       1  <O>11       0.0618
  43 H18     -10.3688   -11.0052    -1.6403  H       1  <O>11       0.0626
  44 H19      -1.0552    -9.8628    -6.7825  H       1  <O>11       0.0626
  45 H20       1.2744    -9.2420    -6.4983  H       1  <O>11       0.0636
@<TRIPOS>BOND
     1     1     2    1
     2     2     3   ar
     3     3     4   ar
     4     4     5   ar
     5     5     6    1
     6     6     7    2
     7     6     8   am
     8     8     9    1
     9     9    10    1
    10     9    11    1
    11    11    12    1
    12    12    13    1
    13    13    14   ar
    14    14    15   ar
    15    15    16   ar
    16    16    17   ar
    17    17    18   ar
    18    18    19   ar
    19    19    20   ar
    20    15    20   ar
    21    20    21   ar
    22    21    22    2
    23    21    23   ar
    24    13    23   ar
    25     5    24   ar
    26    24    25   ar
    27     2    25   ar
    28     1    26    1
    29     1    27    1
    30     8    28    1
    31     9    29    1
    32    10    30    1
    33    10    31    1
    34    10    32    1
    35    11    33    1
    36    11    34    1
    37    12    35    1
    38    12    36    1
    39    23    37    1
    40     3    38    1
    41     4    39    1
    42    16    40    1
    43    17    41    1
    44    18    42    1
    45    19    43    1
    46    24    44    1
    47    25    45    1
@<TRIPOS>MOLECULE
mol71_1_16
 45 47 0 0 0
SMALL
USER_CHARGES
****
VDW energy = -193.16
@<TRIPOS>ATOM
   1 N1        2.8495    -9.8143    -4.4295  N.pl3   1  <O>11      -0.3580
   2 C1        1.4617   -10.1611    -4.6036  C.ar    1  <O>11       0.0246
   3 C2        0.8050   -10.8783    -3.6012  C.ar    1  <O>11      -0.0403
   4 C3       -0.5391   -11.2290    -3.7692  C.ar    1  <O>11      -0.0479
   5 C4       -1.2224   -10.8607    -4.9311  C.ar    1  <O>11       0.0367
   6 C5       -2.6120   -11.2220    -5.1120  C.2     1  <O>11       0.2426
   7 O1       -3.1960   -11.8550    -4.2450  O.2     1  <O>11      -0.2703
   8 N2       -3.2710   -10.8560    -6.2540  N.am    1  <O>11      -0.3259
   9 C6       -4.6710   -11.2210    -6.4370  C.3     1  <O>11      -0.0151
  10 N3       -4.8069   -12.7050    -6.4035  N.4     1  <O>11       0.3901
  11 C7       -5.5088   -10.6067    -5.3129  C.3     1  <O>11      -0.0439
  12 C8       -6.9682   -10.9862    -5.5035  C.3     1  <O>11       0.0054
  13 C9       -7.7804   -10.3898    -4.4123  C.ar    1  <O>11       0.1103
  14 N4       -8.3035    -9.1692    -4.5785  N.ar    1  <O>11      -0.2337
  15 C10      -9.0384    -8.6153    -3.6028  C.ar    1  <O>11       0.0781
  16 C11      -9.5727    -7.3467    -3.7950  C.ar    1  <O>11      -0.0355
  17 C12     -10.3462    -6.7118    -2.8187  C.ar    1  <O>11      -0.0597
  18 C13     -10.6014    -7.3545    -1.6143  C.ar    1  <O>11      -0.0609
  19 C14     -10.0793    -8.6260    -1.3948  C.ar    1  <O>11      -0.0474
  20 C15      -9.2946    -9.2592    -2.3912  C.ar    1  <O>11       0.0647
  21 C16      -8.7224   -10.5258    -2.2806  C.ar    1  <O>11       0.2592
  22 O2       -8.9562   -11.2065    -1.0709  O.2     1  <O>11      -0.2672
  23 N5       -7.9822   -11.1054    -3.2459  N.ar    1  <O>11      -0.3103
  24 C17      -0.5527   -10.1366    -5.9237  C.ar    1  <O>11      -0.0479
  25 C18       0.7874    -9.7806    -5.7650  C.ar    1  <O>11      -0.0403
  26 H1        3.3392    -9.2907    -5.1550  H       1  <O>11       0.1423
  27 H2        3.3420   -10.0924    -3.5807  H       1  <O>11       0.1423
  28 H3       -2.7830   -10.3280    -6.9780  H       1  <O>11       0.1470
  29 H4       -5.0218   -10.8455    -7.3979  H       1  <O>11       0.0282
  30 H5       -5.7862   -12.9599    -6.5308  H       1  <O>11      -0.0873
  31 H6       -4.4775   -13.0563    -5.5035  H       1  <O>11      -0.0873
  32 H7       -4.2483   -13.1151    -7.1525  H       1  <O>11      -0.0873
  33 H8       -5.4084    -9.5211    -5.3376  H       1  <O>11       0.0268
  34 H9       -5.1581   -10.9822    -4.3520  H       1  <O>11       0.0268
  35 H10      -7.0663   -12.0717    -5.4789  H       1  <O>11       0.0343
  36 H11      -7.3189   -10.6108    -6.4644  H       1  <O>11       0.0343
  37 H12      -7.5708   -12.0242    -3.1644  H       1  <O>11       0.1700
  38 H13       1.3082   -11.1481    -2.7415  H       1  <O>11       0.0636
  39 H14      -1.0275   -11.7615    -3.0324  H       1  <O>11       0.0626
  40 H15      -9.3930    -6.8583    -4.6861  H       1  <O>11       0.0639
  41 H16     -10.7265    -5.7683    -2.9925  H       1  <O>11       0.0618
  42 H17     -11.1727    -6.8937    -0.8888  H       1  <O>11       0.0618
  43 H18     -10.2644    -9.1102    -0.5024  H       1  <O>11       0.0626
  44 H19      -1.0552    -9.8628    -6.7825  H       1  <O>11       0.0626
  45 H20       1.2744    -9.2420    -6.4983  H       1  <O>11       0.0636
@<TRIPOS>BOND
     1     1     2    1
     2     2     3   ar
     3     3     4   ar
     4     4     5   ar
     5     5     6    1
     6     6     7    2
     7     6     8   am
     8     8     9    1
     9     9    10    1
    10     9    11    1
    11    11    12    1
    12    12    13    1
    13    13    14   ar
    14    14    15   ar
    15    15    16   ar
    16    16    17   ar
    17    17    18   ar
    18    18    19   ar
    19    19    20   ar
    20    15    20   ar
    21    20    21   ar
    22    21    22    2
    23    21    23   ar
    24    13    23   ar
    25     5    24   ar
    26    24    25   ar
    27     2    25   ar
    28     1    26    1
    29     1    27    1
    30     8    28    1
    31     9    29    1
    32    10    30    1
    33    10    31    1
    34    10    32    1
    35    11    33    1
    36    11    34    1
    37    12    35    1
    38    12    36    1
    39    23    37    1
    40     3    38    1
    41     4    39    1
    42    16    40    1
    43    17    41    1
    44    18    42    1
    45    19    43    1
    46    24    44    1
    47    25    45    1
@<TRIPOS>MOLECULE
mol71_1_17
 45 47 0 0 0
SMALL
USER_CHARGES
****
VDW energy = -191.85
@<TRIPOS>ATOM
   1 N1        2.8495    -9.8143    -4.4295  N.pl3   1  <O>11      -0.3580
   2 C1        1.4617   -10.1611    -4.6036  C.ar    1  <O>11       0.0246
   3 C2        0.8050   -10.8783    -3.6012  C.ar    1  <O>11      -0.0403
   4 C3       -0.5391   -11.2290    -3.7692  C.ar    1  <O>11      -0.0479
   5 C4       -1.2224   -10.8607    -4.9311  C.ar    1  <O>11       0.0367
   6 C5       -2.6120   -11.2220    -5.1120  C.2     1  <O>11       0.2426
   7 O1       -3.1960   -11.8550    -4.2450  O.2     1  <O>11      -0.2703
   8 N2       -3.2710   -10.8560    -6.2540  N.am    1  <O>11      -0.3259
   9 C6       -4.6710   -11.2210    -6.4370  C.3     1  <O>11      -0.0151
  10 N3       -4.8069   -12.7050    -6.4035  N.4     1  <O>11       0.3901
  11 C7       -5.5088   -10.6067    -5.3129  C.3     1  <O>11      -0.0439
  12 C8       -6.9682   -10.9862    -5.5035  C.3     1  <O>11       0.0054
  13 C9       -7.7804   -10.3898    -4.4123  C.ar    1  <O>11       0.1103
  14 N4       -7.1747    -9.6519    -3.4744  N.ar    1  <O>11      -0.2337
  15 C10      -7.8929    -9.1071    -2.4813  C.ar    1  <O>11       0.0781
  16 C11      -7.2450    -8.3441    -1.5171  C.ar    1  <O>11      -0.0355
  17 C12      -7.9335    -7.7495    -0.4555  C.ar    1  <O>11      -0.0597
  18 C13      -9.3083    -7.9132    -0.3464  C.ar    1  <O>11      -0.0609
  19 C14      -9.9833    -8.6718    -1.2984  C.ar    1  <O>11      -0.0474
  20 C15      -9.2744    -9.2717    -2.3693  C.ar    1  <O>11       0.0647
  21 C16      -9.8445   -10.0499    -3.3760  C.ar    1  <O>11       0.2592
  22 O2      -11.2368   -10.2414    -3.2960  O.2     1  <O>11      -0.2672
  23 N5       -9.1463   -10.6065    -4.3851  N.ar    1  <O>11      -0.3103
  24 C17      -0.5527   -10.1366    -5.9237  C.ar    1  <O>11      -0.0479
  25 C18       0.7874    -9.7806    -5.7650  C.ar    1  <O>11      -0.0403
  26 H1        3.3392    -9.2907    -5.1550  H       1  <O>11       0.1423
  27 H2        3.3420   -10.0924    -3.5807  H       1  <O>11       0.1423
  28 H3       -2.7830   -10.3280    -6.9780  H       1  <O>11       0.1470
  29 H4       -5.0218   -10.8455    -7.3979  H       1  <O>11       0.0282
  30 H5       -5.7862   -12.9599    -6.5308  H       1  <O>11      -0.0873
  31 H6       -4.4775   -13.0563    -5.5035  H       1  <O>11      -0.0873
  32 H7       -4.2483   -13.1151    -7.1525  H       1  <O>11      -0.0873
  33 H8       -5.4084    -9.5211    -5.3376  H       1  <O>11       0.0268
  34 H9       -5.1581   -10.9822    -4.3520  H       1  <O>11       0.0268
  35 H10      -7.0663   -12.0717    -5.4789  H       1  <O>11       0.0343
  36 H11      -7.3189   -10.6108    -6.4644  H       1  <O>11       0.0343
  37 H12      -9.5620   -11.1679    -5.1146  H       1  <O>11       0.1700
  38 H13       1.3082   -11.1481    -2.7415  H       1  <O>11       0.0636
  39 H14      -1.0275   -11.7615    -3.0324  H       1  <O>11       0.0626
  40 H15      -6.2238    -8.2124    -1.5870  H       1  <O>11       0.0639
  41 H16      -7.4217    -7.1907     0.2450  H       1  <O>11       0.0618
  42 H17      -9.8245    -7.4765     0.4332  H       1  <O>11       0.0618
  43 H18     -11.0049    -8.7980    -1.2243  H       1  <O>11       0.0626
  44 H19      -1.0552    -9.8628    -6.7825  H       1  <O>11       0.0626
  45 H20       1.2744    -9.2420    -6.4983  H       1  <O>11       0.0636
@<TRIPOS>BOND
     1     1     2    1
     2     2     3   ar
     3     3     4   ar
     4     4     5   ar
     5     5     6    1
     6     6     7    2
     7     6     8   am
     8     8     9    1
     9     9    10    1
    10     9    11    1
    11    11    12    1
    12    12    13    1
    13    13    14   ar
    14    14    15   ar
    15    15    16   ar
    16    16    17   ar
    17    17    18   ar
    18    18    19   ar
    19    19    20   ar
    20    15    20   ar
    21    20    21   ar
    22    21    22    2
    23    21    23   ar
    24    13    23   ar
    25     5    24   ar
    26    24    25   ar
    27     2    25   ar
    28     1    26    1
    29     1    27    1
    30     8    28    1
    31     9    29    1
    32    10    30    1
    33    10    31    1
    34    10    32    1
    35    11    33    1
    36    11    34    1
    37    12    35    1
    38    12    36    1
    39    23    37    1
    40     3    38    1
    41     4    39    1
    42    16    40    1
    43    17    41    1
    44    18    42    1
    45    19    43    1
    46    24    44    1
    47    25    45    1
@<TRIPOS>MOLECULE
mol71_1_18
 45 47 0 0 0
SMALL
USER_CHARGES
****
VDW energy = -191.17
@<TRIPOS>ATOM
   1 N1        2.8495    -9.8143    -4.4295  N.pl3   1  <O>11      -0.3580
   2 C1        1.4617   -10.1611    -4.6036  C.ar    1  <O>11       0.0246
   3 C2        0.8050   -10.8783    -3.6012  C.ar    1  <O>11      -0.0403
   4 C3       -0.5391   -11.2290    -3.7692  C.ar    1  <O>11      -0.0479
   5 C4       -1.2224   -10.8607    -4.9311  C.ar    1  <O>11       0.0367
   6 C5       -2.6120   -11.2220    -5.1120  C.2     1  <O>11       0.2426
   7 O1       -3.4937   -10.4689    -4.7262  O.2     1  <O>11      -0.2703
   8 N2       -2.9381   -12.4070    -5.7136  N.am    1  <O>11      -0.3259
   9 C6       -4.3384   -12.7718    -5.8949  C.3     1  <O>11      -0.0151
  10 N3       -4.4237   -14.0986    -6.5687  N.4     1  <O>11       0.3901
  11 C7       -5.0260   -12.8480    -4.5295  C.3     1  <O>11      -0.0439
  12 C8       -6.4856   -13.2275    -4.7179  C.3     1  <O>11       0.0054
  13 C9       -7.1520   -13.3014    -3.3926  C.ar    1  <O>11       0.1103
  14 N4       -6.4415   -13.0444    -2.2880  N.ar    1  <O>11      -0.2337
  15 C10      -7.0273   -13.1078    -1.0831  C.ar    1  <O>11       0.0781
  16 C11      -6.2720   -12.8374     0.0518  C.ar    1  <O>11      -0.0355
  17 C12      -6.8202   -12.8870     1.3370  C.ar    1  <O>11      -0.0597
  18 C13      -8.1600   -13.2121     1.5039  C.ar    1  <O>11      -0.0609
  19 C14      -8.9405   -13.4871     0.3846  C.ar    1  <O>11      -0.0474
  20 C15      -8.3733   -13.4358    -0.9134  C.ar    1  <O>11       0.0647
  21 C16      -9.0572   -13.6920    -2.1011  C.ar    1  <O>11       0.2592
  22 O2      -10.4176   -14.0293    -1.9711  O.2     1  <O>11      -0.2672
  23 N5       -8.4931   -13.6331    -3.3235  N.ar    1  <O>11      -0.3103
  24 C17      -0.5527   -10.1366    -5.9237  C.ar    1  <O>11      -0.0479
  25 C18       0.7874    -9.7806    -5.7650  C.ar    1  <O>11      -0.0403
  26 H1        3.3392    -9.2907    -5.1550  H       1  <O>11       0.1423
  27 H2        3.3420   -10.0924    -3.5807  H       1  <O>11       0.1423
  28 H3       -2.2017   -13.0359    -6.0351  H       1  <O>11       0.1470
  29 H4       -4.8332   -12.0198    -6.5090  H       1  <O>11       0.0282
  30 H5       -5.4032   -14.3538    -6.6948  H       1  <O>11      -0.0873
  31 H6       -3.9595   -14.8025    -5.9934  H       1  <O>11      -0.0873
  32 H7       -3.9652   -14.0485    -7.4789  H       1  <O>11      -0.0873
  33 H8       -4.9625   -11.8772    -4.0369  H       1  <O>11       0.0268
  34 H9       -4.5312   -13.5999    -3.9154  H       1  <O>11       0.0268
  35 H10      -6.5468   -14.1980    -5.2108  H       1  <O>11       0.0343
  36 H11      -6.9804   -12.4756    -5.3321  H       1  <O>11       0.0343
  37 H12      -8.9912   -13.8168    -4.1826  H       1  <O>11       0.1700
  38 H13       1.3082   -11.1481    -2.7415  H       1  <O>11       0.0636
  39 H14      -1.0275   -11.7615    -3.0324  H       1  <O>11       0.0626
  40 H15      -5.2755   -12.5923    -0.0575  H       1  <O>11       0.0639
  41 H16      -6.2309   -12.6827     2.1592  H       1  <O>11       0.0618
  42 H17      -8.5731   -13.2495     2.4489  H       1  <O>11       0.0618
  43 H18      -9.9370   -13.7295     0.5004  H       1  <O>11       0.0626
  44 H19      -1.0552    -9.8628    -6.7825  H       1  <O>11       0.0626
  45 H20       1.2744    -9.2420    -6.4983  H       1  <O>11       0.0636
@<TRIPOS>BOND
     1     1     2    1
     2     2     3   ar
     3     3     4   ar
     4     4     5   ar
     5     5     6    1
     6     6     7    2
     7     6     8   am
     8     8     9    1
     9     9    10    1
    10     9    11    1
    11    11    12    1
    12    12    13    1
    13    13    14   ar
    14    14    15   ar
    15    15    16   ar
    16    16    17   ar
    17    17    18   ar
    18    18    19   ar
    19    19    20   ar
    20    15    20   ar
    21    20    21   ar
    22    21    22    2
    23    21    23   ar
    24    13    23   ar
    25     5    24   ar
    26    24    25   ar
    27     2    25   ar
    28     1    26    1
    29     1    27    1
    30     8    28    1
    31     9    29    1
    32    10    30    1
    33    10    31    1
    34    10    32    1
    35    11    33    1
    36    11    34    1
    37    12    35    1
    38    12    36    1
    39    23    37    1
    40     3    38    1
    41     4    39    1
    42    16    40    1
    43    17    41    1
    44    18    42    1
    45    19    43    1
    46    24    44    1
    47    25    45    1
@<TRIPOS>MOLECULE
mol71_1_19
 45 47 0 0 0
SMALL
USER_CHARGES
****
VDW energy = -191.16
@<TRIPOS>ATOM
   1 N1        2.8495    -9.8143    -4.4295  N.pl3   1  <O>11      -0.3580
   2 C1        1.4617   -10.1611    -4.6036  C.ar    1  <O>11       0.0246
   3 C2        0.8050   -10.8783    -3.6012  C.ar    1  <O>11      -0.0403
   4 C3       -0.5391   -11.2290    -3.7692  C.ar    1  <O>11      -0.0479
   5 C4       -1.2224   -10.8607    -4.9311  C.ar    1  <O>11       0.0367
   6 C5       -2.6120   -11.2220    -5.1120  C.2     1  <O>11       0.2426
   7 O1       -2.9026   -12.2799    -5.6504  O.2     1  <O>11      -0.2703
   8 N2       -3.5998   -10.3786    -4.6815  N.am    1  <O>11      -0.3259
   9 C6       -5.0002   -10.7420    -4.8647  C.3     1  <O>11      -0.0151
  10 N3       -5.8702    -9.6636    -4.3153  N.4     1  <O>11       0.3901
  11 C7       -5.2894   -10.9198    -6.3573  C.3     1  <O>11      -0.0439
  12 C8       -6.7486   -11.2991    -6.5488  C.3     1  <O>11       0.0054
  13 C9       -7.0284   -11.4713    -7.9974  C.ar    1  <O>11       0.1103
  14 N4       -6.0402   -11.2866    -8.8809  N.ar    1  <O>11      -0.2337
  15 C10      -6.2759   -11.4368   -10.1927  C.ar    1  <O>11       0.0781
  16 C11      -5.2362   -11.2405   -11.0939  C.ar    1  <O>11      -0.0355
  17 C12      -5.4142   -11.3797   -12.4736  C.ar    1  <O>11      -0.0597
  18 C13      -6.6609   -11.7271   -12.9773  C.ar    1  <O>11      -0.0609
  19 C14      -7.7203   -11.9305   -12.0975  C.ar    1  <O>11      -0.0474
  20 C15      -7.5285   -11.7845   -10.7006  C.ar    1  <O>11       0.0647
  21 C16      -8.5137   -11.9623    -9.7302  C.ar    1  <O>11       0.2592
  22 O2       -9.7925   -12.3112   -10.2038  O.2     1  <O>11      -0.2672
  23 N5       -8.3028   -11.8196    -8.4070  N.ar    1  <O>11      -0.3103
  24 C17      -0.5527   -10.1366    -5.9237  C.ar    1  <O>11      -0.0479
  25 C18       0.7874    -9.7806    -5.7650  C.ar    1  <O>11      -0.0403
  26 H1        3.3392    -9.2907    -5.1550  H       1  <O>11       0.1423
  27 H2        3.3420   -10.0924    -3.5807  H       1  <O>11       0.1423
  28 H3       -3.3570    -9.4952    -4.2325  H       1  <O>11       0.1470
  29 H4       -5.2048   -11.6758    -4.3416  H       1  <O>11       0.0282
  30 H5       -6.8496    -9.9177    -4.4442  H       1  <O>11      -0.0873
  31 H6       -5.6777    -8.7889    -4.8051  H       1  <O>11      -0.0873
  32 H7       -5.6777    -9.5444    -3.3203  H       1  <O>11      -0.0873
  33 H8       -4.6521   -11.7084    -6.7587  H       1  <O>11       0.0268
  34 H9       -5.0848    -9.9860    -6.8803  H       1  <O>11       0.0268
  35 H10      -7.3839   -10.5097    -6.1466  H       1  <O>11       0.0343
  36 H11      -6.9532   -12.2329    -6.0257  H       1  <O>11       0.0343
  37 H12      -9.0176   -11.9513    -7.7058  H       1  <O>11       0.1700
  38 H13       1.3082   -11.1481    -2.7415  H       1  <O>11       0.0636
  39 H14      -1.0275   -11.7615    -3.0324  H       1  <O>11       0.0626
  40 H15      -4.3038   -10.9841   -10.7335  H       1  <O>11       0.0639
  41 H16      -4.6215   -11.2247   -13.1160  H       1  <O>11       0.0618
  42 H17      -6.8007   -11.8334   -13.9942  H       1  <O>11       0.0618
  43 H18      -8.6498   -12.1889   -12.4640  H       1  <O>11       0.0626
  44 H19      -1.0552    -9.8628    -6.7825  H       1  <O>11       0.0626
  45 H20       1.2744    -9.2420    -6.4983  H       1  <O>11       0.0636
@<TRIPOS>BOND
     1     1     2    1
     2     2     3   ar
     3     3     4   ar
     4     4     5   ar
     5     5     6    1
     6     6     7    2
     7     6     8   am
     8     8     9    1
     9     9    10    1
    10     9    11    1
    11    11    12    1
    12    12    13    1
    13    13    14   ar
    14    14    15   ar
    15    15    16   ar
    16    16    17   ar
    17    17    18   ar
    18    18    19   ar
    19    19    20   ar
    20    15    20   ar
    21    20    21   ar
    22    21    22    2
    23    21    23   ar
    24    13    23   ar
    25     5    24   ar
    26    24    25   ar
    27     2    25   ar
    28     1    26    1
    29     1    27    1
    30     8    28    1
    31     9    29    1
    32    10    30    1
    33    10    31    1
    34    10    32    1
    35    11    33    1
    36    11    34    1
    37    12    35    1
    38    12    36    1
    39    23    37    1
    40     3    38    1
    41     4    39    1
    42    16    40    1
    43    17    41    1
    44    18    42    1
    45    19    43    1
    46    24    44    1
    47    25    45    1
@<TRIPOS>MOLECULE
mol71_1_20
 45 47 0 0 0
SMALL
USER_CHARGES
****
VDW energy = -188.45
@<TRIPOS>ATOM
   1 N1        2.8495    -9.8143    -4.4295  N.pl3   1  <O>11      -0.3580
   2 C1        1.4617   -10.1611    -4.6036  C.ar    1  <O>11       0.0246
   3 C2        0.8050   -10.8783    -3.6012  C.ar    1  <O>11      -0.0403
   4 C3       -0.5391   -11.2290    -3.7692  C.ar    1  <O>11      -0.0479
   5 C4       -1.2224   -10.8607    -4.9311  C.ar    1  <O>11       0.0367
   6 C5       -2.6120   -11.2220    -5.1120  C.2     1  <O>11       0.2426
   7 O1       -3.3886   -10.4262    -5.6189  O.2     1  <O>11      -0.2703
   8 N2       -3.0560   -12.4537    -4.7143  N.am    1  <O>11      -0.3259
   9 C6       -4.4566   -12.8176    -4.8955  C.3     1  <O>11      -0.0151
  10 N3       -4.6818   -14.1995    -4.3844  N.4     1  <O>11       0.3901
  11 C7       -5.3418   -11.8373    -4.1221  C.3     1  <O>11      -0.0439
  12 C8       -6.8017   -12.2155    -4.3110  C.3     1  <O>11       0.0054
  13 C9       -7.6600   -11.2638    -3.5601  C.ar    1  <O>11       0.1103
  14 N4       -7.0867   -10.2722    -2.8680  N.ar    1  <O>11      -0.2337
  15 C10      -7.8469    -9.4047    -2.1833  C.ar    1  <O>11       0.0781
  16 C11      -7.2322    -8.3819    -1.4709  C.ar    1  <O>11      -0.0355
  17 C12      -7.9651    -7.4455    -0.7356  C.ar    1  <O>11      -0.0597
  18 C13      -9.3515    -7.5225    -0.7070  C.ar    1  <O>11      -0.0609
  19 C14      -9.9938    -8.5364    -1.4120  C.ar    1  <O>11      -0.0474
  20 C15      -9.2402    -9.4815    -2.1523  C.ar    1  <O>11       0.0647
  21 C16      -9.7749   -10.5352    -2.8923  C.ar    1  <O>11       0.2592
  22 O2      -11.1780   -10.6477    -2.8834  O.2     1  <O>11      -0.2672
  23 N5       -9.0342   -11.4186    -3.5900  N.ar    1  <O>11      -0.3103
  24 C17      -0.5527   -10.1366    -5.9237  C.ar    1  <O>11      -0.0479
  25 C18       0.7874    -9.7806    -5.7650  C.ar    1  <O>11      -0.0403
  26 H1        3.3392    -9.2907    -5.1550  H       1  <O>11       0.1423
  27 H2        3.3420   -10.0924    -3.5807  H       1  <O>11       0.1423
  28 H3       -2.4075   -13.1178    -4.2906  H       1  <O>11       0.1470
  29 H4       -4.7086   -12.7762    -5.9548  H       1  <O>11       0.0282
  30 H5       -5.6616   -14.4535    -4.5107  H       1  <O>11      -0.0873
  31 H6       -4.4449   -14.2380    -3.3923  H       1  <O>11      -0.0873
  32 H7       -4.0917   -14.8535    -4.8996  H       1  <O>11      -0.0873
  33 H8       -5.1760   -10.8263    -4.4959  H       1  <O>11       0.0268
  34 H9       -5.0897   -11.8786    -3.0628  H       1  <O>11       0.0268
  35 H10      -6.9653   -13.2264    -3.9370  H       1  <O>11       0.0343
  36 H11      -7.0537   -12.1742    -5.3703  H       1  <O>11       0.0343
  37 H12      -9.4241   -12.1797    -4.1273  H       1  <O>11       0.1700
  38 H13       1.3082   -11.1481    -2.7415  H       1  <O>11       0.0636
  39 H14      -1.0275   -11.7615    -3.0324  H       1  <O>11       0.0626
  40 H15      -6.2027    -8.3114    -1.4850  H       1  <O>11       0.0639
  41 H16      -7.4775    -6.6993    -0.2157  H       1  <O>11       0.0618
  42 H17      -9.9003    -6.8344    -0.1681  H       1  <O>11       0.0618
  43 H18     -11.0238    -8.6003    -1.3957  H       1  <O>11       0.0626
  44 H19      -1.0552    -9.8628    -6.7825  H       1  <O>11       0.0626
  45 H20       1.2744    -9.2420    -6.4983  H       1  <O>11       0.0636
@<TRIPOS>BOND
     1     1     2    1
     2     2     3   ar
     3     3     4   ar
     4     4     5   ar
     5     5     6    1
     6     6     7    2
     7     6     8   am
     8     8     9    1
     9     9    10    1
    10     9    11    1
    11    11    12    1
    12    12    13    1
    13    13    14   ar
    14    14    15   ar
    15    15    16   ar
    16    16    17   ar
    17    17    18   ar
    18    18    19   ar
    19    19    20   ar
    20    15    20   ar
    21    20    21   ar
    22    21    22    2
    23    21    23   ar
    24    13    23   ar
    25     5    24   ar
    26    24    25   ar
    27     2    25   ar
    28     1    26    1
    29     1    27    1
    30     8    28    1
    31     9    29    1
    32    10    30    1
    33    10    31    1
    34    10    32    1
    35    11    33    1
    36    11    34    1
    37    12    35    1
    38    12    36    1
    39    23    37    1
    40     3    38    1
    41     4    39    1
    42    16    40    1
    43    17    41    1
    44    18    42    1
    45    19    43    1
    46    24    44    1
    47    25    45    1
@<TRIPOS>MOLECULE
mol71_1_21
 45 47 0 0 0
SMALL
USER_CHARGES
****
VDW energy = -187.65
@<TRIPOS>ATOM
   1 N1        2.8495    -9.8143    -4.4295  N.pl3   1  <O>11      -0.3580
   2 C1        1.4617   -10.1611    -4.6036  C.ar    1  <O>11       0.0246
   3 C2        0.8050   -10.8783    -3.6012  C.ar    1  <O>11      -0.0403
   4 C3       -0.5391   -11.2290    -3.7692  C.ar    1  <O>11      -0.0479
   5 C4       -1.2224   -10.8607    -4.9311  C.ar    1  <O>11       0.0367
   6 C5       -2.6120   -11.2220    -5.1120  C.2     1  <O>11       0.2426
   7 O1       -3.1960   -11.8550    -4.2450  O.2     1  <O>11      -0.2703
   8 N2       -3.2710   -10.8560    -6.2540  N.am    1  <O>11      -0.3259
   9 C6       -4.6710   -11.2210    -6.4370  C.3     1  <O>11      -0.0151
  10 N3       -5.1512   -10.7085    -7.7517  N.4     1  <O>11       0.3901
  11 C7       -4.8089   -12.7450    -6.4026  C.3     1  <O>11      -0.0439
  12 C8       -6.2679   -13.1260    -6.5926  C.3     1  <O>11       0.0054
  13 C9       -6.4008   -14.6050    -6.5592  C.ar    1  <O>11       0.1103
  14 N4       -6.2976   -15.2969    -7.7001  N.ar    1  <O>11      -0.2337
  15 C10      -6.4163   -16.6329    -7.6881  C.ar    1  <O>11       0.0781
  16 C11      -6.3060   -17.3330    -8.8836  C.ar    1  <O>11      -0.0355
  17 C12      -6.4210   -18.7251    -8.9415  C.ar    1  <O>11      -0.0597
  18 C13      -6.6499   -19.4478    -7.7779  C.ar    1  <O>11      -0.0609
  19 C14      -6.7641   -18.7726    -6.5660  C.ar    1  <O>11      -0.0474
  20 C15      -6.6478   -17.3606    -6.5198  C.ar    1  <O>11       0.0647
  21 C16      -6.7453   -16.5824    -5.3671  C.ar    1  <O>11       0.2592
  22 O2       -6.9815   -17.2805    -4.1678  O.2     1  <O>11      -0.2672
  23 N5       -6.6279   -15.2401    -5.3516  N.ar    1  <O>11      -0.3103
  24 C17      -0.5527   -10.1366    -5.9237  C.ar    1  <O>11      -0.0479
  25 C18       0.7874    -9.7806    -5.7650  C.ar    1  <O>11      -0.0403
  26 H1        3.3392    -9.2907    -5.1550  H       1  <O>11       0.1423
  27 H2        3.3420   -10.0924    -3.5807  H       1  <O>11       0.1423
  28 H3       -2.7830   -10.3280    -6.9780  H       1  <O>11       0.1470
  29 H4       -5.2679   -10.7844    -5.6368  H       1  <O>11       0.0282
  30 H5       -6.1302   -10.9645    -7.8797  H       1  <O>11      -0.0873
  31 H6       -4.5912   -11.1171    -8.5010  H       1  <O>11      -0.0873
  32 H7       -5.0592    -9.6925    -7.7753  H       1  <O>11      -0.0873
  33 H8       -4.4568   -13.1194    -5.4408  H       1  <O>11       0.0268
  34 H9       -4.2120   -13.1817    -7.2029  H       1  <O>11       0.0268
  35 H10      -6.6180   -12.7506    -7.5544  H       1  <O>11       0.0343
  36 H11      -6.8649   -12.6894    -5.7924  H       1  <O>11       0.0343
  37 H12      -6.6965   -14.6788    -4.5148  H       1  <O>11       0.1700
  38 H13       1.3082   -11.1481    -2.7415  H       1  <O>11       0.0636
  39 H14      -1.0275   -11.7615    -3.0324  H       1  <O>11       0.0626
  40 H15      -6.1337   -16.8089    -9.7558  H       1  <O>11       0.0639
  41 H16      -6.3361   -19.2143    -9.8462  H       1  <O>11       0.0618
  42 H17      -6.7345   -20.4758    -7.8113  H       1  <O>11       0.0618
  43 H18      -6.9342   -19.3025    -5.6969  H       1  <O>11       0.0626
  44 H19      -1.0552    -9.8628    -6.7825  H       1  <O>11       0.0626
  45 H20       1.2744    -9.2420    -6.4983  H       1  <O>11       0.0636
@<TRIPOS>BOND
     1     1     2    1
     2     2     3   ar
     3     3     4   ar
     4     4     5   ar
     5     5     6    1
     6     6     7    2
     7     6     8   am
     8     8     9    1
     9     9    10    1
    10     9    11    1
    11    11    12    1
    12    12    13    1
    13    13    14   ar
    14    14    15   ar
    15    15    16   ar
    16    16    17   ar
    17    17    18   ar
    18    18    19   ar
    19    19    20   ar
    20    15    20   ar
    21    20    21   ar
    22    21    22    2
    23    21    23   ar
    24    13    23   ar
    25     5    24   ar
    26    24    25   ar
    27     2    25   ar
    28     1    26    1
    29     1    27    1
    30     8    28    1
    31     9    29    1
    32    10    30    1
    33    10    31    1
    34    10    32    1
    35    11    33    1
    36    11    34    1
    37    12    35    1
    38    12    36    1
    39    23    37    1
    40     3    38    1
    41     4    39    1
    42    16    40    1
    43    17    41    1
    44    18    42    1
    45    19    43    1
    46    24    44    1
    47    25    45    1
@<TRIPOS>MOLECULE
mol71_1_22
 45 47 0 0 0
SMALL
USER_CHARGES
****
VDW energy = -183.67
@<TRIPOS>ATOM
   1 N1        2.8495    -9.8143    -4.4295  N.pl3   1  <O>11      -0.3580
   2 C1        1.4617   -10.1611    -4.6036  C.ar    1  <O>11       0.0246
   3 C2        0.8050   -10.8783    -3.6012  C.ar    1  <O>11      -0.0403
   4 C3       -0.5391   -11.2290    -3.7692  C.ar    1  <O>11      -0.0479
   5 C4       -1.2224   -10.8607    -4.9311  C.ar    1  <O>11       0.0367
   6 C5       -2.6120   -11.2220    -5.1120  C.2     1  <O>11       0.2426
   7 O1       -3.1960   -11.8550    -4.2450  O.2     1  <O>11      -0.2703
   8 N2       -3.2710   -10.8560    -6.2540  N.am    1  <O>11      -0.3259
   9 C6       -4.6710   -11.2210    -6.4370  C.3     1  <O>11      -0.0151
  10 N3       -5.1510   -10.7090    -7.7520  N.4     1  <O>11       0.3901
  11 C7       -4.8090   -12.7450    -6.4020  C.3     1  <O>11      -0.0439
  12 C8       -6.2680   -13.1260    -6.5920  C.3     1  <O>11       0.0054
  13 C9       -6.4010   -14.6050    -6.5580  C.ar    1  <O>11       0.1103
  14 N4       -5.3080   -15.3560    -6.3780  N.ar    1  <O>11      -0.2337
  15 C10      -5.4100   -16.6930    -6.3460  C.ar    1  <O>11       0.0781
  16 C11      -4.2630   -17.4550    -6.1580  C.ar    1  <O>11      -0.0355
  17 C12      -4.2990   -18.8520    -6.1160  C.ar    1  <O>11      -0.0597
  18 C13      -5.5100   -19.5160    -6.2620  C.ar    1  <O>11      -0.0609
  19 C14      -6.6750   -18.7780    -6.4510  C.ar    1  <O>11      -0.0474
  20 C15      -6.6260   -17.3620    -6.4940  C.ar    1  <O>11       0.0647
  21 C16      -7.7250   -16.5240    -6.6780  C.ar    1  <O>11       0.2592
  22 O2       -8.9700   -17.1620    -6.8340  O.2     1  <O>11      -0.2672
  23 N5       -7.6500   -15.1790    -6.7120  N.ar    1  <O>11      -0.3103
  24 C17      -0.5527   -10.1366    -5.9237  C.ar    1  <O>11      -0.0479
  25 C18       0.7874    -9.7806    -5.7650  C.ar    1  <O>11      -0.0403
  26 H1        3.3392    -9.2907    -5.1550  H       1  <O>11       0.1423
  27 H2        3.3420   -10.0924    -3.5807  H       1  <O>11       0.1423
  28 H3       -2.7830   -10.3280    -6.9780  H       1  <O>11       0.1470
  29 H4       -5.2680   -10.7840    -5.6370  H       1  <O>11       0.0282
  30 H5       -6.1300   -10.9650    -7.8800  H       1  <O>11      -0.0873
  31 H6       -4.5910   -11.1180    -8.5010  H       1  <O>11      -0.0873
  32 H7       -5.0590    -9.6930    -7.7760  H       1  <O>11      -0.0873
  33 H8       -4.4570   -13.1190    -5.4400  H       1  <O>11       0.0268
  34 H9       -4.2120   -13.1820    -7.2020  H       1  <O>11       0.0268
  35 H10      -6.6180   -12.7510    -7.5540  H       1  <O>11       0.0343
  36 H11      -6.8650   -12.6890    -5.7920  H       1  <O>11       0.0343
  37 H12      -8.4480   -14.5740    -6.8430  H       1  <O>11       0.1700
  38 H13       1.3082   -11.1481    -2.7415  H       1  <O>11       0.0636
  39 H14      -1.0275   -11.7615    -3.0324  H       1  <O>11       0.0626
  40 H15      -3.3565   -16.9747    -6.0459  H       1  <O>11       0.0639
  41 H16      -3.4283   -19.3882    -5.9769  H       1  <O>11       0.0618
  42 H17      -5.5458   -20.5469    -6.2307  H       1  <O>11       0.0618
  43 H18      -7.5788   -19.2641    -6.5603  H       1  <O>11       0.0626
  44 H19      -1.0552    -9.8628    -6.7825  H       1  <O>11       0.0626
  45 H20       1.2744    -9.2420    -6.4983  H       1  <O>11       0.0636
@<TRIPOS>BOND
     1     1     2    1
     2     2     3   ar
     3     3     4   ar
     4     4     5   ar
     5     5     6    1
     6     6     7    2
     7     6     8   am
     8     8     9    1
     9     9    10    1
    10     9    11    1
    11    11    12    1
    12    12    13    1
    13    13    14   ar
    14    14    15   ar
    15    15    16   ar
    16    16    17   ar
    17    17    18   ar
    18    18    19   ar
    19    19    20   ar
    20    15    20   ar
    21    20    21   ar
    22    21    22    2
    23    21    23   ar
    24    13    23   ar
    25     5    24   ar
    26    24    25   ar
    27     2    25   ar
    28     1    26    1
    29     1    27    1
    30     8    28    1
    31     9    29    1
    32    10    30    1
    33    10    31    1
    34    10    32    1
    35    11    33    1
    36    11    34    1
    37    12    35    1
    38    12    36    1
    39    23    37    1
    40     3    38    1
    41     4    39    1
    42    16    40    1
    43    17    41    1
    44    18    42    1
    45    19    43    1
    46    24    44    1
    47    25    45    1
@<TRIPOS>MOLECULE
mol71_1_23
 45 47 0 0 0
SMALL
USER_CHARGES
****
VDW energy = -182.30
@<TRIPOS>ATOM
   1 N1        2.8495    -9.8143    -4.4295  N.pl3   1  <O>11      -0.3580
   2 C1        1.4617   -10.1611    -4.6036  C.ar    1  <O>11       0.0246
   3 C2        0.8050   -10.8783    -3.6012  C.ar    1  <O>11      -0.0403
   4 C3       -0.5391   -11.2290    -3.7692  C.ar    1  <O>11      -0.0479
   5 C4       -1.2224   -10.8607    -4.9311  C.ar    1  <O>11       0.0367
   6 C5       -2.6120   -11.2220    -5.1120  C.2     1  <O>11       0.2426
   7 O1       -3.4937   -10.4689    -4.7262  O.2     1  <O>11      -0.2703
   8 N2       -2.9381   -12.4070    -5.7136  N.am    1  <O>11      -0.3259
   9 C6       -4.3384   -12.7718    -5.8949  C.3     1  <O>11      -0.0151
  10 N3       -4.4237   -14.0986    -6.5687  N.4     1  <O>11       0.3901
  11 C7       -5.0260   -12.8480    -4.5295  C.3     1  <O>11      -0.0439
  12 C8       -6.4856   -13.2275    -4.7179  C.3     1  <O>11       0.0054
  13 C9       -7.1587   -12.2019    -5.5553  C.ar    1  <O>11       0.1103
  14 N4       -6.4526   -11.1571    -6.0035  N.ar    1  <O>11      -0.2337
  15 C10      -7.0451   -10.2212    -6.7597  C.ar    1  <O>11       0.0781
  16 C11      -6.2943    -9.1439    -7.2152  C.ar    1  <O>11      -0.0355
  17 C12      -6.8502    -8.1336    -8.0057  C.ar    1  <O>11      -0.0597
  18 C13      -8.1920    -8.1930    -8.3590  C.ar    1  <O>11      -0.0609
  19 C14      -8.9678    -9.2610    -7.9173  C.ar    1  <O>11      -0.0474
  20 C15      -8.3938   -10.2786    -7.1145  C.ar    1  <O>11       0.0647
  21 C16      -9.0729   -11.3899    -6.6168  C.ar    1  <O>11       0.2592
  22 O2      -10.4371   -11.4820    -6.9511  O.2     1  <O>11      -0.2672
  23 N5       -8.5010   -12.3448    -5.8572  N.ar    1  <O>11      -0.3103
  24 C17      -0.5527   -10.1366    -5.9237  C.ar    1  <O>11      -0.0479
  25 C18       0.7874    -9.7806    -5.7650  C.ar    1  <O>11      -0.0403
  26 H1        3.3392    -9.2907    -5.1550  H       1  <O>11       0.1423
  27 H2        3.3420   -10.0924    -3.5807  H       1  <O>11       0.1423
  28 H3       -2.2017   -13.0359    -6.0351  H       1  <O>11       0.1470
  29 H4       -4.8332   -12.0198    -6.5090  H       1  <O>11       0.0282
  30 H5       -5.4032   -14.3538    -6.6948  H       1  <O>11      -0.0873
  31 H6       -3.9595   -14.8025    -5.9934  H       1  <O>11      -0.0873
  32 H7       -3.9652   -14.0485    -7.4789  H       1  <O>11      -0.0873
  33 H8       -4.9625   -11.8772    -4.0369  H       1  <O>11       0.0268
  34 H9       -4.5312   -13.5999    -3.9154  H       1  <O>11       0.0268
  35 H10      -6.9744   -13.2812    -3.7449  H       1  <O>11       0.0343
  36 H11      -6.5483   -14.1973    -5.2108  H       1  <O>11       0.0343
  37 H12      -8.9945   -13.1502    -5.4999  H       1  <O>11       0.1700
  38 H13       1.3082   -11.1481    -2.7415  H       1  <O>11       0.0636
  39 H14      -1.0275   -11.7615    -3.0324  H       1  <O>11       0.0626
  40 H15      -5.2954    -9.0881    -6.9621  H       1  <O>11       0.0639
  41 H16      -6.2652    -7.3459    -8.3257  H       1  <O>11       0.0618
  42 H17      -8.6099    -7.4523    -8.9435  H       1  <O>11       0.0618
  43 H18      -9.9656    -9.3123    -8.1757  H       1  <O>11       0.0626
  44 H19      -1.0552    -9.8628    -6.7825  H       1  <O>11       0.0626
  45 H20       1.2744    -9.2420    -6.4983  H       1  <O>11       0.0636
@<TRIPOS>BOND
     1     1     2    1
     2     2     3   ar
     3     3     4   ar
     4     4     5   ar
     5     5     6    1
     6     6     7    2
     7     6     8   am
     8     8     9    1
     9     9    10    1
    10     9    11    1
    11    11    12    1
    12    12    13    1
    13    13    14   ar
    14    14    15   ar
    15    15    16   ar
    16    16    17   ar
    17    17    18   ar
    18    18    19   ar
    19    19    20   ar
    20    15    20   ar
    21    20    21   ar
    22    21    22    2
    23    21    23   ar
    24    13    23   ar
    25     5    24   ar
    26    24    25   ar
    27     2    25   ar
    28     1    26    1
    29     1    27    1
    30     8    28    1
    31     9    29    1
    32    10    30    1
    33    10    31    1
    34    10    32    1
    35    11    33    1
    36    11    34    1
    37    12    35    1
    38    12    36    1
    39    23    37    1
    40     3    38    1
    41     4    39    1
    42    16    40    1
    43    17    41    1
    44    18    42    1
    45    19    43    1
    46    24    44    1
    47    25    45    1
@<TRIPOS>MOLECULE
mol71_1_24
 45 47 0 0 0
SMALL
USER_CHARGES
****
VDW energy = -182.29
@<TRIPOS>ATOM
   1 N1        2.8495    -9.8143    -4.4295  N.pl3   1  <O>11      -0.3580
   2 C1        1.4617   -10.1611    -4.6036  C.ar    1  <O>11       0.0246
   3 C2        0.8050   -10.8783    -3.6012  C.ar    1  <O>11      -0.0403
   4 C3       -0.5391   -11.2290    -3.7692  C.ar    1  <O>11      -0.0479
   5 C4       -1.2224   -10.8607    -4.9311  C.ar    1  <O>11       0.0367
   6 C5       -2.6120   -11.2220    -5.1120  C.2     1  <O>11       0.2426
   7 O1       -2.9026   -12.2799    -5.6504  O.2     1  <O>11      -0.2703
   8 N2       -3.5998   -10.3786    -4.6815  N.am    1  <O>11      -0.3259
   9 C6       -5.0002   -10.7420    -4.8647  C.3     1  <O>11      -0.0151
  10 N3       -5.8702    -9.6636    -4.3153  N.4     1  <O>11       0.3901
  11 C7       -5.2894   -10.9198    -6.3573  C.3     1  <O>11      -0.0439
  12 C8       -6.7486   -11.2991    -6.5488  C.3     1  <O>11       0.0054
  13 C9       -7.0261   -12.5720    -5.8352  C.ar    1  <O>11       0.1103
  14 N4       -6.0367   -13.1759    -5.1663  N.ar    1  <O>11      -0.2337
  15 C10      -6.2696   -14.3265    -4.5175  C.ar    1  <O>11       0.0781
  16 C11      -5.2288   -14.9379    -3.8288  C.ar    1  <O>11      -0.0355
  17 C12      -5.4033   -16.1381    -3.1334  C.ar    1  <O>11      -0.0597
  18 C13      -6.6492   -16.7515    -3.1170  C.ar    1  <O>11      -0.0609
  19 C14      -7.7101   -16.1610    -3.7977  C.ar    1  <O>11      -0.0474
  20 C15      -7.5207   -14.9450    -4.5012  C.ar    1  <O>11       0.0647
  21 C16      -8.5073   -14.2667    -5.2157  C.ar    1  <O>11       0.2592
  22 O2       -9.7832   -14.8611    -5.2251  O.2     1  <O>11      -0.2672
  23 N5       -8.3001   -13.1093    -5.8739  N.ar    1  <O>11      -0.3103
  24 C17      -0.5527   -10.1366    -5.9237  C.ar    1  <O>11      -0.0479
  25 C18       0.7874    -9.7806    -5.7650  C.ar    1  <O>11      -0.0403
  26 H1        3.3392    -9.2907    -5.1550  H       1  <O>11       0.1423
  27 H2        3.3420   -10.0924    -3.5807  H       1  <O>11       0.1423
  28 H3       -3.3570    -9.4952    -4.2325  H       1  <O>11       0.1470
  29 H4       -5.2048   -11.6758    -4.3416  H       1  <O>11       0.0282
  30 H5       -6.8496    -9.9177    -4.4442  H       1  <O>11      -0.0873
  31 H6       -5.6777    -8.7889    -4.8051  H       1  <O>11      -0.0873
  32 H7       -5.6777    -9.5444    -3.3203  H       1  <O>11      -0.0873
  33 H8       -4.6521   -11.7084    -6.7587  H       1  <O>11       0.0268
  34 H9       -5.0848    -9.9860    -6.8803  H       1  <O>11       0.0268
  35 H10      -6.9534   -11.4258    -7.6121  H       1  <O>11       0.0343
  36 H11      -7.3849   -10.5111    -6.1470  H       1  <O>11       0.0343
  37 H12      -9.0170   -12.6186    -6.3888  H       1  <O>11       0.1700
  38 H13       1.3082   -11.1481    -2.7415  H       1  <O>11       0.0636
  39 H14      -1.0275   -11.7615    -3.0324  H       1  <O>11       0.0626
  40 H15      -4.2981   -14.4920    -3.8307  H       1  <O>11       0.0639
  41 H16      -4.6087   -16.5670    -2.6338  H       1  <O>11       0.0618
  42 H17      -6.7871   -17.6368    -2.6049  H       1  <O>11       0.0618
  43 H18      -8.6390   -16.6107    -3.7902  H       1  <O>11       0.0626
  44 H19      -1.0552    -9.8628    -6.7825  H       1  <O>11       0.0626
  45 H20       1.2744    -9.2420    -6.4983  H       1  <O>11       0.0636
@<TRIPOS>BOND
     1     1     2    1
     2     2     3   ar
     3     3     4   ar
     4     4     5   ar
     5     5     6    1
     6     6     7    2
     7     6     8   am
     8     8     9    1
     9     9    10    1
    10     9    11    1
    11    11    12    1
    12    12    13    1
    13    13    14   ar
    14    14    15   ar
    15    15    16   ar
    16    16    17   ar
    17    17    18   ar
    18    18    19   ar
    19    19    20   ar
    20    15    20   ar
    21    20    21   ar
    22    21    22    2
    23    21    23   ar
    24    13    23   ar
    25     5    24   ar
    26    24    25   ar
    27     2    25   ar
    28     1    26    1
    29     1    27    1
    30     8    28    1
    31     9    29    1
    32    10    30    1
    33    10    31    1
    34    10    32    1
    35    11    33    1
    36    11    34    1
    37    12    35    1
    38    12    36    1
    39    23    37    1
    40     3    38    1
    41     4    39    1
    42    16    40    1
    43    17    41    1
    44    18    42    1
    45    19    43    1
    46    24    44    1
    47    25    45    1
@<TRIPOS>MOLECULE
mol71_1_25
 45 47 0 0 0
SMALL
USER_CHARGES
****
VDW energy = -180.87
@<TRIPOS>ATOM
   1 N1        2.8495    -9.8143    -4.4295  N.pl3   1  <O>11      -0.3580
   2 C1        1.4617   -10.1611    -4.6036  C.ar    1  <O>11       0.0246
   3 C2        0.8050   -10.8783    -3.6012  C.ar    1  <O>11      -0.0403
   4 C3       -0.5391   -11.2290    -3.7692  C.ar    1  <O>11      -0.0479
   5 C4       -1.2224   -10.8607    -4.9311  C.ar    1  <O>11       0.0367
   6 C5       -2.6120   -11.2220    -5.1120  C.2     1  <O>11       0.2426
   7 O1       -3.1960   -11.8550    -4.2450  O.2     1  <O>11      -0.2703
   8 N2       -3.2710   -10.8560    -6.2540  N.am    1  <O>11      -0.3259
   9 C6       -4.6710   -11.2210    -6.4370  C.3     1  <O>11      -0.0151
  10 N3       -4.8069   -12.7050    -6.4035  N.4     1  <O>11       0.3901
  11 C7       -5.5088   -10.6067    -5.3129  C.3     1  <O>11      -0.0439
  12 C8       -6.9682   -10.9862    -5.5035  C.3     1  <O>11       0.0054
  13 C9       -7.4449   -10.4740    -6.8137  C.ar    1  <O>11       0.1103
  14 N4       -7.9805    -9.2494    -6.8815  N.ar    1  <O>11      -0.2337
  15 C10      -8.4172    -8.7719    -8.0564  C.ar    1  <O>11       0.0781
  16 C11      -8.9702    -7.4978    -8.1057  C.ar    1  <O>11      -0.0355
  17 C12      -9.4455    -6.9409    -9.2967  C.ar    1  <O>11      -0.0597
  18 C13      -9.3683    -7.6676   -10.4776  C.ar    1  <O>11      -0.0609
  19 C14      -8.8185    -8.9463   -10.4579  C.ar    1  <O>11      -0.0474
  20 C15      -8.3417    -9.5015    -9.2439  C.ar    1  <O>11       0.0647
  21 C16      -7.7747   -10.7677    -9.1061  C.ar    1  <O>11       0.2592
  22 O2       -7.6836   -11.5359   -10.2821  O.2     1  <O>11      -0.2672
  23 N5       -7.3266   -11.2700    -7.9387  N.ar    1  <O>11      -0.3103
  24 C17      -0.5527   -10.1366    -5.9237  C.ar    1  <O>11      -0.0479
  25 C18       0.7874    -9.7806    -5.7650  C.ar    1  <O>11      -0.0403
  26 H1        3.3392    -9.2907    -5.1550  H       1  <O>11       0.1423
  27 H2        3.3420   -10.0924    -3.5807  H       1  <O>11       0.1423
  28 H3       -2.7830   -10.3280    -6.9780  H       1  <O>11       0.1470
  29 H4       -5.0218   -10.8455    -7.3979  H       1  <O>11       0.0282
  30 H5       -5.7862   -12.9599    -6.5308  H       1  <O>11      -0.0873
  31 H6       -4.4775   -13.0563    -5.5035  H       1  <O>11      -0.0873
  32 H7       -4.2483   -13.1151    -7.1525  H       1  <O>11      -0.0873
  33 H8       -5.4084    -9.5211    -5.3376  H       1  <O>11       0.0268
  34 H9       -5.1581   -10.9822    -4.3520  H       1  <O>11       0.0268
  35 H10      -7.5640   -10.5479    -4.7026  H       1  <O>11       0.0343
  36 H11      -7.0678   -12.0710    -5.4794  H       1  <O>11       0.0343
  37 H12      -6.9140   -12.1867    -7.8419  H       1  <O>11       0.1700
  38 H13       1.3082   -11.1481    -2.7415  H       1  <O>11       0.0636
  39 H14      -1.0275   -11.7615    -3.0324  H       1  <O>11       0.0626
  40 H15      -9.0319    -6.9456    -7.2360  H       1  <O>11       0.0639
  41 H16      -9.8525    -5.9925    -9.2984  H       1  <O>11       0.0618
  42 H17      -9.7154    -7.2635   -11.3615  H       1  <O>11       0.0618
  43 H18      -8.7576    -9.4927   -11.3313  H       1  <O>11       0.0626
  44 H19      -1.0552    -9.8628    -6.7825  H       1  <O>11       0.0626
  45 H20       1.2744    -9.2420    -6.4983  H       1  <O>11       0.0636
@<TRIPOS>BOND
     1     1     2    1
     2     2     3   ar
     3     3     4   ar
     4     4     5   ar
     5     5     6    1
     6     6     7    2
     7     6     8   am
     8     8     9    1
     9     9    10    1
    10     9    11    1
    11    11    12    1
    12    12    13    1
    13    13    14   ar
    14    14    15   ar
    15    15    16   ar
    16    16    17   ar
    17    17    18   ar
    18    18    19   ar
    19    19    20   ar
    20    15    20   ar
    21    20    21   ar
    22    21    22    2
    23    21    23   ar
    24    13    23   ar
    25     5    24   ar
    26    24    25   ar
    27     2    25   ar
    28     1    26    1
    29     1    27    1
    30     8    28    1
    31     9    29    1
    32    10    30    1
    33    10    31    1
    34    10    32    1
    35    11    33    1
    36    11    34    1
    37    12    35    1
    38    12    36    1
    39    23    37    1
    40     3    38    1
    41     4    39    1
    42    16    40    1
    43    17    41    1
    44    18    42    1
    45    19    43    1
    46    24    44    1
    47    25    45    1
@<TRIPOS>MOLECULE
mol71_1_26
 45 47 0 0 0
SMALL
USER_CHARGES
****
VDW energy = -179.53
@<TRIPOS>ATOM
   1 N1        2.8495    -9.8143    -4.4295  N.pl3   1  <O>11      -0.3580
   2 C1        1.4617   -10.1611    -4.6036  C.ar    1  <O>11       0.0246
   3 C2        0.8050   -10.8783    -3.6012  C.ar    1  <O>11      -0.0403
   4 C3       -0.5391   -11.2290    -3.7692  C.ar    1  <O>11      -0.0479
   5 C4       -1.2224   -10.8607    -4.9311  C.ar    1  <O>11       0.0367
   6 C5       -2.6120   -11.2220    -5.1120  C.2     1  <O>11       0.2426
   7 O1       -3.0110   -11.5830    -6.2092  O.2     1  <O>11      -0.2703
   8 N2       -3.4787   -11.1581    -4.0551  N.am    1  <O>11      -0.3259
   9 C6       -4.8793   -11.5210    -4.2374  C.3     1  <O>11      -0.0151
  10 N3       -5.6058   -11.3665    -2.9451  N.4     1  <O>11       0.3901
  11 C7       -5.5101   -10.6055    -5.2895  C.3     1  <O>11      -0.0439
  12 C8       -6.9697   -10.9838    -5.4805  C.3     1  <O>11       0.0054
  13 C9       -7.0591   -12.3953    -5.9341  C.ar    1  <O>11       0.1103
  14 N4       -5.9343   -13.1005    -6.1032  N.ar    1  <O>11      -0.2337
  15 C10      -5.9969   -14.3759    -6.5135  C.ar    1  <O>11       0.0781
  16 C11      -4.8173   -15.0911    -6.6831  C.ar    1  <O>11      -0.0355
  17 C12      -4.8117   -16.4226    -7.1093  C.ar    1  <O>11      -0.0597
  18 C13      -6.0128   -17.0679    -7.3735  C.ar    1  <O>11      -0.0609
  19 C14      -7.2097   -16.3761    -7.2115  C.ar    1  <O>11      -0.0474
  20 C15      -7.2030   -15.0256    -6.7808  C.ar    1  <O>11       0.0647
  21 C16      -8.3365   -14.2375    -6.5858  C.ar    1  <O>11       0.2592
  22 O2       -9.5730   -14.8569    -6.8480  O.2     1  <O>11      -0.2672
  23 N5       -8.3012   -12.9554    -6.1726  N.ar    1  <O>11      -0.3103
  24 C17      -0.5527   -10.1366    -5.9237  C.ar    1  <O>11      -0.0479
  25 C18       0.7874    -9.7806    -5.7650  C.ar    1  <O>11      -0.0403
  26 H1        3.3392    -9.2907    -5.1550  H       1  <O>11       0.1423
  27 H2        3.3420   -10.0924    -3.5807  H       1  <O>11       0.1423
  28 H3       -3.1454   -10.8561    -3.1392  H       1  <O>11       0.1470
  29 H4       -4.9460   -12.5564    -4.5703  H       1  <O>11       0.0282
  30 H5       -6.5855   -11.6198    -3.0731  H       1  <O>11      -0.0873
  31 H6       -5.5424   -10.3967    -2.6333  H       1  <O>11      -0.0873
  32 H7       -5.1856   -11.9765    -2.2432  H       1  <O>11      -0.0873
  33 H8       -4.9777   -10.7185    -6.2346  H       1  <O>11       0.0268
  34 H9       -5.4434    -9.5701    -4.9567  H       1  <O>11       0.0268
  35 H10      -7.4178   -10.3314    -6.2303  H       1  <O>11       0.0343
  36 H11      -7.5010   -10.8713    -4.5358  H       1  <O>11       0.0343
  37 H12      -9.1239   -12.3873    -6.0297  H       1  <O>11       0.1700
  38 H13       1.3082   -11.1481    -2.7415  H       1  <O>11       0.0636
  39 H14      -1.0275   -11.7615    -3.0324  H       1  <O>11       0.0626
  40 H15      -3.9176   -14.6247    -6.4883  H       1  <O>11       0.0639
  41 H16      -3.9178   -16.9245    -7.2272  H       1  <O>11       0.0618
  42 H17      -6.0178   -18.0511    -7.6870  H       1  <O>11       0.0618
  43 H18      -8.1064   -16.8486    -7.4057  H       1  <O>11       0.0626
  44 H19      -1.0552    -9.8628    -6.7825  H       1  <O>11       0.0626
  45 H20       1.2744    -9.2420    -6.4983  H       1  <O>11       0.0636
@<TRIPOS>BOND
     1     1     2    1
     2     2     3   ar
     3     3     4   ar
     4     4     5   ar
     5     5     6    1
     6     6     7    2
     7     6     8   am
     8     8     9    1
     9     9    10    1
    10     9    11    1
    11    11    12    1
    12    12    13    1
    13    13    14   ar
    14    14    15   ar
    15    15    16   ar
    16    16    17   ar
    17    17    18   ar
    18    18    19   ar
    19    19    20   ar
    20    15    20   ar
    21    20    21   ar
    22    21    22    2
    23    21    23   ar
    24    13    23   ar
    25     5    24   ar
    26    24    25   ar
    27     2    25   ar
    28     1    26    1
    29     1    27    1
    30     8    28    1
    31     9    29    1
    32    10    30    1
    33    10    31    1
    34    10    32    1
    35    11    33    1
    36    11    34    1
    37    12    35    1
    38    12    36    1
    39    23    37    1
    40     3    38    1
    41     4    39    1
    42    16    40    1
    43    17    41    1
    44    18    42    1
    45    19    43    1
    46    24    44    1
    47    25    45    1
@<TRIPOS>MOLECULE
mol71_1_27
 45 47 0 0 0
SMALL
USER_CHARGES
****
VDW energy = -174.77
@<TRIPOS>ATOM
   1 N1        2.8495    -9.8143    -4.4295  N.pl3   1  <O>11      -0.3580
   2 C1        1.4617   -10.1611    -4.6036  C.ar    1  <O>11       0.0246
   3 C2        0.8050   -10.8783    -3.6012  C.ar    1  <O>11      -0.0403
   4 C3       -0.5391   -11.2290    -3.7692  C.ar    1  <O>11      -0.0479
   5 C4       -1.2224   -10.8607    -4.9311  C.ar    1  <O>11       0.0367
   6 C5       -2.6120   -11.2220    -5.1120  C.2     1  <O>11       0.2426
   7 O1       -3.1960   -11.8550    -4.2450  O.2     1  <O>11      -0.2703
   8 N2       -3.2710   -10.8560    -6.2540  N.am    1  <O>11      -0.3259
   9 C6       -4.6710   -11.2210    -6.4370  C.3     1  <O>11      -0.0151
  10 N3       -5.1510   -10.7090    -7.7520  N.4     1  <O>11       0.3901
  11 C7       -4.8090   -12.7450    -6.4020  C.3     1  <O>11      -0.0439
  12 C8       -6.2680   -13.1260    -6.5920  C.3     1  <O>11       0.0054
  13 C9       -7.0806   -12.5296    -5.5010  C.ar    1  <O>11       0.1103
  14 N4       -6.4753   -11.7905    -4.5638  N.ar    1  <O>11      -0.2337
  15 C10      -7.1939   -11.2456    -3.5709  C.ar    1  <O>11       0.0781
  16 C11      -6.5465   -10.4814    -2.6074  C.ar    1  <O>11      -0.0355
  17 C12      -7.2353    -9.8867    -1.5460  C.ar    1  <O>11      -0.0597
  18 C13      -8.6099   -10.0516    -1.4365  C.ar    1  <O>11      -0.0609
  19 C14      -9.2845   -10.8115    -2.3879  C.ar    1  <O>11      -0.0474
  20 C15      -8.5752   -11.4115    -3.4585  C.ar    1  <O>11       0.0647
  21 C16      -9.1448   -12.1909    -4.4645  C.ar    1  <O>11       0.2592
  22 O2      -10.5368   -12.3836    -4.3842  O.2     1  <O>11      -0.2672
  23 N5       -8.4462   -12.7476    -5.4734  N.ar    1  <O>11      -0.3103
  24 C17      -0.5527   -10.1366    -5.9237  C.ar    1  <O>11      -0.0479
  25 C18       0.7874    -9.7806    -5.7650  C.ar    1  <O>11      -0.0403
  26 H1        3.3392    -9.2907    -5.1550  H       1  <O>11       0.1423
  27 H2        3.3420   -10.0924    -3.5807  H       1  <O>11       0.1423
  28 H3       -2.7830   -10.3280    -6.9780  H       1  <O>11       0.1470
  29 H4       -5.2680   -10.7840    -5.6370  H       1  <O>11       0.0282
  30 H5       -6.1300   -10.9650    -7.8800  H       1  <O>11      -0.0873
  31 H6       -4.5910   -11.1180    -8.5010  H       1  <O>11      -0.0873
  32 H7       -5.0590    -9.6930    -7.7760  H       1  <O>11      -0.0873
  33 H8       -4.4570   -13.1190    -5.4400  H       1  <O>11       0.0268
  34 H9       -4.2120   -13.1820    -7.2020  H       1  <O>11       0.0268
  35 H10      -6.3652   -14.2116    -6.5666  H       1  <O>11       0.0343
  36 H11      -6.6193   -12.7515    -7.5531  H       1  <O>11       0.0343
  37 H12      -8.8616   -13.3098    -6.2024  H       1  <O>11       0.1700
  38 H13       1.3082   -11.1481    -2.7415  H       1  <O>11       0.0636
  39 H14      -1.0275   -11.7615    -3.0324  H       1  <O>11       0.0626
  40 H15      -5.5254   -10.3488    -2.6775  H       1  <O>11       0.0639
  41 H16      -6.7239    -9.3269    -0.8460  H       1  <O>11       0.0618
  42 H17      -9.1264    -9.6148    -0.6571  H       1  <O>11       0.0618
  43 H18     -10.3059   -10.9386    -2.3135  H       1  <O>11       0.0626
  44 H19      -1.0552    -9.8628    -6.7825  H       1  <O>11       0.0626
  45 H20       1.2744    -9.2420    -6.4983  H       1  <O>11       0.0636
@<TRIPOS>BOND
     1     1     2    1
     2     2     3   ar
     3     3     4   ar
     4     4     5   ar
     5     5     6    1
     6     6     7    2
     7     6     8   am
     8     8     9    1
     9     9    10    1
    10     9    11    1
    11    11    12    1
    12    12    13    1
    13    13    14   ar
    14    14    15   ar
    15    15    16   ar
    16    16    17   ar
    17    17    18   ar
    18    18    19   ar
    19    19    20   ar
    20    15    20   ar
    21    20    21   ar
    22    21    22    2
    23    21    23   ar
    24    13    23   ar
    25     5    24   ar
    26    24    25   ar
    27     2    25   ar
    28     1    26    1
    29     1    27    1
    30     8    28    1
    31     9    29    1
    32    10    30    1
    33    10    31    1
    34    10    32    1
    35    11    33    1
    36    11    34    1
    37    12    35    1
    38    12    36    1
    39    23    37    1
    40     3    38    1
    41     4    39    1
    42    16    40    1
    43    17    41    1
    44    18    42    1
    45    19    43    1
    46    24    44    1
    47    25    45    1
@<TRIPOS>MOLECULE
mol71_1_28
 45 47 0 0 0
SMALL
USER_CHARGES
****
VDW energy = -171.49
@<TRIPOS>ATOM
   1 N1        2.8495    -9.8143    -4.4295  N.pl3   1  <O>11      -0.3580
   2 C1        1.4617   -10.1611    -4.6036  C.ar    1  <O>11       0.0246
   3 C2        0.8050   -10.8783    -3.6012  C.ar    1  <O>11      -0.0403
   4 C3       -0.5391   -11.2290    -3.7692  C.ar    1  <O>11      -0.0479
   5 C4       -1.2224   -10.8607    -4.9311  C.ar    1  <O>11       0.0367
   6 C5       -2.6120   -11.2220    -5.1120  C.2     1  <O>11       0.2426
   7 O1       -3.1960   -11.8550    -4.2450  O.2     1  <O>11      -0.2703
   8 N2       -3.2710   -10.8560    -6.2540  N.am    1  <O>11      -0.3259
   9 C6       -4.6710   -11.2210    -6.4370  C.3     1  <O>11      -0.0151
  10 N3       -5.1512   -10.7085    -7.7517  N.4     1  <O>11       0.3901
  11 C7       -4.8089   -12.7450    -6.4026  C.3     1  <O>11      -0.0439
  12 C8       -6.2679   -13.1260    -6.5926  C.3     1  <O>11       0.0054
  13 C9       -7.0804   -12.5301    -5.5013  C.ar    1  <O>11       0.1103
  14 N4       -7.2717   -13.2253    -4.3739  N.ar    1  <O>11      -0.2337
  15 C10      -8.0038   -12.7027    -3.3790  C.ar    1  <O>11       0.0781
  16 C11      -8.1906   -13.4408    -2.2162  C.ar    1  <O>11      -0.0355
  17 C12      -8.9432   -12.9557    -1.1424  C.ar    1  <O>11      -0.0597
  18 C13      -9.5274   -11.6983    -1.2211  C.ar    1  <O>11      -0.0609
  19 C14      -9.3563   -10.9367    -2.3737  C.ar    1  <O>11      -0.0474
  20 C15      -8.5928   -11.4397    -3.4569  C.ar    1  <O>11       0.0647
  21 C16      -8.3565   -10.7677    -4.6554  C.ar    1  <O>11       0.2592
  22 O2       -8.9368    -9.4907    -4.7733  O.2     1  <O>11      -0.2672
  23 N5       -7.6235   -11.2691    -5.6689  N.ar    1  <O>11      -0.3103
  24 C17      -0.5527   -10.1366    -5.9237  C.ar    1  <O>11      -0.0479
  25 C18       0.7874    -9.7806    -5.7650  C.ar    1  <O>11      -0.0403
  26 H1        3.3392    -9.2907    -5.1550  H       1  <O>11       0.1423
  27 H2        3.3420   -10.0924    -3.5807  H       1  <O>11       0.1423
  28 H3       -2.7830   -10.3280    -6.9780  H       1  <O>11       0.1470
  29 H4       -5.2679   -10.7844    -5.6368  H       1  <O>11       0.0282
  30 H5       -6.1302   -10.9645    -7.8797  H       1  <O>11      -0.0873
  31 H6       -4.5912   -11.1171    -8.5010  H       1  <O>11      -0.0873
  32 H7       -5.0592    -9.6925    -7.7753  H       1  <O>11      -0.0873
  33 H8       -4.4568   -13.1194    -5.4408  H       1  <O>11       0.0268
  34 H9       -4.2120   -13.1817    -7.2029  H       1  <O>11       0.0268
  35 H10      -6.3650   -14.2116    -6.5676  H       1  <O>11       0.0343
  36 H11      -6.6194   -12.7512    -7.5535  H       1  <O>11       0.0343
  37 H12      -7.4517   -10.7792    -6.5352  H       1  <O>11       0.1700
  38 H13       1.3082   -11.1481    -2.7415  H       1  <O>11       0.0636
  39 H14      -1.0275   -11.7615    -3.0324  H       1  <O>11       0.0626
  40 H15      -7.7604   -14.3760    -2.1432  H       1  <O>11       0.0639
  41 H16      -9.0643   -13.5304    -0.2939  H       1  <O>11       0.0618
  42 H17     -10.0832   -11.3319    -0.4325  H       1  <O>11       0.0618
  43 H18      -9.7872   -10.0013    -2.4398  H       1  <O>11       0.0626
  44 H19      -1.0552    -9.8628    -6.7825  H       1  <O>11       0.0626
  45 H20       1.2744    -9.2420    -6.4983  H       1  <O>11       0.0636
@<TRIPOS>BOND
     1     1     2    1
     2     2     3   ar
     3     3     4   ar
     4     4     5   ar
     5     5     6    1
     6     6     7    2
     7     6     8   am
     8     8     9    1
     9     9    10    1
    10     9    11    1
    11    11    12    1
    12    12    13    1
    13    13    14   ar
    14    14    15   ar
    15    15    16   ar
    16    16    17   ar
    17    17    18   ar
    18    18    19   ar
    19    19    20   ar
    20    15    20   ar
    21    20    21   ar
    22    21    22    2
    23    21    23   ar
    24    13    23   ar
    25     5    24   ar
    26    24    25   ar
    27     2    25   ar
    28     1    26    1
    29     1    27    1
    30     8    28    1
    31     9    29    1
    32    10    30    1
    33    10    31    1
    34    10    32    1
    35    11    33    1
    36    11    34    1
    37    12    35    1
    38    12    36    1
    39    23    37    1
    40     3    38    1
    41     4    39    1
    42    16    40    1
    43    17    41    1
    44    18    42    1
    45    19    43    1
    46    24    44    1
    47    25    45    1
@<TRIPOS>MOLECULE
mol71_1_29
 45 47 0 0 0
SMALL
USER_CHARGES
****
VDW energy = -165.05
@<TRIPOS>ATOM
   1 N1        2.8495    -9.8143    -4.4295  N.pl3   1  <O>11      -0.3580
   2 C1        1.4617   -10.1611    -4.6036  C.ar    1  <O>11       0.0246
   3 C2        0.8050   -10.8783    -3.6012  C.ar    1  <O>11      -0.0403
   4 C3       -0.5391   -11.2290    -3.7692  C.ar    1  <O>11      -0.0479
   5 C4       -1.2224   -10.8607    -4.9311  C.ar    1  <O>11       0.0367
   6 C5       -2.6120   -11.2220    -5.1120  C.2     1  <O>11       0.2426
   7 O1       -3.4937   -10.4689    -4.7262  O.2     1  <O>11      -0.2703
   8 N2       -2.9381   -12.4070    -5.7136  N.am    1  <O>11      -0.3259
   9 C6       -1.8854   -13.3059    -6.1725  C.3     1  <O>11      -0.0151
  10 N3       -1.0379   -13.7115    -5.0153  N.4     1  <O>11       0.3901
  11 C7       -2.5166   -14.5497    -6.8030  C.3     1  <O>11      -0.0439
  12 C8       -3.3758   -15.2605    -5.7704  C.3     1  <O>11       0.0054
  13 C9       -3.9879   -16.4672    -6.3832  C.ar    1  <O>11       0.1103
  14 N4       -3.7266   -16.7546    -7.6638  N.ar    1  <O>11      -0.2337
  15 C10      -4.2720   -17.8397    -8.2332  C.ar    1  <O>11       0.0781
  16 C11      -3.9880   -18.1206    -9.5643  C.ar    1  <O>11      -0.0355
  17 C12      -4.5242   -19.2339   -10.2184  C.ar    1  <O>11      -0.0597
  18 C13      -5.3665   -20.0985    -9.5316  C.ar    1  <O>11      -0.0609
  19 C14      -5.6677   -19.8420    -8.1970  C.ar    1  <O>11      -0.0474
  20 C15      -5.1198   -18.7089    -7.5449  C.ar    1  <O>11       0.0647
  21 C16      -5.3521   -18.3544    -6.2166  C.ar    1  <O>11       0.2592
  22 O2       -6.2051   -19.2057    -5.4894  O.2     1  <O>11      -0.2672
  23 N5       -4.8153   -17.2717    -5.6205  N.ar    1  <O>11      -0.3103
  24 C17      -0.5527   -10.1366    -5.9237  C.ar    1  <O>11      -0.0479
  25 C18       0.7874    -9.7806    -5.7650  C.ar    1  <O>11      -0.0403
  26 H1        3.3392    -9.2907    -5.1550  H       1  <O>11       0.1423
  27 H2        3.3420   -10.0924    -3.5807  H       1  <O>11       0.1423
  28 H3       -3.9178   -12.6618    -5.8416  H       1  <O>11       0.1470
  29 H4       -1.2696   -12.7962    -6.9130  H       1  <O>11       0.0282
  30 H5       -0.3022   -14.3407    -5.3365  H       1  <O>11      -0.0873
  31 H6       -1.6153   -14.1882    -4.3216  H       1  <O>11      -0.0873
  32 H7       -0.6171   -12.8826    -4.5944  H       1  <O>11      -0.0873
  33 H8       -1.7291   -15.2214    -7.1465  H       1  <O>11       0.0268
  34 H9       -3.1357   -14.2532    -7.6492  H       1  <O>11       0.0268
  35 H10      -4.1621   -14.5873    -5.4281  H       1  <O>11       0.0343
  36 H11      -2.7567   -15.5570    -4.9242  H       1  <O>11       0.0343
  37 H12      -4.9831   -17.0183    -4.6574  H       1  <O>11       0.1700
  38 H13       1.3082   -11.1481    -2.7415  H       1  <O>11       0.0636
  39 H14      -1.0275   -11.7615    -3.0324  H       1  <O>11       0.0626
  40 H15      -3.3619   -17.4878   -10.0863  H       1  <O>11       0.0639
  41 H16      -4.2948   -19.4126   -11.2085  H       1  <O>11       0.0618
  42 H17      -5.7655   -20.9235   -10.0063  H       1  <O>11       0.0618
  43 H18      -6.2928   -20.4798    -7.6798  H       1  <O>11       0.0626
  44 H19      -1.0552    -9.8628    -6.7825  H       1  <O>11       0.0626
  45 H20       1.2744    -9.2420    -6.4983  H       1  <O>11       0.0636
@<TRIPOS>BOND
     1     1     2    1
     2     2     3   ar
     3     3     4   ar
     4     4     5   ar
     5     5     6    1
     6     6     7    2
     7     6     8   am
     8     8     9    1
     9     9    10    1
    10     9    11    1
    11    11    12    1
    12    12    13    1
    13    13    14   ar
    14    14    15   ar
    15    15    16   ar
    16    16    17   ar
    17    17    18   ar
    18    18    19   ar
    19    19    20   ar
    20    15    20   ar
    21    20    21   ar
    22    21    22    2
    23    21    23   ar
    24    13    23   ar
    25     5    24   ar
    26    24    25   ar
    27     2    25   ar
    28     1    26    1
    29     1    27    1
    30     8    28    1
    31     9    29    1
    32    10    30    1
    33    10    31    1
    34    10    32    1
    35    11    33    1
    36    11    34    1
    37    12    35    1
    38    12    36    1
    39    23    37    1
    40     3    38    1
    41     4    39    1
    42    16    40    1
    43    17    41    1
    44    18    42    1
    45    19    43    1
    46    24    44    1
    47    25    45    1
@<TRIPOS>MOLECULE
mol71_1_30
 45 47 0 0 0
SMALL
USER_CHARGES
****
VDW energy = -155.12
@<TRIPOS>ATOM
   1 N1        2.8495    -9.8143    -4.4295  N.pl3   1  <O>11      -0.3580
   2 C1        1.4617   -10.1611    -4.6036  C.ar    1  <O>11       0.0246
   3 C2        0.8050   -10.8783    -3.6012  C.ar    1  <O>11      -0.0403
   4 C3       -0.5391   -11.2290    -3.7692  C.ar    1  <O>11      -0.0479
   5 C4       -1.2224   -10.8607    -4.9311  C.ar    1  <O>11       0.0367
   6 C5       -2.6120   -11.2220    -5.1120  C.2     1  <O>11       0.2426
   7 O1       -3.4937   -10.4689    -4.7262  O.2     1  <O>11      -0.2703
   8 N2       -2.9381   -12.4070    -5.7136  N.am    1  <O>11      -0.3259
   9 C6       -4.3384   -12.7718    -5.8949  C.3     1  <O>11      -0.0151
  10 N3       -5.0092   -12.8467    -4.5660  N.4     1  <O>11       0.3901
  11 C7       -5.0326   -11.7151    -6.7577  C.3     1  <O>11      -0.0439
  12 C8       -6.4918   -12.0951    -6.9476  C.3     1  <O>11       0.0054
  13 C9       -6.5748   -13.4168    -7.6203  C.ar    1  <O>11       0.1103
  14 N4       -7.1958   -13.5115    -8.8020  N.ar    1  <O>11      -0.2337
  15 C10      -7.2809   -14.6975    -9.4225  C.ar    1  <O>11       0.0781
  16 C11      -7.9300   -14.7746   -10.6491  C.ar    1  <O>11      -0.0355
  17 C12      -8.0551   -15.9791   -11.3478  C.ar    1  <O>11      -0.0597
  18 C13      -7.5180   -17.1444   -10.8164  C.ar    1  <O>11      -0.0609
  19 C14      -6.8618   -17.0964    -9.5897  C.ar    1  <O>11      -0.0474
  20 C15      -6.7429   -15.8698    -8.8893  C.ar    1  <O>11       0.0647
  21 C16      -6.1102   -15.7043    -7.6580  C.ar    1  <O>11       0.2592
  22 O2       -5.5568   -16.8654    -7.0860  O.2     1  <O>11      -0.2672
  23 N5       -6.0092   -14.5245    -7.0150  N.ar    1  <O>11      -0.3103
  24 C17      -0.5527   -10.1366    -5.9237  C.ar    1  <O>11      -0.0479
  25 C18       0.7874    -9.7806    -5.7650  C.ar    1  <O>11      -0.0403
  26 H1        3.3392    -9.2907    -5.1550  H       1  <O>11       0.1423
  27 H2        3.3420   -10.0924    -3.5807  H       1  <O>11       0.1423
  28 H3       -2.2017   -13.0359    -6.0351  H       1  <O>11       0.1470
  29 H4       -4.4003   -13.7413    -6.3885  H       1  <O>11       0.0282
  30 H5       -5.9887   -13.1013    -4.6932  H       1  <O>11      -0.0873
  31 H6       -4.9503   -11.9386    -4.1037  H       1  <O>11      -0.0873
  32 H7       -4.5467   -13.5509    -3.9902  H       1  <O>11      -0.0873
  33 H8       -4.5408   -11.6603    -7.7295  H       1  <O>11       0.0268
  34 H9       -4.9706   -10.7456    -6.2641  H       1  <O>11       0.0268
  35 H10      -6.9852   -11.3421    -7.5625  H       1  <O>11       0.0343
  36 H11      -6.9825   -12.1504    -5.9762  H       1  <O>11       0.0343
  37 H12      -5.5481   -14.4067    -6.1241  H       1  <O>11       0.1700
  38 H13       1.3082   -11.1481    -2.7415  H       1  <O>11       0.0636
  39 H14      -1.0275   -11.7615    -3.0324  H       1  <O>11       0.0626
  40 H15      -8.3320   -13.9161   -11.0568  H       1  <O>11       0.0639
  41 H16      -8.5452   -16.0023   -12.2557  H       1  <O>11       0.0618
  42 H17      -7.6045   -18.0375   -11.3263  H       1  <O>11       0.0618
  43 H18      -6.4600   -17.9581    -9.1883  H       1  <O>11       0.0626
  44 H19      -1.0552    -9.8628    -6.7825  H       1  <O>11       0.0626
  45 H20       1.2744    -9.2420    -6.4983  H       1  <O>11       0.0636
@<TRIPOS>BOND
     1     1     2    1
     2     2     3   ar
     3     3     4   ar
     4     4     5   ar
     5     5     6    1
     6     6     7    2
     7     6     8   am
     8     8     9    1
     9     9    10    1
    10     9    11    1
    11    11    12    1
    12    12    13    1
    13    13    14   ar
    14    14    15   ar
    15    15    16   ar
    16    16    17   ar
    17    17    18   ar
    18    18    19   ar
    19    19    20   ar
    20    15    20   ar
    21    20    21   ar
    22    21    22    2
    23    21    23   ar
    24    13    23   ar
    25     5    24   ar
    26    24    25   ar
    27     2    25   ar
    28     1    26    1
    29     1    27    1
    30     8    28    1
    31     9    29    1
    32    10    30    1
    33    10    31    1
    34    10    32    1
    35    11    33    1
    36    11    34    1
    37    12    35    1
    38    12    36    1
    39    23    37    1
    40     3    38    1
    41     4    39    1
    42    16    40    1
    43    17    41    1
    44    18    42    1
    45    19    43    1
    46    24    44    1
    47    25    45    1
