@<TRIPOS>MOLECULE
mol79_1_1
 42 44 0 0 0
SMALL
USER_CHARGES
****
VDW energy = -32.11
@<TRIPOS>ATOM
   1 N1       -1.6001   -11.4380    -6.2559  N.2     1  <O>11      -0.2986
   2 C1       -1.3355   -10.1106    -6.4246  C.2     1  <O>11       0.0685
   3 C2        0.0455    -9.6444    -6.4889  C.1     1  <O>11      -0.0535
   4 C3        1.4265    -9.1782    -6.5531  C.1     1  <O>11      -0.0771
   5 C4        2.8075    -8.7119    -6.6174  C.3     1  <O>11       0.0742
   6 N2        3.5130    -9.1100    -5.4020  N.am    1  <O>11      -0.3004
   7 C5        4.8310    -8.7810    -5.2370  C.2     1  <O>11       0.2476
   8 O1        5.4180    -8.1540    -6.1070  O.2     1  <O>11      -0.2701
   9 C6        5.5310    -9.1760    -4.0330  C.ar    1  <O>11       0.0721
  10 C7        6.1895   -10.4066    -3.9968  C.ar    1  <O>11      -0.0433
  11 C8        6.8575   -10.7990    -2.8318  C.ar    1  <O>11      -0.0406
  12 C9        7.5504   -12.1009    -2.7899  C.3     1  <O>11       0.0171
  13 C10       6.6092   -13.1474    -2.3082  C.ar    1  <O>11       0.0736
  14 N3        5.8260   -13.8560    -3.2266  N.ar    1  <O>11      -0.1750
  15 N4        4.8925   -14.7363    -2.7984  N.ar    1  <O>11      -0.2425
  16 C11       4.7314   -14.9300    -1.4666  C.ar    1  <O>11       0.2725
  17 O2        3.6791   -15.7826    -1.0847  O.2     1  <O>11      -0.2658
  18 C12       5.5448   -14.3381    -0.4881  C.ar    1  <O>11       0.0496
  19 C13       5.4172   -14.5855     0.8981  C.ar    1  <O>11      -0.0487
  20 C14       6.2379   -13.9368     1.8205  C.ar    1  <O>11      -0.0610
  21 C15       7.1926   -13.0278     1.3822  C.ar    1  <O>11      -0.0611
  22 C16       7.3284   -12.7668     0.0177  C.ar    1  <O>11      -0.0521
  23 C17       6.5090   -13.4208    -0.9346  C.ar    1  <O>11       0.0106
  24 C18       6.8697    -9.9632    -1.7119  C.ar    1  <O>11      -0.0555
  25 C19       6.2105    -8.7313    -1.7669  C.ar    1  <O>11      -0.0254
  26 C20       5.5432    -8.3297    -2.9239  C.ar    1  <O>11       0.1355
  27 F1        4.9027    -7.1168    -2.9775  F       1  <O>11      -0.2047
  28 H1       -0.8324   -12.1048    -6.1746  H       1  <O>11       0.1867
  29 H2       -2.1559    -9.3982    -6.5114  H       1  <O>11       0.0919
  30 H3        3.2999    -9.1528    -7.4842  H       1  <O>11       0.0599
  31 H4        2.8205    -7.6256    -6.7056  H       1  <O>11       0.0599
  32 H5        3.0230    -9.6340    -4.6770  H       1  <O>11       0.1499
  33 H6        8.4022   -12.0394    -2.1107  H       1  <O>11       0.0377
  34 H7        7.8998   -12.3600    -3.7895  H       1  <O>11       0.0377
  35 H8        4.3218   -15.2401    -3.4597  H       1  <O>11       0.1921
  36 H9        6.1834   -11.0232    -4.8244  H       1  <O>11       0.0629
  37 H10       4.7069   -15.2555     1.2321  H       1  <O>11       0.0625
  38 H11       6.1360   -14.1322     2.8287  H       1  <O>11       0.0618
  39 H12       7.7999   -12.5465     2.0638  H       1  <O>11       0.0618
  40 H13       8.0364   -12.0874    -0.3020  H       1  <O>11       0.0624
  41 H14       7.3610   -10.2526    -0.8517  H       1  <O>11       0.0621
  42 H15       6.2178    -8.1119    -0.9415  H       1  <O>11       0.0646
@<TRIPOS>BOND
     1     1     2    2
     2     2     3    1
     3     3     4    3
     4     4     5    1
     5     5     6    1
     6     6     7   am
     7     7     8    2
     8     7     9    1
     9     9    10   ar
    10    10    11   ar
    11    11    12    1
    12    12    13    1
    13    13    14   ar
    14    14    15   ar
    15    15    16   ar
    16    16    17    2
    17    16    18   ar
    18    18    19   ar
    19    19    20   ar
    20    20    21   ar
    21    21    22   ar
    22    22    23   ar
    23    13    23   ar
    24    18    23   ar
    25    11    24   ar
    26    24    25   ar
    27    25    26   ar
    28     9    26   ar
    29    26    27    1
    30     1    28    1
    31     2    29    1
    32     5    30    1
    33     5    31    1
    34     6    32    1
    35    12    33    1
    36    12    34    1
    37    15    35    1
    38    10    36    1
    39    19    37    1
    40    20    38    1
    41    21    39    1
    42    22    40    1
    43    24    41    1
    44    25    42    1
@<TRIPOS>MOLECULE
mol79_1_2
 42 44 0 0 0
SMALL
USER_CHARGES
****
VDW energy = -28.36
@<TRIPOS>ATOM
   1 N1       -1.6001   -11.4380    -6.2559  N.2     1  <O>11      -0.2986
   2 C1       -1.3355   -10.1106    -6.4246  C.2     1  <O>11       0.0685
   3 C2        0.0455    -9.6444    -6.4889  C.1     1  <O>11      -0.0535
   4 C3        1.4265    -9.1782    -6.5531  C.1     1  <O>11      -0.0771
   5 C4        2.8075    -8.7119    -6.6174  C.3     1  <O>11       0.0742
   6 N2        3.5130    -9.1100    -5.4020  N.am    1  <O>11      -0.3004
   7 C5        4.8310    -8.7810    -5.2370  C.2     1  <O>11       0.2476
   8 O1        5.4180    -8.1540    -6.1070  O.2     1  <O>11      -0.2701
   9 C6        5.5310    -9.1760    -4.0330  C.ar    1  <O>11       0.0721
  10 C7        5.5344    -8.3188    -2.9309  C.ar    1  <O>11      -0.0433
  11 C8        6.2193    -8.6899    -1.7688  C.ar    1  <O>11      -0.0406
  12 C9        6.2277    -7.7837    -0.6045  C.3     1  <O>11       0.0171
  13 C10       4.8312    -7.5535    -0.1462  C.ar    1  <O>11       0.0736
  14 N3        4.2635    -8.4019     0.8114  N.ar    1  <O>11      -0.1750
  15 N4        2.9639    -8.2698     1.1621  N.ar    1  <O>11      -0.2425
  16 C11       2.2198    -7.2981     0.5798  C.ar    1  <O>11       0.2725
  17 O2        0.8530    -7.2767     0.9138  O.2     1  <O>11      -0.2658
  18 C12       2.7395    -6.3444    -0.3088  C.ar    1  <O>11       0.0496
  19 C13       1.9788    -5.2934    -0.8708  C.ar    1  <O>11      -0.0487
  20 C14       2.5506    -4.3987    -1.7750  C.ar    1  <O>11      -0.0610
  21 C15       3.8836    -4.5374    -2.1408  C.ar    1  <O>11      -0.0611
  22 C16       4.6481    -5.5727    -1.6005  C.ar    1  <O>11      -0.0521
  23 C17       4.0871    -6.4869    -0.6756  C.ar    1  <O>11       0.0106
  24 C18       6.8930    -9.9128    -1.7089  C.ar    1  <O>11      -0.0555
  25 C19       6.8746   -10.7623    -2.8193  C.ar    1  <O>11      -0.0254
  26 C20       6.1932   -10.4029    -3.9820  C.ar    1  <O>11       0.1355
  27 F1        6.1711   -11.2418    -5.0683  F       1  <O>11      -0.2047
  28 H1       -0.8324   -12.1048    -6.1746  H       1  <O>11       0.1867
  29 H2       -2.1559    -9.3982    -6.5114  H       1  <O>11       0.0919
  30 H3        3.2999    -9.1528    -7.4842  H       1  <O>11       0.0599
  31 H4        2.8205    -7.6256    -6.7056  H       1  <O>11       0.0599
  32 H5        3.0230    -9.6340    -4.6770  H       1  <O>11       0.1499
  33 H6        6.6780    -6.8308    -0.8869  H       1  <O>11       0.0377
  34 H7        6.8048    -8.2339     0.2034  H       1  <O>11       0.0377
  35 H8        2.5523    -8.8869     1.8453  H       1  <O>11       0.1921
  36 H9        5.0346    -7.4168    -2.9733  H       1  <O>11       0.0629
  37 H10       0.9866    -5.1868    -0.6082  H       1  <O>11       0.0625
  38 H11       1.9834    -3.6336    -2.1724  H       1  <O>11       0.0618
  39 H12       4.3076    -3.8764    -2.8104  H       1  <O>11       0.0618
  40 H13       5.6367    -5.6736    -1.8790  H       1  <O>11       0.0624
  41 H14       7.3998   -10.1865    -0.8525  H       1  <O>11       0.0621
  42 H15       7.3712   -11.6660    -2.7781  H       1  <O>11       0.0646
@<TRIPOS>BOND
     1     1     2    2
     2     2     3    1
     3     3     4    3
     4     4     5    1
     5     5     6    1
     6     6     7   am
     7     7     8    2
     8     7     9    1
     9     9    10   ar
    10    10    11   ar
    11    11    12    1
    12    12    13    1
    13    13    14   ar
    14    14    15   ar
    15    15    16   ar
    16    16    17    2
    17    16    18   ar
    18    18    19   ar
    19    19    20   ar
    20    20    21   ar
    21    21    22   ar
    22    22    23   ar
    23    13    23   ar
    24    18    23   ar
    25    11    24   ar
    26    24    25   ar
    27    25    26   ar
    28     9    26   ar
    29    26    27    1
    30     1    28    1
    31     2    29    1
    32     5    30    1
    33     5    31    1
    34     6    32    1
    35    12    33    1
    36    12    34    1
    37    15    35    1
    38    10    36    1
    39    19    37    1
    40    20    38    1
    41    21    39    1
    42    22    40    1
    43    24    41    1
    44    25    42    1
@<TRIPOS>MOLECULE
mol79_1_3
 42 44 0 0 0
SMALL
USER_CHARGES
****
VDW energy = -28.34
@<TRIPOS>ATOM
   1 N1       -1.6001   -11.4380    -6.2559  N.2     1  <O>11      -0.2986
   2 C1       -1.3355   -10.1106    -6.4246  C.2     1  <O>11       0.0685
   3 C2        0.0455    -9.6444    -6.4889  C.1     1  <O>11      -0.0535
   4 C3        1.4265    -9.1782    -6.5531  C.1     1  <O>11      -0.0771
   5 C4        2.8075    -8.7119    -6.6174  C.3     1  <O>11       0.0742
   6 N2        3.5130    -9.1100    -5.4020  N.am    1  <O>11      -0.3004
   7 C5        4.8310    -8.7810    -5.2370  C.2     1  <O>11       0.2476
   8 O1        5.4180    -8.1540    -6.1070  O.2     1  <O>11      -0.2701
   9 C6        5.5310    -9.1760    -4.0330  C.ar    1  <O>11       0.0721
  10 C7        6.1895   -10.4066    -3.9968  C.ar    1  <O>11      -0.0433
  11 C8        6.8575   -10.7990    -2.8318  C.ar    1  <O>11      -0.0406
  12 C9        7.5504   -12.1009    -2.7899  C.3     1  <O>11       0.0171
  13 C10       8.1783   -12.2849    -1.4539  C.ar    1  <O>11       0.0736
  14 N3        9.4882   -11.8439    -1.2332  N.ar    1  <O>11      -0.1750
  15 N4       10.1091   -12.0955    -0.0581  N.ar    1  <O>11      -0.2425
  16 C11       9.4421   -12.7737     0.9074  C.ar    1  <O>11       0.2725
  17 O2       10.1757   -13.0891     2.0661  O.2     1  <O>11      -0.2658
  18 C12       8.0963   -13.1576     0.8033  C.ar    1  <O>11       0.0496
  19 C13       7.3812   -13.8117     1.8328  C.ar    1  <O>11      -0.0487
  20 C14       6.0530   -14.1961     1.6504  C.ar    1  <O>11      -0.0610
  21 C15       5.4165   -13.9438     0.4417  C.ar    1  <O>11      -0.0611
  22 C16       6.1089   -13.3043    -0.5878  C.ar    1  <O>11      -0.0521
  23 C17       7.4558   -12.9003    -0.4191  C.ar    1  <O>11       0.0106
  24 C18       6.8697    -9.9632    -1.7119  C.ar    1  <O>11      -0.0555
  25 C19       6.2105    -8.7313    -1.7669  C.ar    1  <O>11      -0.0254
  26 C20       5.5432    -8.3297    -2.9239  C.ar    1  <O>11       0.1355
  27 F1        4.9027    -7.1168    -2.9775  F       1  <O>11      -0.2047
  28 H1       -0.8324   -12.1048    -6.1746  H       1  <O>11       0.1867
  29 H2       -2.1559    -9.3982    -6.5114  H       1  <O>11       0.0919
  30 H3        3.2999    -9.1528    -7.4842  H       1  <O>11       0.0599
  31 H4        2.8205    -7.6256    -6.7056  H       1  <O>11       0.0599
  32 H5        3.0230    -9.6340    -4.6770  H       1  <O>11       0.1499
  33 H6        8.3228   -12.1282    -3.5601  H       1  <O>11       0.0377
  34 H7        6.8320   -12.9018    -2.9663  H       1  <O>11       0.0377
  35 H8       11.0560   -11.7859     0.0976  H       1  <O>11       0.1921
  36 H9        6.1834   -11.0232    -4.8244  H       1  <O>11       0.0629
  37 H10       7.8486   -14.0075     2.7318  H       1  <O>11       0.0625
  38 H11       5.5431   -14.6680     2.4135  H       1  <O>11       0.0618
  39 H12       4.4339   -14.2285     0.3053  H       1  <O>11       0.0618
  40 H13       5.6324   -13.1232    -1.4851  H       1  <O>11       0.0624
  41 H14       7.3610   -10.2526    -0.8517  H       1  <O>11       0.0621
  42 H15       6.2178    -8.1119    -0.9415  H       1  <O>11       0.0646
@<TRIPOS>BOND
     1     1     2    2
     2     2     3    1
     3     3     4    3
     4     4     5    1
     5     5     6    1
     6     6     7   am
     7     7     8    2
     8     7     9    1
     9     9    10   ar
    10    10    11   ar
    11    11    12    1
    12    12    13    1
    13    13    14   ar
    14    14    15   ar
    15    15    16   ar
    16    16    17    2
    17    16    18   ar
    18    18    19   ar
    19    19    20   ar
    20    20    21   ar
    21    21    22   ar
    22    22    23   ar
    23    13    23   ar
    24    18    23   ar
    25    11    24   ar
    26    24    25   ar
    27    25    26   ar
    28     9    26   ar
    29    26    27    1
    30     1    28    1
    31     2    29    1
    32     5    30    1
    33     5    31    1
    34     6    32    1
    35    12    33    1
    36    12    34    1
    37    15    35    1
    38    10    36    1
    39    19    37    1
    40    20    38    1
    41    21    39    1
    42    22    40    1
    43    24    41    1
    44    25    42    1
@<TRIPOS>MOLECULE
mol79_1_4
 42 44 0 0 0
SMALL
USER_CHARGES
****
VDW energy = -27.93
@<TRIPOS>ATOM
   1 N1       -1.6001   -11.4380    -6.2559  N.2     1  <O>11      -0.2986
   2 C1       -1.3355   -10.1106    -6.4246  C.2     1  <O>11       0.0685
   3 C2        0.0455    -9.6444    -6.4889  C.1     1  <O>11      -0.0535
   4 C3        1.4265    -9.1782    -6.5531  C.1     1  <O>11      -0.0771
   5 C4        2.8075    -8.7119    -6.6174  C.3     1  <O>11       0.0742
   6 N2        3.5130    -9.1100    -5.4020  N.am    1  <O>11      -0.3004
   7 C5        4.8310    -8.7810    -5.2370  C.2     1  <O>11       0.2476
   8 O1        5.4180    -8.1540    -6.1070  O.2     1  <O>11      -0.2701
   9 C6        5.5310    -9.1760    -4.0330  C.ar    1  <O>11       0.0721
  10 C7        6.1895   -10.4066    -3.9968  C.ar    1  <O>11      -0.0433
  11 C8        6.8575   -10.7990    -2.8318  C.ar    1  <O>11      -0.0406
  12 C9        7.5504   -12.1009    -2.7899  C.3     1  <O>11       0.0171
  13 C10       8.6017   -12.1364    -3.8419  C.ar    1  <O>11       0.0736
  14 N3        9.8980   -11.6991    -3.5462  N.ar    1  <O>11      -0.1750
  15 N4       10.8372   -11.6278    -4.5170  N.ar    1  <O>11      -0.2425
  16 C11      10.5084   -11.9941    -5.7798  C.ar    1  <O>11       0.2725
  17 O2       11.4991   -11.8033    -6.7608  O.2     1  <O>11      -0.2658
  18 C12       9.2653   -12.5397    -6.1354  C.ar    1  <O>11       0.0496
  19 C13       8.9410   -12.9784    -7.4398  C.ar    1  <O>11      -0.0487
  20 C14       7.6731   -13.4803    -7.7327  C.ar    1  <O>11      -0.0610
  21 C15       6.7059   -13.5480    -6.7378  C.ar    1  <O>11      -0.0611
  22 C16       7.0068   -13.1138    -5.4458  C.ar    1  <O>11      -0.0521
  23 C17       8.2906   -12.6075    -5.1275  C.ar    1  <O>11       0.0106
  24 C18       6.8697    -9.9632    -1.7119  C.ar    1  <O>11      -0.0555
  25 C19       6.2105    -8.7313    -1.7669  C.ar    1  <O>11      -0.0254
  26 C20       5.5432    -8.3297    -2.9239  C.ar    1  <O>11       0.1355
  27 F1        4.9027    -7.1168    -2.9775  F       1  <O>11      -0.2047
  28 H1       -0.8324   -12.1048    -6.1746  H       1  <O>11       0.1867
  29 H2       -2.1559    -9.3982    -6.5114  H       1  <O>11       0.0919
  30 H3        3.2999    -9.1528    -7.4842  H       1  <O>11       0.0599
  31 H4        2.8205    -7.6256    -6.7056  H       1  <O>11       0.0599
  32 H5        3.0230    -9.6340    -4.6770  H       1  <O>11       0.1499
  33 H6        6.8320   -12.9026    -2.9685  H       1  <O>11       0.0377
  34 H7        8.0117   -12.2368    -1.8116  H       1  <O>11       0.0377
  35 H8       11.7686   -11.3040    -4.3060  H       1  <O>11       0.1921
  36 H9        6.1834   -11.0232    -4.8244  H       1  <O>11       0.0629
  37 H10       9.6523   -12.9264    -8.1856  H       1  <O>11       0.0625
  38 H11       7.4536   -13.8015    -8.6885  H       1  <O>11       0.0618
  39 H12       5.7672   -13.9185    -6.9535  H       1  <O>11       0.0618
  40 H13       6.2830   -13.1625    -4.7117  H       1  <O>11       0.0624
  41 H14       7.3610   -10.2526    -0.8517  H       1  <O>11       0.0621
  42 H15       6.2178    -8.1119    -0.9415  H       1  <O>11       0.0646
@<TRIPOS>BOND
     1     1     2    2
     2     2     3    1
     3     3     4    3
     4     4     5    1
     5     5     6    1
     6     6     7   am
     7     7     8    2
     8     7     9    1
     9     9    10   ar
    10    10    11   ar
    11    11    12    1
    12    12    13    1
    13    13    14   ar
    14    14    15   ar
    15    15    16   ar
    16    16    17    2
    17    16    18   ar
    18    18    19   ar
    19    19    20   ar
    20    20    21   ar
    21    21    22   ar
    22    22    23   ar
    23    13    23   ar
    24    18    23   ar
    25    11    24   ar
    26    24    25   ar
    27    25    26   ar
    28     9    26   ar
    29    26    27    1
    30     1    28    1
    31     2    29    1
    32     5    30    1
    33     5    31    1
    34     6    32    1
    35    12    33    1
    36    12    34    1
    37    15    35    1
    38    10    36    1
    39    19    37    1
    40    20    38    1
    41    21    39    1
    42    22    40    1
    43    24    41    1
    44    25    42    1
@<TRIPOS>MOLECULE
mol79_1_5
 42 44 0 0 0
SMALL
USER_CHARGES
****
VDW energy = -27.32
@<TRIPOS>ATOM
   1 N1       -1.6001   -11.4380    -6.2559  N.2     1  <O>11      -0.2986
   2 C1       -1.3355   -10.1106    -6.4246  C.2     1  <O>11       0.0685
   3 C2        0.0455    -9.6444    -6.4889  C.1     1  <O>11      -0.0535
   4 C3        1.4265    -9.1782    -6.5531  C.1     1  <O>11      -0.0771
   5 C4        2.8075    -8.7119    -6.6174  C.3     1  <O>11       0.0742
   6 N2        3.5130    -9.1100    -5.4020  N.am    1  <O>11      -0.3004
   7 C5        3.6262   -10.4350    -5.0795  C.2     1  <O>11       0.2476
   8 O1        3.1367   -11.2856    -5.8085  O.2     1  <O>11      -0.2701
   9 C6        4.3246   -10.8302    -3.8746  C.ar    1  <O>11       0.0721
  10 C7        5.6972   -11.0797    -3.9298  C.ar    1  <O>11      -0.0433
  11 C8        6.3753   -11.4736    -2.7712  C.ar    1  <O>11      -0.0406
  12 C9        7.8249   -11.7419    -2.8282  C.3     1  <O>11       0.0171
  13 C10       8.5722   -10.4876    -2.5429  C.ar    1  <O>11       0.0736
  14 N3        8.9188   -10.1676    -1.2252  N.ar    1  <O>11      -0.1750
  15 N4        9.5060    -8.9836    -0.9374  N.ar    1  <O>11      -0.2425
  16 C11       9.7628    -8.1135    -1.9444  C.ar    1  <O>11       0.2725
  17 O2       10.2831    -6.8616    -1.5675  O.2     1  <O>11      -0.2658
  18 C12       9.5416    -8.4018    -3.2999  C.ar    1  <O>11       0.0496
  19 C13       9.8646    -7.5194    -4.3564  C.ar    1  <O>11      -0.0487
  20 C14       9.5866    -7.8553    -5.6812  C.ar    1  <O>11      -0.0610
  21 C15       8.9777    -9.0683    -5.9772  C.ar    1  <O>11      -0.0611
  22 C16       8.6464    -9.9491    -4.9463  C.ar    1  <O>11      -0.0521
  23 C17       8.9270    -9.6288    -3.5956  C.ar    1  <O>11       0.0106
  24 C18       5.6846   -11.6128    -1.5643  C.ar    1  <O>11      -0.0555
  25 C19       4.3112   -11.3531    -1.5249  C.ar    1  <O>11      -0.0254
  26 C20       3.6260   -10.9580    -2.6737  C.ar    1  <O>11       0.1355
  27 F1        2.2791   -10.6971    -2.6307  F       1  <O>11      -0.2047
  28 H1       -0.8324   -12.1048    -6.1746  H       1  <O>11       0.1867
  29 H2       -2.1559    -9.3982    -6.5114  H       1  <O>11       0.0919
  30 H3        3.2999    -9.1528    -7.4842  H       1  <O>11       0.0599
  31 H4        2.8205    -7.6256    -6.7056  H       1  <O>11       0.0599
  32 H5        3.9203    -8.3999    -4.7936  H       1  <O>11       0.1499
  33 H6        8.0904   -12.1034    -3.8229  H       1  <O>11       0.0377
  34 H7        8.0854   -12.4960    -2.0853  H       1  <O>11       0.0377
  35 H8        9.7474    -8.7490     0.0132  H       1  <O>11       0.1921
  36 H9        6.2086   -10.9743    -4.8200  H       1  <O>11       0.0629
  37 H10      10.3122    -6.6141    -4.1443  H       1  <O>11       0.0625
  38 H11       9.8333    -7.2027    -6.4416  H       1  <O>11       0.0618
  39 H12       8.7708    -9.3177    -6.9571  H       1  <O>11       0.0618
  40 H13       8.1904   -10.8471    -5.1717  H       1  <O>11       0.0624
  41 H14       6.1838   -11.9048    -0.7095  H       1  <O>11       0.0621
  42 H15       3.7984   -11.4550    -0.6351  H       1  <O>11       0.0646
@<TRIPOS>BOND
     1     1     2    2
     2     2     3    1
     3     3     4    3
     4     4     5    1
     5     5     6    1
     6     6     7   am
     7     7     8    2
     8     7     9    1
     9     9    10   ar
    10    10    11   ar
    11    11    12    1
    12    12    13    1
    13    13    14   ar
    14    14    15   ar
    15    15    16   ar
    16    16    17    2
    17    16    18   ar
    18    18    19   ar
    19    19    20   ar
    20    20    21   ar
    21    21    22   ar
    22    22    23   ar
    23    13    23   ar
    24    18    23   ar
    25    11    24   ar
    26    24    25   ar
    27    25    26   ar
    28     9    26   ar
    29    26    27    1
    30     1    28    1
    31     2    29    1
    32     5    30    1
    33     5    31    1
    34     6    32    1
    35    12    33    1
    36    12    34    1
    37    15    35    1
    38    10    36    1
    39    19    37    1
    40    20    38    1
    41    21    39    1
    42    22    40    1
    43    24    41    1
    44    25    42    1
@<TRIPOS>MOLECULE
mol79_1_6
 42 44 0 0 0
SMALL
USER_CHARGES
****
VDW energy = -27.28
@<TRIPOS>ATOM
   1 N1       -1.6001   -11.4380    -6.2559  N.2     1  <O>11      -0.2986
   2 C1       -1.3355   -10.1106    -6.4246  C.2     1  <O>11       0.0685
   3 C2        0.0455    -9.6444    -6.4889  C.1     1  <O>11      -0.0535
   4 C3        1.4265    -9.1782    -6.5531  C.1     1  <O>11      -0.0771
   5 C4        2.8075    -8.7119    -6.6174  C.3     1  <O>11       0.0742
   6 N2        3.5130    -9.1100    -5.4020  N.am    1  <O>11      -0.3004
   7 C5        3.0734    -8.6739    -4.1817  C.2     1  <O>11       0.2476
   8 O1        2.0902    -7.9509    -4.1088  O.2     1  <O>11      -0.2701
   9 C6        3.7727    -9.0674    -2.9768  C.ar    1  <O>11       0.0721
  10 C7        4.8167    -8.2720    -2.5007  C.ar    1  <O>11      -0.0433
  11 C8        5.5041    -8.6536    -1.3435  C.ar    1  <O>11      -0.0406
  12 C9        6.6103    -7.8167    -0.8410  C.3     1  <O>11       0.0171
  13 C10       7.8894    -8.2672    -1.4528  C.ar    1  <O>11       0.0736
  14 N3        8.3205    -7.7046    -2.6597  N.ar    1  <O>11      -0.1750
  15 N4        9.4261    -8.1751    -3.2808  N.ar    1  <O>11      -0.2425
  16 C11      10.1169    -9.1941    -2.7140  C.ar    1  <O>11       0.2725
  17 O2       11.1980    -9.7024    -3.4577  O.2     1  <O>11      -0.2658
  18 C12       9.8105    -9.7412    -1.4585  C.ar    1  <O>11       0.0496
  19 C13      10.5656   -10.7631    -0.8383  C.ar    1  <O>11      -0.0487
  20 C14      10.1852   -11.2859     0.3975  C.ar    1  <O>11      -0.0610
  21 C15       9.0464   -10.8078     1.0332  C.ar    1  <O>11      -0.0611
  22 C16       8.2856    -9.8033     0.4328  C.ar    1  <O>11      -0.0521
  23 C17       8.6595    -9.2551    -0.8184  C.ar    1  <O>11       0.0106
  24 C18       5.1460    -9.8218    -0.6650  C.ar    1  <O>11      -0.0555
  25 C19       4.0941   -10.6039    -1.1518  C.ar    1  <O>11      -0.0254
  26 C20       3.4010   -10.2314    -2.3034  C.ar    1  <O>11       0.1355
  27 F1        2.3643   -10.9975    -2.7752  F       1  <O>11      -0.2047
  28 H1       -0.8324   -12.1048    -6.1746  H       1  <O>11       0.1867
  29 H2       -2.1559    -9.3982    -6.5114  H       1  <O>11       0.0919
  30 H3        3.2999    -9.1528    -7.4842  H       1  <O>11       0.0599
  31 H4        2.8205    -7.6256    -6.7056  H       1  <O>11       0.0599
  32 H5        4.3338    -9.7123    -5.4635  H       1  <O>11       0.1499
  33 H6        6.6751    -7.9104     0.2442  H       1  <O>11       0.0377
  34 H7        6.4287    -6.7750    -1.1063  H       1  <O>11       0.0377
  35 H8        9.7316    -7.7760    -4.1550  H       1  <O>11       0.1921
  36 H9        5.0798    -7.4076    -2.9995  H       1  <O>11       0.0629
  37 H10      11.4099   -11.1273    -1.3066  H       1  <O>11       0.0625
  38 H11      10.7500   -12.0279     0.8397  H       1  <O>11       0.0618
  39 H12       8.7635   -11.1944     1.9474  H       1  <O>11       0.0618
  40 H13       7.4381    -9.4549     0.9076  H       1  <O>11       0.0624
  41 H14       5.6536   -10.1048     0.1878  H       1  <O>11       0.0621
  42 H15       3.8274   -11.4670    -0.6529  H       1  <O>11       0.0646
@<TRIPOS>BOND
     1     1     2    2
     2     2     3    1
     3     3     4    3
     4     4     5    1
     5     5     6    1
     6     6     7   am
     7     7     8    2
     8     7     9    1
     9     9    10   ar
    10    10    11   ar
    11    11    12    1
    12    12    13    1
    13    13    14   ar
    14    14    15   ar
    15    15    16   ar
    16    16    17    2
    17    16    18   ar
    18    18    19   ar
    19    19    20   ar
    20    20    21   ar
    21    21    22   ar
    22    22    23   ar
    23    13    23   ar
    24    18    23   ar
    25    11    24   ar
    26    24    25   ar
    27    25    26   ar
    28     9    26   ar
    29    26    27    1
    30     1    28    1
    31     2    29    1
    32     5    30    1
    33     5    31    1
    34     6    32    1
    35    12    33    1
    36    12    34    1
    37    15    35    1
    38    10    36    1
    39    19    37    1
    40    20    38    1
    41    21    39    1
    42    22    40    1
    43    24    41    1
    44    25    42    1
@<TRIPOS>MOLECULE
mol79_1_7
 42 44 0 0 0
SMALL
USER_CHARGES
****
VDW energy = -27.17
@<TRIPOS>ATOM
   1 N1       -1.6001   -11.4380    -6.2559  N.2     1  <O>11      -0.2986
   2 C1       -1.3355   -10.1106    -6.4246  C.2     1  <O>11       0.0685
   3 C2        0.0455    -9.6444    -6.4889  C.1     1  <O>11      -0.0535
   4 C3        1.4265    -9.1782    -6.5531  C.1     1  <O>11      -0.0771
   5 C4        2.8075    -8.7119    -6.6174  C.3     1  <O>11       0.0742
   6 N2        3.5130    -9.1100    -5.4020  N.am    1  <O>11      -0.3004
   7 C5        4.8310    -8.7810    -5.2370  C.2     1  <O>11       0.2476
   8 O1        5.4180    -8.1540    -6.1070  O.2     1  <O>11      -0.2701
   9 C6        5.5310    -9.1760    -4.0330  C.ar    1  <O>11       0.0721
  10 C7        6.1895   -10.4066    -3.9968  C.ar    1  <O>11      -0.0433
  11 C8        6.8575   -10.7990    -2.8318  C.ar    1  <O>11      -0.0406
  12 C9        7.5504   -12.1009    -2.7899  C.3     1  <O>11       0.0171
  13 C10       8.0322   -12.3611    -1.4067  C.ar    1  <O>11       0.0736
  14 N3        7.2078   -13.0328    -0.4967  N.ar    1  <O>11      -0.1750
  15 N4        7.5886   -13.1859     0.7921  N.ar    1  <O>11      -0.2425
  16 C11       8.7848   -12.6873     1.1892  C.ar    1  <O>11       0.2725
  17 O2        9.0778   -12.7920     2.5616  O.2     1  <O>11      -0.2658
  18 C12       9.7113   -12.0947     0.3176  C.ar    1  <O>11       0.0496
  19 C13      10.9843   -11.6283     0.7185  C.ar    1  <O>11      -0.0487
  20 C14      11.8443   -11.0178    -0.1941  C.ar    1  <O>11      -0.0610
  21 C15      11.4514   -10.8544    -1.5165  C.ar    1  <O>11      -0.0611
  22 C16      10.1957   -11.3034    -1.9287  C.ar    1  <O>11      -0.0521
  23 C17       9.3114   -11.9320    -1.0182  C.ar    1  <O>11       0.0106
  24 C18       6.8697    -9.9632    -1.7119  C.ar    1  <O>11      -0.0555
  25 C19       6.2105    -8.7313    -1.7669  C.ar    1  <O>11      -0.0254
  26 C20       5.5432    -8.3297    -2.9239  C.ar    1  <O>11       0.1355
  27 F1        4.9027    -7.1168    -2.9775  F       1  <O>11      -0.2047
  28 H1       -0.8324   -12.1048    -6.1746  H       1  <O>11       0.1867
  29 H2       -2.1559    -9.3982    -6.5114  H       1  <O>11       0.0919
  30 H3        3.2999    -9.1528    -7.4842  H       1  <O>11       0.0599
  31 H4        2.8205    -7.6256    -6.7056  H       1  <O>11       0.0599
  32 H5        3.0230    -9.6340    -4.6770  H       1  <O>11       0.1499
  33 H6        8.4013   -12.0836    -3.4727  H       1  <O>11       0.0377
  34 H7        6.8604   -12.8906    -3.0881  H       1  <O>11       0.0377
  35 H8        6.9907   -13.6617     1.4501  H       1  <O>11       0.1921
  36 H9        6.1834   -11.0232    -4.8244  H       1  <O>11       0.0629
  37 H10      11.2815   -11.7413     1.7003  H       1  <O>11       0.0625
  38 H11      12.7725   -10.6875     0.1130  H       1  <O>11       0.0618
  39 H12      12.0865   -10.4020    -2.1926  H       1  <O>11       0.0618
  40 H13       9.9073   -11.1756    -2.9113  H       1  <O>11       0.0624
  41 H14       7.3610   -10.2526    -0.8517  H       1  <O>11       0.0621
  42 H15       6.2178    -8.1119    -0.9415  H       1  <O>11       0.0646
@<TRIPOS>BOND
     1     1     2    2
     2     2     3    1
     3     3     4    3
     4     4     5    1
     5     5     6    1
     6     6     7   am
     7     7     8    2
     8     7     9    1
     9     9    10   ar
    10    10    11   ar
    11    11    12    1
    12    12    13    1
    13    13    14   ar
    14    14    15   ar
    15    15    16   ar
    16    16    17    2
    17    16    18   ar
    18    18    19   ar
    19    19    20   ar
    20    20    21   ar
    21    21    22   ar
    22    22    23   ar
    23    13    23   ar
    24    18    23   ar
    25    11    24   ar
    26    24    25   ar
    27    25    26   ar
    28     9    26   ar
    29    26    27    1
    30     1    28    1
    31     2    29    1
    32     5    30    1
    33     5    31    1
    34     6    32    1
    35    12    33    1
    36    12    34    1
    37    15    35    1
    38    10    36    1
    39    19    37    1
    40    20    38    1
    41    21    39    1
    42    22    40    1
    43    24    41    1
    44    25    42    1
@<TRIPOS>MOLECULE
mol79_1_8
 42 44 0 0 0
SMALL
USER_CHARGES
****
VDW energy = -24.04
@<TRIPOS>ATOM
   1 N1       -1.6001   -11.4380    -6.2559  N.2     1  <O>11      -0.2986
   2 C1       -1.3355   -10.1106    -6.4246  C.2     1  <O>11       0.0685
   3 C2        0.0455    -9.6444    -6.4889  C.1     1  <O>11      -0.0535
   4 C3        1.4265    -9.1782    -6.5531  C.1     1  <O>11      -0.0771
   5 C4        2.8075    -8.7119    -6.6174  C.3     1  <O>11       0.0742
   6 N2        3.5130    -9.1100    -5.4020  N.am    1  <O>11      -0.3004
   7 C5        4.8310    -8.7810    -5.2370  C.2     1  <O>11       0.2476
   8 O1        5.4212    -9.1135    -4.2193  O.2     1  <O>11      -0.2701
   9 C6        5.5267    -8.0384    -6.2667  C.ar    1  <O>11       0.0721
  10 C7        5.5284    -6.6429    -6.2212  C.ar    1  <O>11      -0.0433
  11 C8        6.1889    -5.9197    -7.2202  C.ar    1  <O>11      -0.0406
  12 C9        6.1884    -4.4450    -7.1764  C.3     1  <O>11       0.0171
  13 C10       6.8016    -3.9124    -8.4228  C.ar    1  <O>11       0.0736
  14 N3        5.9969    -3.6481    -9.5371  N.ar    1  <O>11      -0.1750
  15 N4        6.5513    -3.2623   -10.7090  N.ar    1  <O>11      -0.2425
  16 C11       7.8976    -3.1265   -10.7877  C.ar    1  <O>11       0.2725
  17 O2        8.4187    -2.8195   -12.0583  O.2     1  <O>11      -0.2658
  18 C12       8.7618    -3.2714    -9.6916  C.ar    1  <O>11       0.0496
  19 C13      10.1598    -3.0711    -9.7581  C.ar    1  <O>11      -0.0487
  20 C14      10.9659    -3.2651    -8.6366  C.ar    1  <O>11      -0.0610
  21 C15      10.3982    -3.6674    -7.4342  C.ar    1  <O>11      -0.0611
  22 C16       9.0205    -3.8756    -7.3519  C.ar    1  <O>11      -0.0521
  23 C17       8.1847    -3.6771    -8.4779  C.ar    1  <O>11       0.0106
  24 C18       6.8467    -6.5890    -8.2557  C.ar    1  <O>11      -0.0555
  25 C19       6.8405    -7.9870    -8.2831  C.ar    1  <O>11      -0.0254
  26 C20       6.1868    -8.7177    -7.2910  C.ar    1  <O>11       0.1355
  27 F1        6.1880   -10.0901    -7.3166  F       1  <O>11      -0.2047
  28 H1       -0.8324   -12.1048    -6.1746  H       1  <O>11       0.1867
  29 H2       -2.1559    -9.3982    -6.5114  H       1  <O>11       0.0919
  30 H3        3.2999    -9.1528    -7.4842  H       1  <O>11       0.0599
  31 H4        2.8205    -7.6256    -6.7056  H       1  <O>11       0.0599
  32 H5        3.0230    -9.6340    -4.6770  H       1  <O>11       0.1499
  33 H6        6.7656    -4.1052    -6.3150  H       1  <O>11       0.0377
  34 H7        5.1634    -4.0833    -7.0933  H       1  <O>11       0.0377
  35 H8        5.9725    -3.0808   -11.5145  H       1  <O>11       0.1921
  36 H9        5.0454    -6.1479    -5.4552  H       1  <O>11       0.0629
  37 H10      10.5899    -2.7773   -10.6490  H       1  <O>11       0.0625
  38 H11      11.9842    -3.1097    -8.6999  H       1  <O>11       0.0618
  39 H12      10.9937    -3.8120    -6.6038  H       1  <O>11       0.0618
  40 H13       8.6046    -4.1785    -6.4572  H       1  <O>11       0.0624
  41 H14       7.3328    -6.0562    -8.9939  H       1  <O>11       0.0621
  42 H15       7.3254    -8.4841    -9.0465  H       1  <O>11       0.0646
@<TRIPOS>BOND
     1     1     2    2
     2     2     3    1
     3     3     4    3
     4     4     5    1
     5     5     6    1
     6     6     7   am
     7     7     8    2
     8     7     9    1
     9     9    10   ar
    10    10    11   ar
    11    11    12    1
    12    12    13    1
    13    13    14   ar
    14    14    15   ar
    15    15    16   ar
    16    16    17    2
    17    16    18   ar
    18    18    19   ar
    19    19    20   ar
    20    20    21   ar
    21    21    22   ar
    22    22    23   ar
    23    13    23   ar
    24    18    23   ar
    25    11    24   ar
    26    24    25   ar
    27    25    26   ar
    28     9    26   ar
    29    26    27    1
    30     1    28    1
    31     2    29    1
    32     5    30    1
    33     5    31    1
    34     6    32    1
    35    12    33    1
    36    12    34    1
    37    15    35    1
    38    10    36    1
    39    19    37    1
    40    20    38    1
    41    21    39    1
    42    22    40    1
    43    24    41    1
    44    25    42    1
@<TRIPOS>MOLECULE
mol79_1_9
 42 44 0 0 0
SMALL
USER_CHARGES
****
VDW energy = -23.56
@<TRIPOS>ATOM
   1 N1       -1.6001   -11.4380    -6.2559  N.2     1  <O>11      -0.2986
   2 C1       -1.3355   -10.1106    -6.4246  C.2     1  <O>11       0.0685
   3 C2        0.0455    -9.6444    -6.4889  C.1     1  <O>11      -0.0535
   4 C3        1.4265    -9.1782    -6.5531  C.1     1  <O>11      -0.0771
   5 C4        2.8075    -8.7119    -6.6174  C.3     1  <O>11       0.0742
   6 N2        3.5130    -9.1100    -5.4020  N.am    1  <O>11      -0.3004
   7 C5        3.6262   -10.4350    -5.0795  C.2     1  <O>11       0.2476
   8 O1        3.1367   -11.2856    -5.8085  O.2     1  <O>11      -0.2701
   9 C6        4.3246   -10.8302    -3.8746  C.ar    1  <O>11       0.0721
  10 C7        5.6972   -11.0797    -3.9298  C.ar    1  <O>11      -0.0433
  11 C8        6.3753   -11.4736    -2.7712  C.ar    1  <O>11      -0.0406
  12 C9        7.8249   -11.7419    -2.8282  C.3     1  <O>11       0.0171
  13 C10       8.5390   -10.5131    -3.2679  C.ar    1  <O>11       0.0736
  14 N3        8.9832    -9.5875    -2.3166  N.ar    1  <O>11      -0.1750
  15 N4        9.5411    -8.4179    -2.7042  N.ar    1  <O>11      -0.2425
  16 C11       9.6727    -8.1575    -4.0278  C.ar    1  <O>11       0.2725
  17 O2       10.1687    -6.8846    -4.3652  O.2     1  <O>11      -0.2658
  18 C12       9.3486    -9.0746    -5.0395  C.ar    1  <O>11       0.0496
  19 C13       9.5412    -8.8280    -6.4183  C.ar    1  <O>11      -0.0487
  20 C14       9.1654    -9.7712    -7.3744  C.ar    1  <O>11      -0.0610
  21 C15       8.5864   -10.9700    -6.9776  C.ar    1  <O>11      -0.0611
  22 C16       8.3833   -11.2278    -5.6209  C.ar    1  <O>11      -0.0521
  23 C17       8.7646   -10.2853    -4.6349  C.ar    1  <O>11       0.0106
  24 C18       5.6846   -11.6128    -1.5643  C.ar    1  <O>11      -0.0555
  25 C19       4.3112   -11.3531    -1.5249  C.ar    1  <O>11      -0.0254
  26 C20       3.6260   -10.9580    -2.6737  C.ar    1  <O>11       0.1355
  27 F1        2.2791   -10.6971    -2.6307  F       1  <O>11      -0.2047
  28 H1       -0.8324   -12.1048    -6.1746  H       1  <O>11       0.1867
  29 H2       -2.1559    -9.3982    -6.5114  H       1  <O>11       0.0919
  30 H3        3.2999    -9.1528    -7.4842  H       1  <O>11       0.0599
  31 H4        2.8205    -7.6256    -6.7056  H       1  <O>11       0.0599
  32 H5        3.9203    -8.3999    -4.7936  H       1  <O>11       0.1499
  33 H6        8.0194   -12.5474    -3.5380  H       1  <O>11       0.0377
  34 H7        8.1806   -12.0339    -1.8399  H       1  <O>11       0.0377
  35 H8        9.8528    -7.7469    -2.0191  H       1  <O>11       0.1921
  36 H9        6.2086   -10.9743    -4.8200  H       1  <O>11       0.0629
  37 H10       9.9659    -7.9377    -6.7214  H       1  <O>11       0.0625
  38 H11       9.3175    -9.5786    -8.3768  H       1  <O>11       0.0618
  39 H12       8.3071   -11.6684    -7.6843  H       1  <O>11       0.0618
  40 H13       7.9488   -12.1182    -5.3320  H       1  <O>11       0.0624
  41 H14       6.1838   -11.9048    -0.7095  H       1  <O>11       0.0621
  42 H15       3.7984   -11.4550    -0.6351  H       1  <O>11       0.0646
@<TRIPOS>BOND
     1     1     2    2
     2     2     3    1
     3     3     4    3
     4     4     5    1
     5     5     6    1
     6     6     7   am
     7     7     8    2
     8     7     9    1
     9     9    10   ar
    10    10    11   ar
    11    11    12    1
    12    12    13    1
    13    13    14   ar
    14    14    15   ar
    15    15    16   ar
    16    16    17    2
    17    16    18   ar
    18    18    19   ar
    19    19    20   ar
    20    20    21   ar
    21    21    22   ar
    22    22    23   ar
    23    13    23   ar
    24    18    23   ar
    25    11    24   ar
    26    24    25   ar
    27    25    26   ar
    28     9    26   ar
    29    26    27    1
    30     1    28    1
    31     2    29    1
    32     5    30    1
    33     5    31    1
    34     6    32    1
    35    12    33    1
    36    12    34    1
    37    15    35    1
    38    10    36    1
    39    19    37    1
    40    20    38    1
    41    21    39    1
    42    22    40    1
    43    24    41    1
    44    25    42    1
@<TRIPOS>MOLECULE
mol79_1_10
 42 44 0 0 0
SMALL
USER_CHARGES
****
VDW energy = -22.91
@<TRIPOS>ATOM
   1 N1       -1.6001   -11.4380    -6.2559  N.2     1  <O>11      -0.2986
   2 C1       -1.3355   -10.1106    -6.4246  C.2     1  <O>11       0.0685
   3 C2        0.0455    -9.6444    -6.4889  C.1     1  <O>11      -0.0535
   4 C3        1.4265    -9.1782    -6.5531  C.1     1  <O>11      -0.0771
   5 C4        2.8075    -8.7119    -6.6174  C.3     1  <O>11       0.0742
   6 N2        3.5130    -9.1100    -5.4020  N.am    1  <O>11      -0.3004
   7 C5        4.8310    -8.7810    -5.2370  C.2     1  <O>11       0.2476
   8 O1        5.4180    -8.1540    -6.1070  O.2     1  <O>11      -0.2701
   9 C6        5.5310    -9.1760    -4.0330  C.ar    1  <O>11       0.0721
  10 C7        4.8277    -9.8179    -3.0119  C.ar    1  <O>11      -0.0433
  11 C8        5.4963   -10.1911    -1.8410  C.ar    1  <O>11      -0.0406
  12 C9        4.7541   -10.8657    -0.7589  C.3     1  <O>11       0.0171
  13 C10       4.1794   -12.1386    -1.2715  C.ar    1  <O>11       0.0736
  14 N3        2.8995   -12.1468    -1.8378  N.ar    1  <O>11      -0.1750
  15 N4        2.3219   -13.3107    -2.2138  N.ar    1  <O>11      -0.2425
  16 C11       3.0035   -14.4697    -2.0427  C.ar    1  <O>11       0.2725
  17 O2        2.3101   -15.6520    -2.3613  O.2     1  <O>11      -0.2658
  18 C12       4.3267   -14.5358    -1.5801  C.ar    1  <O>11       0.0496
  19 C13       5.0600   -15.7384    -1.4579  C.ar    1  <O>11      -0.0487
  20 C14       6.3622   -15.7363    -0.9585  C.ar    1  <O>11      -0.0610
  21 C15       6.9539   -14.5423    -0.5662  C.ar    1  <O>11      -0.0611
  22 C16       6.2426   -13.3462    -0.6743  C.ar    1  <O>11      -0.0521
  23 C17       4.9219   -13.3272    -1.1854  C.ar    1  <O>11       0.0106
  24 C18       6.8609    -9.9273    -1.6949  C.ar    1  <O>11      -0.0555
  25 C19       7.5517    -9.2892    -2.7297  C.ar    1  <O>11      -0.0254
  26 C20       6.8952    -8.9146    -3.9019  C.ar    1  <O>11       0.1355
  27 F1        7.5773    -8.2944    -4.9189  F       1  <O>11      -0.2047
  28 H1       -0.8324   -12.1048    -6.1746  H       1  <O>11       0.1867
  29 H2       -2.1559    -9.3982    -6.5114  H       1  <O>11       0.0919
  30 H3        3.2999    -9.1528    -7.4842  H       1  <O>11       0.0599
  31 H4        2.8205    -7.6256    -6.7056  H       1  <O>11       0.0599
  32 H5        3.0230    -9.6340    -4.6770  H       1  <O>11       0.1499
  33 H6        3.9476   -10.2184    -0.4109  H       1  <O>11       0.0377
  34 H7        5.4310   -11.0807     0.0681  H       1  <O>11       0.0377
  35 H8        1.3961   -13.3177    -2.6133  H       1  <O>11       0.1921
  36 H9        3.8206   -10.0157    -3.1201  H       1  <O>11       0.0629
  37 H10       4.6256   -16.6302    -1.7422  H       1  <O>11       0.0625
  38 H11       6.8863   -16.6219    -0.8804  H       1  <O>11       0.0618
  39 H12       7.9172   -14.5396    -0.1957  H       1  <O>11       0.0618
  40 H13       6.6856   -12.4626    -0.3773  H       1  <O>11       0.0624
  41 H14       7.3544   -10.2009    -0.8309  H       1  <O>11       0.0621
  42 H15       8.5594    -9.0930    -2.6248  H       1  <O>11       0.0646
@<TRIPOS>BOND
     1     1     2    2
     2     2     3    1
     3     3     4    3
     4     4     5    1
     5     5     6    1
     6     6     7   am
     7     7     8    2
     8     7     9    1
     9     9    10   ar
    10    10    11   ar
    11    11    12    1
    12    12    13    1
    13    13    14   ar
    14    14    15   ar
    15    15    16   ar
    16    16    17    2
    17    16    18   ar
    18    18    19   ar
    19    19    20   ar
    20    20    21   ar
    21    21    22   ar
    22    22    23   ar
    23    13    23   ar
    24    18    23   ar
    25    11    24   ar
    26    24    25   ar
    27    25    26   ar
    28     9    26   ar
    29    26    27    1
    30     1    28    1
    31     2    29    1
    32     5    30    1
    33     5    31    1
    34     6    32    1
    35    12    33    1
    36    12    34    1
    37    15    35    1
    38    10    36    1
    39    19    37    1
    40    20    38    1
    41    21    39    1
    42    22    40    1
    43    24    41    1
    44    25    42    1
@<TRIPOS>MOLECULE
mol79_1_11
 42 44 0 0 0
SMALL
USER_CHARGES
****
VDW energy = -22.71
@<TRIPOS>ATOM
   1 N1       -1.6001   -11.4380    -6.2559  N.2     1  <O>11      -0.2986
   2 C1       -1.3355   -10.1106    -6.4246  C.2     1  <O>11       0.0685
   3 C2        0.0455    -9.6444    -6.4889  C.1     1  <O>11      -0.0535
   4 C3        1.4265    -9.1782    -6.5531  C.1     1  <O>11      -0.0771
   5 C4        2.8075    -8.7119    -6.6174  C.3     1  <O>11       0.0742
   6 N2        3.5130    -9.1100    -5.4020  N.am    1  <O>11      -0.3004
   7 C5        4.8310    -8.7810    -5.2370  C.2     1  <O>11       0.2476
   8 O1        5.4180    -8.1540    -6.1070  O.2     1  <O>11      -0.2701
   9 C6        5.5310    -9.1760    -4.0330  C.ar    1  <O>11       0.0721
  10 C7        4.8277    -9.8179    -3.0119  C.ar    1  <O>11      -0.0433
  11 C8        5.4963   -10.1911    -1.8410  C.ar    1  <O>11      -0.0406
  12 C9        4.7541   -10.8657    -0.7589  C.3     1  <O>11       0.0171
  13 C10       3.6564    -9.9806    -0.2849  C.ar    1  <O>11       0.0736
  14 N3        2.3932   -10.0561    -0.8830  N.ar    1  <O>11      -0.1750
  15 N4        1.4153    -9.1888    -0.5350  N.ar    1  <O>11      -0.2425
  16 C11       1.6724    -8.2499     0.4081  C.ar    1  <O>11       0.2725
  17 O2        0.6475    -7.3173     0.6533  O.2     1  <O>11      -0.2658
  18 C12       2.8755    -8.1748     1.1267  C.ar    1  <O>11       0.0496
  19 C13       3.1235    -7.2343     2.1528  C.ar    1  <O>11      -0.0487
  20 C14       4.3557    -7.1928     2.8047  C.ar    1  <O>11      -0.0610
  21 C15       5.3628    -8.0789     2.4436  C.ar    1  <O>11      -0.0611
  22 C16       5.1376    -9.0103     1.4287  C.ar    1  <O>11      -0.0521
  23 C17       3.8907    -9.0723     0.7599  C.ar    1  <O>11       0.0106
  24 C18       6.8609    -9.9273    -1.6949  C.ar    1  <O>11      -0.0555
  25 C19       7.5517    -9.2892    -2.7297  C.ar    1  <O>11      -0.0254
  26 C20       6.8952    -8.9146    -3.9019  C.ar    1  <O>11       0.1355
  27 F1        7.5773    -8.2944    -4.9189  F       1  <O>11      -0.2047
  28 H1       -0.8324   -12.1048    -6.1746  H       1  <O>11       0.1867
  29 H2       -2.1559    -9.3982    -6.5114  H       1  <O>11       0.0919
  30 H3        3.2999    -9.1528    -7.4842  H       1  <O>11       0.0599
  31 H4        2.8205    -7.6256    -6.7056  H       1  <O>11       0.0599
  32 H5        3.0230    -9.6340    -4.6770  H       1  <O>11       0.1499
  33 H6        5.4309   -11.0791     0.0699  H       1  <O>11       0.0377
  34 H7        4.3317   -11.7984    -1.1334  H       1  <O>11       0.0377
  35 H8        0.5080    -9.2372    -0.9724  H       1  <O>11       0.1921
  36 H9        3.8206   -10.0157    -3.1201  H       1  <O>11       0.0629
  37 H10       2.3822    -6.5691     2.4232  H       1  <O>11       0.0625
  38 H11       4.5194    -6.5037     3.5553  H       1  <O>11       0.0618
  39 H12       6.2754    -8.0486     2.9247  H       1  <O>11       0.0618
  40 H13       5.8908    -9.6634     1.1616  H       1  <O>11       0.0624
  41 H14       7.3544   -10.2009    -0.8309  H       1  <O>11       0.0621
  42 H15       8.5594    -9.0930    -2.6248  H       1  <O>11       0.0646
@<TRIPOS>BOND
     1     1     2    2
     2     2     3    1
     3     3     4    3
     4     4     5    1
     5     5     6    1
     6     6     7   am
     7     7     8    2
     8     7     9    1
     9     9    10   ar
    10    10    11   ar
    11    11    12    1
    12    12    13    1
    13    13    14   ar
    14    14    15   ar
    15    15    16   ar
    16    16    17    2
    17    16    18   ar
    18    18    19   ar
    19    19    20   ar
    20    20    21   ar
    21    21    22   ar
    22    22    23   ar
    23    13    23   ar
    24    18    23   ar
    25    11    24   ar
    26    24    25   ar
    27    25    26   ar
    28     9    26   ar
    29    26    27    1
    30     1    28    1
    31     2    29    1
    32     5    30    1
    33     5    31    1
    34     6    32    1
    35    12    33    1
    36    12    34    1
    37    15    35    1
    38    10    36    1
    39    19    37    1
    40    20    38    1
    41    21    39    1
    42    22    40    1
    43    24    41    1
    44    25    42    1
@<TRIPOS>MOLECULE
mol79_1_12
 42 44 0 0 0
SMALL
USER_CHARGES
****
VDW energy = -22.56
@<TRIPOS>ATOM
   1 N1       -1.6001   -11.4380    -6.2559  N.2     1  <O>11      -0.2986
   2 C1       -1.3355   -10.1106    -6.4246  C.2     1  <O>11       0.0685
   3 C2        0.0455    -9.6444    -6.4889  C.1     1  <O>11      -0.0535
   4 C3        1.4265    -9.1782    -6.5531  C.1     1  <O>11      -0.0771
   5 C4        2.8075    -8.7119    -6.6174  C.3     1  <O>11       0.0742
   6 N2        3.5130    -9.1100    -5.4020  N.am    1  <O>11      -0.3004
   7 C5        3.6262   -10.4350    -5.0795  C.2     1  <O>11       0.2476
   8 O1        3.1367   -11.2856    -5.8085  O.2     1  <O>11      -0.2701
   9 C6        4.3246   -10.8302    -3.8746  C.ar    1  <O>11       0.0721
  10 C7        3.6123   -10.9542    -2.6802  C.ar    1  <O>11      -0.0433
  11 C8        4.2841   -11.3241    -1.5100  C.ar    1  <O>11      -0.0406
  12 C9        3.5341   -11.4516    -0.2459  C.3     1  <O>11       0.0171
  13 C10       4.4860   -11.6848     0.8733  C.ar    1  <O>11       0.0736
  14 N3        5.0213   -10.5957     1.5708  N.ar    1  <O>11      -0.1750
  15 N4        5.9652   -10.7851     2.5209  N.ar    1  <O>11      -0.2425
  16 C11       6.3801   -12.0459     2.7951  C.ar    1  <O>11       0.2725
  17 O2        7.4326   -12.1669     3.7213  O.2     1  <O>11      -0.2658
  18 C12       5.8204   -13.1950     2.2157  C.ar    1  <O>11       0.0496
  19 C13       6.2102   -14.5136     2.5447  C.ar    1  <O>11      -0.0487
  20 C14       5.6354   -15.6117     1.9052  C.ar    1  <O>11      -0.0610
  21 C15       4.6705   -15.4179     0.9248  C.ar    1  <O>11      -0.0611
  22 C16       4.2778   -14.1228     0.5830  C.ar    1  <O>11      -0.0521
  23 C17       4.8449   -12.9956     1.2260  C.ar    1  <O>11       0.0106
  24 C18       5.6592   -11.5721    -1.5362  C.ar    1  <O>11      -0.0555
  25 C19       6.3565   -11.4493    -2.7419  C.ar    1  <O>11      -0.0254
  26 C20       5.6961   -11.0831    -3.9146  C.ar    1  <O>11       0.1355
  27 F1        6.3819   -10.9699    -5.0982  F       1  <O>11      -0.2047
  28 H1       -0.8324   -12.1048    -6.1746  H       1  <O>11       0.1867
  29 H2       -2.1559    -9.3982    -6.5114  H       1  <O>11       0.0919
  30 H3        3.2999    -9.1528    -7.4842  H       1  <O>11       0.0599
  31 H4        2.8205    -7.6256    -6.7056  H       1  <O>11       0.0599
  32 H5        3.9203    -8.3999    -4.7936  H       1  <O>11       0.1499
  33 H6        2.8430   -12.2932    -0.3149  H       1  <O>11       0.0377
  34 H7        2.9740   -10.5349    -0.0605  H       1  <O>11       0.0377
  35 H8        6.3576    -9.9998     3.0170  H       1  <O>11       0.1921
  36 H9        2.5963   -10.7741    -2.6606  H       1  <O>11       0.0629
  37 H10       6.9301   -14.6657     3.2682  H       1  <O>11       0.0625
  38 H11       5.9269   -16.5682     2.1604  H       1  <O>11       0.0618
  39 H12       4.2450   -16.2296     0.4503  H       1  <O>11       0.0618
  40 H13       3.5636   -13.9846    -0.1491  H       1  <O>11       0.0624
  41 H14       6.1557   -11.8435    -0.6731  H       1  <O>11       0.0621
  42 H15       7.3720   -11.6318    -2.7644  H       1  <O>11       0.0646
@<TRIPOS>BOND
     1     1     2    2
     2     2     3    1
     3     3     4    3
     4     4     5    1
     5     5     6    1
     6     6     7   am
     7     7     8    2
     8     7     9    1
     9     9    10   ar
    10    10    11   ar
    11    11    12    1
    12    12    13    1
    13    13    14   ar
    14    14    15   ar
    15    15    16   ar
    16    16    17    2
    17    16    18   ar
    18    18    19   ar
    19    19    20   ar
    20    20    21   ar
    21    21    22   ar
    22    22    23   ar
    23    13    23   ar
    24    18    23   ar
    25    11    24   ar
    26    24    25   ar
    27    25    26   ar
    28     9    26   ar
    29    26    27    1
    30     1    28    1
    31     2    29    1
    32     5    30    1
    33     5    31    1
    34     6    32    1
    35    12    33    1
    36    12    34    1
    37    15    35    1
    38    10    36    1
    39    19    37    1
    40    20    38    1
    41    21    39    1
    42    22    40    1
    43    24    41    1
    44    25    42    1
@<TRIPOS>MOLECULE
mol79_1_13
 42 44 0 0 0
SMALL
USER_CHARGES
****
VDW energy = -22.48
@<TRIPOS>ATOM
   1 N1       -1.6001   -11.4380    -6.2559  N.2     1  <O>11      -0.2986
   2 C1       -1.3355   -10.1106    -6.4246  C.2     1  <O>11       0.0685
   3 C2        0.0455    -9.6444    -6.4889  C.1     1  <O>11      -0.0535
   4 C3        1.4265    -9.1782    -6.5531  C.1     1  <O>11      -0.0771
   5 C4        2.8075    -8.7119    -6.6174  C.3     1  <O>11       0.0742
   6 N2        3.5130    -9.1100    -5.4020  N.am    1  <O>11      -0.3004
   7 C5        3.6262   -10.4350    -5.0795  C.2     1  <O>11       0.2476
   8 O1        3.1367   -11.2856    -5.8085  O.2     1  <O>11      -0.2701
   9 C6        4.3246   -10.8302    -3.8746  C.ar    1  <O>11       0.0721
  10 C7        5.6972   -11.0797    -3.9298  C.ar    1  <O>11      -0.0433
  11 C8        6.3753   -11.4736    -2.7712  C.ar    1  <O>11      -0.0406
  12 C9        7.8249   -11.7419    -2.8282  C.3     1  <O>11       0.0171
  13 C10       8.2763   -12.3028    -1.5263  C.ar    1  <O>11       0.0736
  14 N3        8.2635   -13.6874    -1.3225  N.ar    1  <O>11      -0.1750
  15 N4        8.5718   -14.2066    -0.1121  N.ar    1  <O>11      -0.2425
  16 C11       8.9023   -13.3675     0.8998  C.ar    1  <O>11       0.2725
  17 O2        9.1154   -13.9627     2.1570  O.2     1  <O>11      -0.2658
  18 C12       9.0389   -11.9790     0.7490  C.ar    1  <O>11       0.0496
  19 C13       9.4420   -11.1091     1.7880  C.ar    1  <O>11      -0.0487
  20 C14       9.5248    -9.7326     1.5788  C.ar    1  <O>11      -0.0610
  21 C15       9.2022    -9.1979     0.3379  C.ar    1  <O>11      -0.0611
  22 C16       8.7966   -10.0413    -0.6976  C.ar    1  <O>11      -0.0521
  23 C17       8.7130   -11.4421    -0.5065  C.ar    1  <O>11       0.0106
  24 C18       5.6846   -11.6128    -1.5643  C.ar    1  <O>11      -0.0555
  25 C19       4.3112   -11.3531    -1.5249  C.ar    1  <O>11      -0.0254
  26 C20       3.6260   -10.9580    -2.6737  C.ar    1  <O>11       0.1355
  27 F1        2.2791   -10.6971    -2.6307  F       1  <O>11      -0.2047
  28 H1       -0.8324   -12.1048    -6.1746  H       1  <O>11       0.1867
  29 H2       -2.1559    -9.3982    -6.5114  H       1  <O>11       0.0919
  30 H3        3.2999    -9.1528    -7.4842  H       1  <O>11       0.0599
  31 H4        2.8205    -7.6256    -6.7056  H       1  <O>11       0.0599
  32 H5        3.9203    -8.3999    -4.7936  H       1  <O>11       0.1499
  33 H6        8.3606   -10.8124    -3.0274  H       1  <O>11       0.0377
  34 H7        8.0318   -12.4588    -3.6231  H       1  <O>11       0.0377
  35 H8        8.5538   -15.2036     0.0375  H       1  <O>11       0.1921
  36 H9        6.2086   -10.9743    -4.8200  H       1  <O>11       0.0629
  37 H10       9.6783   -11.4980     2.7142  H       1  <O>11       0.0625
  38 H11       9.8259    -9.1114     2.3459  H       1  <O>11       0.0618
  39 H12       9.2624    -8.1795     0.1822  H       1  <O>11       0.0618
  40 H13       8.5540    -9.6381    -1.6162  H       1  <O>11       0.0624
  41 H14       6.1838   -11.9048    -0.7095  H       1  <O>11       0.0621
  42 H15       3.7984   -11.4550    -0.6351  H       1  <O>11       0.0646
@<TRIPOS>BOND
     1     1     2    2
     2     2     3    1
     3     3     4    3
     4     4     5    1
     5     5     6    1
     6     6     7   am
     7     7     8    2
     8     7     9    1
     9     9    10   ar
    10    10    11   ar
    11    11    12    1
    12    12    13    1
    13    13    14   ar
    14    14    15   ar
    15    15    16   ar
    16    16    17    2
    17    16    18   ar
    18    18    19   ar
    19    19    20   ar
    20    20    21   ar
    21    21    22   ar
    22    22    23   ar
    23    13    23   ar
    24    18    23   ar
    25    11    24   ar
    26    24    25   ar
    27    25    26   ar
    28     9    26   ar
    29    26    27    1
    30     1    28    1
    31     2    29    1
    32     5    30    1
    33     5    31    1
    34     6    32    1
    35    12    33    1
    36    12    34    1
    37    15    35    1
    38    10    36    1
    39    19    37    1
    40    20    38    1
    41    21    39    1
    42    22    40    1
    43    24    41    1
    44    25    42    1
@<TRIPOS>MOLECULE
mol79_1_14
 42 44 0 0 0
SMALL
USER_CHARGES
****
VDW energy = -21.14
@<TRIPOS>ATOM
   1 N1       -1.6001   -11.4380    -6.2559  N.2     1  <O>11      -0.2986
   2 C1       -1.3355   -10.1106    -6.4246  C.2     1  <O>11       0.0685
   3 C2        0.0455    -9.6444    -6.4889  C.1     1  <O>11      -0.0535
   4 C3        1.4265    -9.1782    -6.5531  C.1     1  <O>11      -0.0771
   5 C4        2.8075    -8.7119    -6.6174  C.3     1  <O>11       0.0742
   6 N2        3.5130    -9.1100    -5.4020  N.am    1  <O>11      -0.3004
   7 C5        4.8310    -8.7810    -5.2370  C.2     1  <O>11       0.2476
   8 O1        5.4180    -8.1540    -6.1070  O.2     1  <O>11      -0.2701
   9 C6        5.5310    -9.1760    -4.0330  C.ar    1  <O>11       0.0721
  10 C7        4.8277    -9.8179    -3.0119  C.ar    1  <O>11      -0.0433
  11 C8        5.4963   -10.1911    -1.8410  C.ar    1  <O>11      -0.0406
  12 C9        4.7541   -10.8657    -0.7589  C.3     1  <O>11       0.0171
  13 C10       4.2030    -9.8462     0.1738  C.ar    1  <O>11       0.0736
  14 N3        2.9291    -9.3121    -0.0516  N.ar    1  <O>11      -0.1750
  15 N4        2.4562    -8.3115     0.7259  N.ar    1  <O>11      -0.2425
  16 C11       3.2298    -7.8380     1.7331  C.ar    1  <O>11       0.2725
  17 O2        2.7220    -6.7327     2.4407  O.2     1  <O>11      -0.2658
  18 C12       4.4710    -8.3880     2.0882  C.ar    1  <O>11       0.0496
  19 C13       5.2519    -7.9346     3.1762  C.ar    1  <O>11      -0.0487
  20 C14       6.4942    -8.5046     3.4536  C.ar    1  <O>11      -0.0610
  21 C15       6.9836    -9.5281     2.6518  C.ar    1  <O>11      -0.0611
  22 C16       6.2288    -9.9842     1.5699  C.ar    1  <O>11      -0.0521
  23 C17       4.9621    -9.4226     1.2765  C.ar    1  <O>11       0.0106
  24 C18       6.8609    -9.9273    -1.6949  C.ar    1  <O>11      -0.0555
  25 C19       7.5517    -9.2892    -2.7297  C.ar    1  <O>11      -0.0254
  26 C20       6.8952    -8.9146    -3.9019  C.ar    1  <O>11       0.1355
  27 F1        7.5773    -8.2944    -4.9189  F       1  <O>11      -0.2047
  28 H1       -0.8324   -12.1048    -6.1746  H       1  <O>11       0.1867
  29 H2       -2.1559    -9.3982    -6.5114  H       1  <O>11       0.0919
  30 H3        3.2999    -9.1528    -7.4842  H       1  <O>11       0.0599
  31 H4        2.8205    -7.6256    -6.7056  H       1  <O>11       0.0599
  32 H5        3.0230    -9.6340    -4.6770  H       1  <O>11       0.1499
  33 H6        5.4268   -11.5296    -0.2137  H       1  <O>11       0.0377
  34 H7        3.9361   -11.4467    -1.1854  H       1  <O>11       0.0377
  35 H8        1.5421    -7.9203     0.5579  H       1  <O>11       0.1921
  36 H9        3.8206   -10.0157    -3.1201  H       1  <O>11       0.0629
  37 H10       4.8978    -7.1711     3.7734  H       1  <O>11       0.0625
  38 H11       7.0499    -8.1661     4.2547  H       1  <O>11       0.0618
  39 H12       7.9030    -9.9501     2.8556  H       1  <O>11       0.0618
  40 H13       6.5991   -10.7419     0.9751  H       1  <O>11       0.0624
  41 H14       7.3544   -10.2009    -0.8309  H       1  <O>11       0.0621
  42 H15       8.5594    -9.0930    -2.6248  H       1  <O>11       0.0646
@<TRIPOS>BOND
     1     1     2    2
     2     2     3    1
     3     3     4    3
     4     4     5    1
     5     5     6    1
     6     6     7   am
     7     7     8    2
     8     7     9    1
     9     9    10   ar
    10    10    11   ar
    11    11    12    1
    12    12    13    1
    13    13    14   ar
    14    14    15   ar
    15    15    16   ar
    16    16    17    2
    17    16    18   ar
    18    18    19   ar
    19    19    20   ar
    20    20    21   ar
    21    21    22   ar
    22    22    23   ar
    23    13    23   ar
    24    18    23   ar
    25    11    24   ar
    26    24    25   ar
    27    25    26   ar
    28     9    26   ar
    29    26    27    1
    30     1    28    1
    31     2    29    1
    32     5    30    1
    33     5    31    1
    34     6    32    1
    35    12    33    1
    36    12    34    1
    37    15    35    1
    38    10    36    1
    39    19    37    1
    40    20    38    1
    41    21    39    1
    42    22    40    1
    43    24    41    1
    44    25    42    1
@<TRIPOS>MOLECULE
mol79_1_15
 42 44 0 0 0
SMALL
USER_CHARGES
****
VDW energy = -20.39
@<TRIPOS>ATOM
   1 N1       -1.6001   -11.4380    -6.2559  N.2     1  <O>11      -0.2986
   2 C1       -1.3355   -10.1106    -6.4246  C.2     1  <O>11       0.0685
   3 C2        0.0455    -9.6444    -6.4889  C.1     1  <O>11      -0.0535
   4 C3        1.4265    -9.1782    -6.5531  C.1     1  <O>11      -0.0771
   5 C4        2.8075    -8.7119    -6.6174  C.3     1  <O>11       0.0742
   6 N2        3.5130    -9.1100    -5.4020  N.am    1  <O>11      -0.3004
   7 C5        4.8310    -8.7810    -5.2370  C.2     1  <O>11       0.2476
   8 O1        5.4180    -8.1540    -6.1070  O.2     1  <O>11      -0.2701
   9 C6        5.5310    -9.1760    -4.0330  C.ar    1  <O>11       0.0721
  10 C7        4.8277    -9.8179    -3.0119  C.ar    1  <O>11      -0.0433
  11 C8        5.4963   -10.1911    -1.8410  C.ar    1  <O>11      -0.0406
  12 C9        4.7541   -10.8657    -0.7589  C.3     1  <O>11       0.0171
  13 C10       3.6564    -9.9806    -0.2849  C.ar    1  <O>11       0.0736
  14 N3        3.4742    -8.7223    -0.8703  N.ar    1  <O>11      -0.1750
  15 N4        2.5485    -7.8652    -0.3825  N.ar    1  <O>11      -0.2425
  16 C11       1.7926    -8.2447     0.6766  C.ar    1  <O>11       0.2725
  17 O2        0.9188    -7.2724     1.1975  O.2     1  <O>11      -0.2658
  18 C12       1.8420    -9.5236     1.2522  C.ar    1  <O>11       0.0496
  19 C13       1.0120    -9.9411     2.3179  C.ar    1  <O>11      -0.0487
  20 C14       1.1368   -11.2175     2.8660  C.ar    1  <O>11      -0.0610
  21 C15       2.0915   -12.0962     2.3700  C.ar    1  <O>11      -0.0611
  22 C16       2.9236   -11.6988     1.3220  C.ar    1  <O>11      -0.0521
  23 C17       2.8073   -10.4094     0.7478  C.ar    1  <O>11       0.0106
  24 C18       6.8609    -9.9273    -1.6949  C.ar    1  <O>11      -0.0555
  25 C19       7.5517    -9.2892    -2.7297  C.ar    1  <O>11      -0.0254
  26 C20       6.8952    -8.9146    -3.9019  C.ar    1  <O>11       0.1355
  27 F1        7.5773    -8.2944    -4.9189  F       1  <O>11      -0.2047
  28 H1       -0.8324   -12.1048    -6.1746  H       1  <O>11       0.1867
  29 H2       -2.1559    -9.3982    -6.5114  H       1  <O>11       0.0919
  30 H3        3.2999    -9.1528    -7.4842  H       1  <O>11       0.0599
  31 H4        2.8205    -7.6256    -6.7056  H       1  <O>11       0.0599
  32 H5        3.0230    -9.6340    -4.6770  H       1  <O>11       0.1499
  33 H6        5.4309   -11.0791     0.0699  H       1  <O>11       0.0377
  34 H7        4.3317   -11.7984    -1.1334  H       1  <O>11       0.0377
  35 H8        2.4234    -6.9551    -0.7983  H       1  <O>11       0.1921
  36 H9        3.8206   -10.0157    -3.1201  H       1  <O>11       0.0629
  37 H10       0.3039    -9.2923     2.6955  H       1  <O>11       0.0625
  38 H11       0.5198   -11.5091     3.6402  H       1  <O>11       0.0618
  39 H12       2.1854   -13.0407     2.7753  H       1  <O>11       0.0618
  40 H13       3.6339   -12.3543     0.9603  H       1  <O>11       0.0624
  41 H14       7.3544   -10.2009    -0.8309  H       1  <O>11       0.0621
  42 H15       8.5594    -9.0930    -2.6248  H       1  <O>11       0.0646
@<TRIPOS>BOND
     1     1     2    2
     2     2     3    1
     3     3     4    3
     4     4     5    1
     5     5     6    1
     6     6     7   am
     7     7     8    2
     8     7     9    1
     9     9    10   ar
    10    10    11   ar
    11    11    12    1
    12    12    13    1
    13    13    14   ar
    14    14    15   ar
    15    15    16   ar
    16    16    17    2
    17    16    18   ar
    18    18    19   ar
    19    19    20   ar
    20    20    21   ar
    21    21    22   ar
    22    22    23   ar
    23    13    23   ar
    24    18    23   ar
    25    11    24   ar
    26    24    25   ar
    27    25    26   ar
    28     9    26   ar
    29    26    27    1
    30     1    28    1
    31     2    29    1
    32     5    30    1
    33     5    31    1
    34     6    32    1
    35    12    33    1
    36    12    34    1
    37    15    35    1
    38    10    36    1
    39    19    37    1
    40    20    38    1
    41    21    39    1
    42    22    40    1
    43    24    41    1
    44    25    42    1
@<TRIPOS>MOLECULE
mol79_1_16
 42 44 0 0 0
SMALL
USER_CHARGES
****
VDW energy = -18.93
@<TRIPOS>ATOM
   1 N1       -1.6001   -11.4380    -6.2559  N.2     1  <O>11      -0.2986
   2 C1       -1.3355   -10.1106    -6.4246  C.2     1  <O>11       0.0685
   3 C2        0.0455    -9.6444    -6.4889  C.1     1  <O>11      -0.0535
   4 C3        1.4265    -9.1782    -6.5531  C.1     1  <O>11      -0.0771
   5 C4        2.8075    -8.7119    -6.6174  C.3     1  <O>11       0.0742
   6 N2        3.5130    -9.1100    -5.4020  N.am    1  <O>11      -0.3004
   7 C5        4.8310    -8.7810    -5.2370  C.2     1  <O>11       0.2476
   8 O1        5.4180    -8.1540    -6.1070  O.2     1  <O>11      -0.2701
   9 C6        5.5310    -9.1760    -4.0330  C.ar    1  <O>11       0.0721
  10 C7        4.8277    -9.8179    -3.0119  C.ar    1  <O>11      -0.0433
  11 C8        5.4963   -10.1911    -1.8410  C.ar    1  <O>11      -0.0406
  12 C9        4.7541   -10.8657    -0.7589  C.3     1  <O>11       0.0171
  13 C10       4.1794   -12.1386    -1.2715  C.ar    1  <O>11       0.0736
  14 N3        4.9212   -13.3224    -1.1853  N.ar    1  <O>11      -0.1750
  15 N4        4.4570   -14.4659    -1.7387  N.ar    1  <O>11      -0.2425
  16 C11       3.2583   -14.4525    -2.3711  C.ar    1  <O>11       0.2725
  17 O2        2.8784   -15.6474    -3.0099  O.2     1  <O>11      -0.2658
  18 C12       2.4094   -13.3357    -2.4105  C.ar    1  <O>11       0.0496
  19 C13       1.1325   -13.3370    -3.0176  C.ar    1  <O>11      -0.0487
  20 C14       0.3532   -12.1808    -3.0506  C.ar    1  <O>11      -0.0610
  21 C15       0.8319   -11.0042    -2.4881  C.ar    1  <O>11      -0.0611
  22 C16       2.0927   -10.9830    -1.8898  C.ar    1  <O>11      -0.0521
  23 C17       2.8958   -12.1486    -1.8404  C.ar    1  <O>11       0.0106
  24 C18       6.8609    -9.9273    -1.6949  C.ar    1  <O>11      -0.0555
  25 C19       7.5517    -9.2892    -2.7297  C.ar    1  <O>11      -0.0254
  26 C20       6.8952    -8.9146    -3.9019  C.ar    1  <O>11       0.1355
  27 F1        7.5773    -8.2944    -4.9189  F       1  <O>11      -0.2047
  28 H1       -0.8324   -12.1048    -6.1746  H       1  <O>11       0.1867
  29 H2       -2.1559    -9.3982    -6.5114  H       1  <O>11       0.0919
  30 H3        3.2999    -9.1528    -7.4842  H       1  <O>11       0.0599
  31 H4        2.8205    -7.6256    -6.7056  H       1  <O>11       0.0599
  32 H5        3.0230    -9.6340    -4.6770  H       1  <O>11       0.1499
  33 H6        3.9476   -10.2184    -0.4109  H       1  <O>11       0.0377
  34 H7        5.4310   -11.0807     0.0681  H       1  <O>11       0.0377
  35 H8        4.9955   -15.3168    -1.6847  H       1  <O>11       0.1921
  36 H9        3.8206   -10.0157    -3.1201  H       1  <O>11       0.0629
  37 H10       0.7720   -14.2057    -3.4423  H       1  <O>11       0.0625
  38 H11      -0.5790   -12.1994    -3.4928  H       1  <O>11       0.0618
  39 H12       0.2565   -10.1478    -2.5126  H       1  <O>11       0.0618
  40 H13       2.4451   -10.1051    -1.4773  H       1  <O>11       0.0624
  41 H14       7.3544   -10.2009    -0.8309  H       1  <O>11       0.0621
  42 H15       8.5594    -9.0930    -2.6248  H       1  <O>11       0.0646
@<TRIPOS>BOND
     1     1     2    2
     2     2     3    1
     3     3     4    3
     4     4     5    1
     5     5     6    1
     6     6     7   am
     7     7     8    2
     8     7     9    1
     9     9    10   ar
    10    10    11   ar
    11    11    12    1
    12    12    13    1
    13    13    14   ar
    14    14    15   ar
    15    15    16   ar
    16    16    17    2
    17    16    18   ar
    18    18    19   ar
    19    19    20   ar
    20    20    21   ar
    21    21    22   ar
    22    22    23   ar
    23    13    23   ar
    24    18    23   ar
    25    11    24   ar
    26    24    25   ar
    27    25    26   ar
    28     9    26   ar
    29    26    27    1
    30     1    28    1
    31     2    29    1
    32     5    30    1
    33     5    31    1
    34     6    32    1
    35    12    33    1
    36    12    34    1
    37    15    35    1
    38    10    36    1
    39    19    37    1
    40    20    38    1
    41    21    39    1
    42    22    40    1
    43    24    41    1
    44    25    42    1
@<TRIPOS>MOLECULE
mol79_1_17
 42 44 0 0 0
SMALL
USER_CHARGES
****
VDW energy = -17.63
@<TRIPOS>ATOM
   1 N1       -1.6001   -11.4380    -6.2559  N.2     1  <O>11      -0.2986
   2 C1       -1.3355   -10.1106    -6.4246  C.2     1  <O>11       0.0685
   3 C2        0.0455    -9.6444    -6.4889  C.1     1  <O>11      -0.0535
   4 C3        1.4265    -9.1782    -6.5531  C.1     1  <O>11      -0.0771
   5 C4        2.8075    -8.7119    -6.6174  C.3     1  <O>11       0.0742
   6 N2        3.5130    -9.1100    -5.4020  N.am    1  <O>11      -0.3004
   7 C5        4.8310    -8.7810    -5.2370  C.2     1  <O>11       0.2476
   8 O1        5.4180    -8.1540    -6.1070  O.2     1  <O>11      -0.2701
   9 C6        5.5310    -9.1760    -4.0330  C.ar    1  <O>11       0.0721
  10 C7        4.8277    -9.8179    -3.0119  C.ar    1  <O>11      -0.0433
  11 C8        5.4963   -10.1911    -1.8410  C.ar    1  <O>11      -0.0406
  12 C9        4.7541   -10.8657    -0.7589  C.3     1  <O>11       0.0171
  13 C10       5.6792   -11.1572     0.3690  C.ar    1  <O>11       0.0736
  14 N3        6.3733   -12.3721     0.4045  N.ar    1  <O>11      -0.1750
  15 N4        7.1374   -12.6959     1.4726  N.ar    1  <O>11      -0.2425
  16 C11       7.2292   -11.8234     2.5057  C.ar    1  <O>11       0.2725
  17 O2        7.9582   -12.2612     3.6269  O.2     1  <O>11      -0.2658
  18 C12       6.6499   -10.5452     2.5013  C.ar    1  <O>11       0.0496
  19 C13       6.7945    -9.6105     3.5522  C.ar    1  <O>11      -0.0487
  20 C14       6.1629    -8.3681     3.4985  C.ar    1  <O>11      -0.0610
  21 C15       5.3728    -8.0372     2.4049  C.ar    1  <O>11      -0.0611
  22 C16       5.2141    -8.9501     1.3610  C.ar    1  <O>11      -0.0521
  23 C17       5.8529   -10.2137     1.3942  C.ar    1  <O>11       0.0106
  24 C18       6.8609    -9.9273    -1.6949  C.ar    1  <O>11      -0.0555
  25 C19       7.5517    -9.2892    -2.7297  C.ar    1  <O>11      -0.0254
  26 C20       6.8952    -8.9146    -3.9019  C.ar    1  <O>11       0.1355
  27 F1        7.5773    -8.2944    -4.9189  F       1  <O>11      -0.2047
  28 H1       -0.8324   -12.1048    -6.1746  H       1  <O>11       0.1867
  29 H2       -2.1559    -9.3982    -6.5114  H       1  <O>11       0.0919
  30 H3        3.2999    -9.1528    -7.4842  H       1  <O>11       0.0599
  31 H4        2.8205    -7.6256    -6.7056  H       1  <O>11       0.0599
  32 H5        3.0230    -9.6340    -4.6770  H       1  <O>11       0.1499
  33 H6        4.3329   -11.8003    -1.1328  H       1  <O>11       0.0377
  34 H7        3.9497   -10.2179    -0.4100  H       1  <O>11       0.0377
  35 H8        7.6302   -13.5752     1.5024  H       1  <O>11       0.1921
  36 H9        3.8206   -10.0157    -3.1201  H       1  <O>11       0.0629
  37 H10       7.3755    -9.8509     4.3705  H       1  <O>11       0.0625
  38 H11       6.2827    -7.6947     4.2713  H       1  <O>11       0.0618
  39 H12       4.9044    -7.1185     2.3644  H       1  <O>11       0.0618
  40 H13       4.6225    -8.7006     0.5529  H       1  <O>11       0.0624
  41 H14       7.3544   -10.2009    -0.8309  H       1  <O>11       0.0621
  42 H15       8.5594    -9.0930    -2.6248  H       1  <O>11       0.0646
@<TRIPOS>BOND
     1     1     2    2
     2     2     3    1
     3     3     4    3
     4     4     5    1
     5     5     6    1
     6     6     7   am
     7     7     8    2
     8     7     9    1
     9     9    10   ar
    10    10    11   ar
    11    11    12    1
    12    12    13    1
    13    13    14   ar
    14    14    15   ar
    15    15    16   ar
    16    16    17    2
    17    16    18   ar
    18    18    19   ar
    19    19    20   ar
    20    20    21   ar
    21    21    22   ar
    22    22    23   ar
    23    13    23   ar
    24    18    23   ar
    25    11    24   ar
    26    24    25   ar
    27    25    26   ar
    28     9    26   ar
    29    26    27    1
    30     1    28    1
    31     2    29    1
    32     5    30    1
    33     5    31    1
    34     6    32    1
    35    12    33    1
    36    12    34    1
    37    15    35    1
    38    10    36    1
    39    19    37    1
    40    20    38    1
    41    21    39    1
    42    22    40    1
    43    24    41    1
    44    25    42    1
@<TRIPOS>MOLECULE
mol79_1_18
 42 44 0 0 0
SMALL
USER_CHARGES
****
VDW energy = -17.53
@<TRIPOS>ATOM
   1 N1       -1.6001   -11.4380    -6.2559  N.2     1  <O>11      -0.2986
   2 C1       -1.3355   -10.1106    -6.4246  C.2     1  <O>11       0.0685
   3 C2        0.0455    -9.6444    -6.4889  C.1     1  <O>11      -0.0535
   4 C3        1.4265    -9.1782    -6.5531  C.1     1  <O>11      -0.0771
   5 C4        2.8075    -8.7119    -6.6174  C.3     1  <O>11       0.0742
   6 N2        3.5130    -9.1100    -5.4020  N.am    1  <O>11      -0.3004
   7 C5        3.0734    -8.6739    -4.1817  C.2     1  <O>11       0.2476
   8 O1        2.0902    -7.9509    -4.1088  O.2     1  <O>11      -0.2701
   9 C6        3.7727    -9.0674    -2.9768  C.ar    1  <O>11       0.0721
  10 C7        4.8425    -9.9601    -3.0670  C.ar    1  <O>11      -0.0433
  11 C8        5.5144   -10.3534    -1.9046  C.ar    1  <O>11      -0.0406
  12 C9        6.6424   -11.2998    -1.9972  C.3     1  <O>11       0.0171
  13 C10       6.1689   -12.5776    -2.5940  C.ar    1  <O>11       0.0736
  14 N3        6.2086   -12.7552    -3.9818  N.ar    1  <O>11      -0.1750
  15 N4        5.6872   -13.8678    -4.5473  N.ar    1  <O>11      -0.2425
  16 C11       5.1329   -14.8138    -3.7506  C.ar    1  <O>11       0.2725
  17 O2        4.5209   -15.8984    -4.4058  O.2     1  <O>11      -0.2658
  18 C12       5.1468   -14.7590    -2.3484  C.ar    1  <O>11       0.0496
  19 C13       4.6228   -15.7734    -1.5145  C.ar    1  <O>11      -0.0487
  20 C14       4.6387   -15.6396    -0.1263  C.ar    1  <O>11      -0.0610
  21 C15       5.1682   -14.4944     0.4552  C.ar    1  <O>11      -0.0611
  22 C16       5.6845   -13.4802    -0.3529  C.ar    1  <O>11      -0.0521
  23 C17       5.6835   -13.6008    -1.7641  C.ar    1  <O>11       0.0106
  24 C18       5.1206    -9.8532    -0.6605  C.ar    1  <O>11      -0.0555
  25 C19       4.0511    -8.9553    -0.5884  C.ar    1  <O>11      -0.0254
  26 C20       3.3758    -8.5552    -1.7413  C.ar    1  <O>11       0.1355
  27 F1        2.3306    -7.6684    -1.6683  F       1  <O>11      -0.2047
  28 H1       -0.8324   -12.1048    -6.1746  H       1  <O>11       0.1867
  29 H2       -2.1559    -9.3982    -6.5114  H       1  <O>11       0.0919
  30 H3        3.2999    -9.1528    -7.4842  H       1  <O>11       0.0599
  31 H4        2.8205    -7.6256    -6.7056  H       1  <O>11       0.0599
  32 H5        4.3338    -9.7123    -5.4635  H       1  <O>11       0.1499
  33 H6        7.0408   -11.4916    -0.9997  H       1  <O>11       0.0377
  34 H7        7.4246   -10.8739    -2.6259  H       1  <O>11       0.0377
  35 H8        5.7075   -13.9916    -5.5478  H       1  <O>11       0.1921
  36 H9        5.1358   -10.3276    -3.9857  H       1  <O>11       0.0629
  37 H10       4.2229   -16.6248    -1.9389  H       1  <O>11       0.0625
  38 H11       4.2571   -16.3913     0.4689  H       1  <O>11       0.0618
  39 H12       5.1798   -14.3939     1.4822  H       1  <O>11       0.0618
  40 H13       6.0727   -12.6298     0.0843  H       1  <O>11       0.0624
  41 H14       5.6148   -10.1440     0.1976  H       1  <O>11       0.0621
  42 H15       3.7580    -8.5842     0.3289  H       1  <O>11       0.0646
@<TRIPOS>BOND
     1     1     2    2
     2     2     3    1
     3     3     4    3
     4     4     5    1
     5     5     6    1
     6     6     7   am
     7     7     8    2
     8     7     9    1
     9     9    10   ar
    10    10    11   ar
    11    11    12    1
    12    12    13    1
    13    13    14   ar
    14    14    15   ar
    15    15    16   ar
    16    16    17    2
    17    16    18   ar
    18    18    19   ar
    19    19    20   ar
    20    20    21   ar
    21    21    22   ar
    22    22    23   ar
    23    13    23   ar
    24    18    23   ar
    25    11    24   ar
    26    24    25   ar
    27    25    26   ar
    28     9    26   ar
    29    26    27    1
    30     1    28    1
    31     2    29    1
    32     5    30    1
    33     5    31    1
    34     6    32    1
    35    12    33    1
    36    12    34    1
    37    15    35    1
    38    10    36    1
    39    19    37    1
    40    20    38    1
    41    21    39    1
    42    22    40    1
    43    24    41    1
    44    25    42    1
@<TRIPOS>MOLECULE
mol79_1_19
 42 44 0 0 0
SMALL
USER_CHARGES
****
VDW energy = -16.97
@<TRIPOS>ATOM
   1 N1       -1.6001   -11.4380    -6.2559  N.2     1  <O>11      -0.2986
   2 C1       -1.3355   -10.1106    -6.4246  C.2     1  <O>11       0.0685
   3 C2        0.0455    -9.6444    -6.4889  C.1     1  <O>11      -0.0535
   4 C3        1.4265    -9.1782    -6.5531  C.1     1  <O>11      -0.0771
   5 C4        2.8075    -8.7119    -6.6174  C.3     1  <O>11       0.0742
   6 N2        3.5130    -9.1100    -5.4020  N.am    1  <O>11      -0.3004
   7 C5        3.0734    -8.6739    -4.1817  C.2     1  <O>11       0.2476
   8 O1        2.0902    -7.9509    -4.1088  O.2     1  <O>11      -0.2701
   9 C6        3.7727    -9.0674    -2.9768  C.ar    1  <O>11       0.0721
  10 C7        4.8425    -9.9601    -3.0670  C.ar    1  <O>11      -0.0433
  11 C8        5.5144   -10.3534    -1.9046  C.ar    1  <O>11      -0.0406
  12 C9        6.6424   -11.2998    -1.9972  C.3     1  <O>11       0.0171
  13 C10       7.9102   -10.5429    -2.1787  C.ar    1  <O>11       0.0736
  14 N3        8.6454   -10.1368    -1.0591  N.ar    1  <O>11      -0.1750
  15 N4        9.7436    -9.3603    -1.2030  N.ar    1  <O>11      -0.2425
  16 C11      10.1282    -8.9874    -2.4480  C.ar    1  <O>11       0.2725
  17 O2       11.2181    -8.1004    -2.5230  O.2     1  <O>11      -0.2658
  18 C12       9.5076    -9.4367    -3.6238  C.ar    1  <O>11       0.0496
  19 C13       9.9442    -9.0973    -4.9249  C.ar    1  <O>11      -0.0487
  20 C14       9.2600    -9.5518    -6.0520  C.ar    1  <O>11      -0.0610
  21 C15       8.1283   -10.3440    -5.9051  C.ar    1  <O>11      -0.0611
  22 C16       7.6795   -10.6841    -4.6279  C.ar    1  <O>11      -0.0521
  23 C17       8.3649   -10.2378    -3.4717  C.ar    1  <O>11       0.0106
  24 C18       5.1206    -9.8532    -0.6605  C.ar    1  <O>11      -0.0555
  25 C19       4.0511    -8.9553    -0.5884  C.ar    1  <O>11      -0.0254
  26 C20       3.3758    -8.5552    -1.7413  C.ar    1  <O>11       0.1355
  27 F1        2.3306    -7.6684    -1.6683  F       1  <O>11      -0.2047
  28 H1       -0.8324   -12.1048    -6.1746  H       1  <O>11       0.1867
  29 H2       -2.1559    -9.3982    -6.5114  H       1  <O>11       0.0919
  30 H3        3.2999    -9.1528    -7.4842  H       1  <O>11       0.0599
  31 H4        2.8205    -7.6256    -6.7056  H       1  <O>11       0.0599
  32 H5        4.3338    -9.7123    -5.4635  H       1  <O>11       0.1499
  33 H6        6.4922   -11.9645    -2.8494  H       1  <O>11       0.0377
  34 H7        6.6998   -11.8889    -1.0817  H       1  <O>11       0.0377
  35 H8       10.2681    -9.0600    -0.3959  H       1  <O>11       0.1921
  36 H9        5.1358   -10.3276    -3.9857  H       1  <O>11       0.0629
  37 H10      10.7810    -8.5048    -5.0424  H       1  <O>11       0.0625
  38 H11       9.5945    -9.2996    -6.9952  H       1  <O>11       0.0618
  39 H12       7.6207   -10.6803    -6.7384  H       1  <O>11       0.0618
  40 H13       6.8358   -11.2694    -4.5247  H       1  <O>11       0.0624
  41 H14       5.6148   -10.1440     0.1976  H       1  <O>11       0.0621
  42 H15       3.7580    -8.5842     0.3289  H       1  <O>11       0.0646
@<TRIPOS>BOND
     1     1     2    2
     2     2     3    1
     3     3     4    3
     4     4     5    1
     5     5     6    1
     6     6     7   am
     7     7     8    2
     8     7     9    1
     9     9    10   ar
    10    10    11   ar
    11    11    12    1
    12    12    13    1
    13    13    14   ar
    14    14    15   ar
    15    15    16   ar
    16    16    17    2
    17    16    18   ar
    18    18    19   ar
    19    19    20   ar
    20    20    21   ar
    21    21    22   ar
    22    22    23   ar
    23    13    23   ar
    24    18    23   ar
    25    11    24   ar
    26    24    25   ar
    27    25    26   ar
    28     9    26   ar
    29    26    27    1
    30     1    28    1
    31     2    29    1
    32     5    30    1
    33     5    31    1
    34     6    32    1
    35    12    33    1
    36    12    34    1
    37    15    35    1
    38    10    36    1
    39    19    37    1
    40    20    38    1
    41    21    39    1
    42    22    40    1
    43    24    41    1
    44    25    42    1
@<TRIPOS>MOLECULE
mol79_1_20
 42 44 0 0 0
SMALL
USER_CHARGES
****
VDW energy = -16.68
@<TRIPOS>ATOM
   1 N1       -1.6001   -11.4380    -6.2559  N.2     1  <O>11      -0.2986
   2 C1       -1.3355   -10.1106    -6.4246  C.2     1  <O>11       0.0685
   3 C2        0.0455    -9.6444    -6.4889  C.1     1  <O>11      -0.0535
   4 C3        1.4265    -9.1782    -6.5531  C.1     1  <O>11      -0.0771
   5 C4        2.8075    -8.7119    -6.6174  C.3     1  <O>11       0.0742
   6 N2        3.5130    -9.1100    -5.4020  N.am    1  <O>11      -0.3004
   7 C5        4.8310    -8.7810    -5.2370  C.2     1  <O>11       0.2476
   8 O1        5.4180    -8.1540    -6.1070  O.2     1  <O>11      -0.2701
   9 C6        5.5310    -9.1760    -4.0330  C.ar    1  <O>11       0.0721
  10 C7        4.8277    -9.8179    -3.0119  C.ar    1  <O>11      -0.0433
  11 C8        5.4963   -10.1911    -1.8410  C.ar    1  <O>11      -0.0406
  12 C9        4.7541   -10.8657    -0.7589  C.3     1  <O>11       0.0171
  13 C10       5.6336   -11.0048     0.4328  C.ar    1  <O>11       0.0736
  14 N3        5.6625    -9.9926     1.3991  N.ar    1  <O>11      -0.1750
  15 N4        6.5313   -10.0553     2.4339  N.ar    1  <O>11      -0.2425
  16 C11       7.3686   -11.1170     2.5278  C.ar    1  <O>11       0.2725
  17 O2        8.3136   -11.0739     3.5696  O.2     1  <O>11      -0.2658
  18 C12       7.3305   -12.2198     1.6607  C.ar    1  <O>11       0.0496
  19 C13       8.1622   -13.3555     1.7927  C.ar    1  <O>11      -0.0487
  20 C14       8.0957   -14.4033     0.8746  C.ar    1  <O>11      -0.0610
  21 C15       7.2083   -14.3369    -0.1921  C.ar    1  <O>11      -0.0611
  22 C16       6.3838   -13.2205    -0.3414  C.ar    1  <O>11      -0.0521
  23 C17       6.4320   -12.1498     0.5844  C.ar    1  <O>11       0.0106
  24 C18       6.8609    -9.9273    -1.6949  C.ar    1  <O>11      -0.0555
  25 C19       7.5517    -9.2892    -2.7297  C.ar    1  <O>11      -0.0254
  26 C20       6.8952    -8.9146    -3.9019  C.ar    1  <O>11       0.1355
  27 F1        7.5773    -8.2944    -4.9189  F       1  <O>11      -0.2047
  28 H1       -0.8324   -12.1048    -6.1746  H       1  <O>11       0.1867
  29 H2       -2.1559    -9.3982    -6.5114  H       1  <O>11       0.0919
  30 H3        3.2999    -9.1528    -7.4842  H       1  <O>11       0.0599
  31 H4        2.8205    -7.6256    -6.7056  H       1  <O>11       0.0599
  32 H5        3.0230    -9.6340    -4.6770  H       1  <O>11       0.1499
  33 H6        4.4392   -11.8552    -1.0942  H       1  <O>11       0.0377
  34 H7        3.8770   -10.2745    -0.4952  H       1  <O>11       0.0377
  35 H8        6.5586    -9.3216     3.1252  H       1  <O>11       0.1921
  36 H9        3.8206   -10.0157    -3.1201  H       1  <O>11       0.0629
  37 H10       8.8278   -13.4100     2.5794  H       1  <O>11       0.0625
  38 H11       8.7057   -15.2279     0.9878  H       1  <O>11       0.0618
  39 H12       7.1587   -15.1112    -0.8726  H       1  <O>11       0.0618
  40 H13       5.7294   -13.1747    -1.1382  H       1  <O>11       0.0624
  41 H14       7.3544   -10.2009    -0.8309  H       1  <O>11       0.0621
  42 H15       8.5594    -9.0930    -2.6248  H       1  <O>11       0.0646
@<TRIPOS>BOND
     1     1     2    2
     2     2     3    1
     3     3     4    3
     4     4     5    1
     5     5     6    1
     6     6     7   am
     7     7     8    2
     8     7     9    1
     9     9    10   ar
    10    10    11   ar
    11    11    12    1
    12    12    13    1
    13    13    14   ar
    14    14    15   ar
    15    15    16   ar
    16    16    17    2
    17    16    18   ar
    18    18    19   ar
    19    19    20   ar
    20    20    21   ar
    21    21    22   ar
    22    22    23   ar
    23    13    23   ar
    24    18    23   ar
    25    11    24   ar
    26    24    25   ar
    27    25    26   ar
    28     9    26   ar
    29    26    27    1
    30     1    28    1
    31     2    29    1
    32     5    30    1
    33     5    31    1
    34     6    32    1
    35    12    33    1
    36    12    34    1
    37    15    35    1
    38    10    36    1
    39    19    37    1
    40    20    38    1
    41    21    39    1
    42    22    40    1
    43    24    41    1
    44    25    42    1
@<TRIPOS>MOLECULE
mol79_1_21
 42 44 0 0 0
SMALL
USER_CHARGES
****
VDW energy = -15.85
@<TRIPOS>ATOM
   1 N1       -1.6001   -11.4380    -6.2559  N.2     1  <O>11      -0.2986
   2 C1       -1.3355   -10.1106    -6.4246  C.2     1  <O>11       0.0685
   3 C2        0.0455    -9.6444    -6.4889  C.1     1  <O>11      -0.0535
   4 C3        1.4265    -9.1782    -6.5531  C.1     1  <O>11      -0.0771
   5 C4        2.8075    -8.7119    -6.6174  C.3     1  <O>11       0.0742
   6 N2        3.5130    -9.1100    -5.4020  N.am    1  <O>11      -0.3004
   7 C5        4.8310    -8.7810    -5.2370  C.2     1  <O>11       0.2476
   8 O1        5.4180    -8.1540    -6.1070  O.2     1  <O>11      -0.2701
   9 C6        5.5310    -9.1760    -4.0330  C.ar    1  <O>11       0.0721
  10 C7        4.8277    -9.8179    -3.0119  C.ar    1  <O>11      -0.0433
  11 C8        5.4963   -10.1911    -1.8410  C.ar    1  <O>11      -0.0406
  12 C9        4.7541   -10.8657    -0.7589  C.3     1  <O>11       0.0171
  13 C10       3.6564    -9.9806    -0.2849  C.ar    1  <O>11       0.0736
  14 N3        3.8916    -9.0762     0.7571  N.ar    1  <O>11      -0.1750
  15 N4        2.8795    -8.3388     1.2684  N.ar    1  <O>11      -0.2425
  16 C11       1.6345    -8.4811     0.7519  C.ar    1  <O>11       0.2725
  17 O2        0.6093    -7.7604     1.3921  O.2     1  <O>11      -0.2658
  18 C12       1.3376    -9.2869    -0.3580  C.ar    1  <O>11       0.0496
  19 C13       0.0513    -9.3901    -0.9357  C.ar    1  <O>11      -0.0487
  20 C14      -0.1821   -10.2371    -2.0189  C.ar    1  <O>11      -0.0610
  21 C15       0.8553   -10.9996    -2.5407  C.ar    1  <O>11      -0.0611
  22 C16       2.1303   -10.9147    -1.9791  C.ar    1  <O>11      -0.0521
  23 C17       2.3884   -10.0553    -0.8833  C.ar    1  <O>11       0.0106
  24 C18       6.8609    -9.9273    -1.6949  C.ar    1  <O>11      -0.0555
  25 C19       7.5517    -9.2892    -2.7297  C.ar    1  <O>11      -0.0254
  26 C20       6.8952    -8.9146    -3.9019  C.ar    1  <O>11       0.1355
  27 F1        7.5773    -8.2944    -4.9189  F       1  <O>11      -0.2047
  28 H1       -0.8324   -12.1048    -6.1746  H       1  <O>11       0.1867
  29 H2       -2.1559    -9.3982    -6.5114  H       1  <O>11       0.0919
  30 H3        3.2999    -9.1528    -7.4842  H       1  <O>11       0.0599
  31 H4        2.8205    -7.6256    -6.7056  H       1  <O>11       0.0599
  32 H5        3.0230    -9.6340    -4.6770  H       1  <O>11       0.1499
  33 H6        5.4309   -11.0791     0.0699  H       1  <O>11       0.0377
  34 H7        4.3317   -11.7984    -1.1334  H       1  <O>11       0.0377
  35 H8        3.0470    -7.6939     2.0253  H       1  <O>11       0.1921
  36 H9        3.8206   -10.0157    -3.1201  H       1  <O>11       0.0629
  37 H10      -0.7258    -8.8310    -0.5505  H       1  <O>11       0.0625
  38 H11      -1.1255   -10.2973    -2.4328  H       1  <O>11       0.0618
  39 H12       0.6836   -11.6273    -3.3417  H       1  <O>11       0.0618
  40 H13       2.8963   -11.4866    -2.3681  H       1  <O>11       0.0624
  41 H14       7.3544   -10.2009    -0.8309  H       1  <O>11       0.0621
  42 H15       8.5594    -9.0930    -2.6248  H       1  <O>11       0.0646
@<TRIPOS>BOND
     1     1     2    2
     2     2     3    1
     3     3     4    3
     4     4     5    1
     5     5     6    1
     6     6     7   am
     7     7     8    2
     8     7     9    1
     9     9    10   ar
    10    10    11   ar
    11    11    12    1
    12    12    13    1
    13    13    14   ar
    14    14    15   ar
    15    15    16   ar
    16    16    17    2
    17    16    18   ar
    18    18    19   ar
    19    19    20   ar
    20    20    21   ar
    21    21    22   ar
    22    22    23   ar
    23    13    23   ar
    24    18    23   ar
    25    11    24   ar
    26    24    25   ar
    27    25    26   ar
    28     9    26   ar
    29    26    27    1
    30     1    28    1
    31     2    29    1
    32     5    30    1
    33     5    31    1
    34     6    32    1
    35    12    33    1
    36    12    34    1
    37    15    35    1
    38    10    36    1
    39    19    37    1
    40    20    38    1
    41    21    39    1
    42    22    40    1
    43    24    41    1
    44    25    42    1
@<TRIPOS>MOLECULE
mol79_1_22
 42 44 0 0 0
SMALL
USER_CHARGES
****
VDW energy = -15.56
@<TRIPOS>ATOM
   1 N1       -1.6001   -11.4380    -6.2559  N.2     1  <O>11      -0.2986
   2 C1       -1.3355   -10.1106    -6.4246  C.2     1  <O>11       0.0685
   3 C2        0.0455    -9.6444    -6.4889  C.1     1  <O>11      -0.0535
   4 C3        1.4265    -9.1782    -6.5531  C.1     1  <O>11      -0.0771
   5 C4        2.8075    -8.7119    -6.6174  C.3     1  <O>11       0.0742
   6 N2        3.5130    -9.1100    -5.4020  N.am    1  <O>11      -0.3004
   7 C5        3.0734    -8.6739    -4.1817  C.2     1  <O>11       0.2476
   8 O1        2.0902    -7.9509    -4.1088  O.2     1  <O>11      -0.2701
   9 C6        3.7727    -9.0674    -2.9768  C.ar    1  <O>11       0.0721
  10 C7        4.8425    -9.9601    -3.0670  C.ar    1  <O>11      -0.0433
  11 C8        5.5144   -10.3534    -1.9046  C.ar    1  <O>11      -0.0406
  12 C9        6.6424   -11.2998    -1.9972  C.3     1  <O>11       0.0171
  13 C10       6.1689   -12.5776    -2.5940  C.ar    1  <O>11       0.0736
  14 N3        4.8264   -12.7183    -2.9640  N.ar    1  <O>11      -0.1750
  15 N4        4.3578   -13.9057    -3.4113  N.ar    1  <O>11      -0.2425
  16 C11       5.2086   -14.9567    -3.5048  C.ar    1  <O>11       0.2725
  17 O2        4.6386   -16.1869    -3.8816  O.2     1  <O>11      -0.2658
  18 C12       6.5864   -14.8699    -3.2530  C.ar    1  <O>11       0.0496
  19 C13       7.4856   -15.9499    -3.4080  C.ar    1  <O>11      -0.0487
  20 C14       8.8398   -15.8040    -3.1076  C.ar    1  <O>11      -0.0610
  21 C15       9.3208   -14.5867    -2.6421  C.ar    1  <O>11      -0.0611
  22 C16       8.4462   -13.5114    -2.4774  C.ar    1  <O>11      -0.0521
  23 C17       7.0693   -13.6381    -2.7837  C.ar    1  <O>11       0.0106
  24 C18       5.1206    -9.8532    -0.6605  C.ar    1  <O>11      -0.0555
  25 C19       4.0511    -8.9553    -0.5884  C.ar    1  <O>11      -0.0254
  26 C20       3.3758    -8.5552    -1.7413  C.ar    1  <O>11       0.1355
  27 F1        2.3306    -7.6684    -1.6683  F       1  <O>11      -0.2047
  28 H1       -0.8324   -12.1048    -6.1746  H       1  <O>11       0.1867
  29 H2       -2.1559    -9.3982    -6.5114  H       1  <O>11       0.0919
  30 H3        3.2999    -9.1528    -7.4842  H       1  <O>11       0.0599
  31 H4        2.8205    -7.6256    -6.7056  H       1  <O>11       0.0599
  32 H5        4.3338    -9.7123    -5.4635  H       1  <O>11       0.1499
  33 H6        7.0408   -11.4916    -0.9997  H       1  <O>11       0.0377
  34 H7        7.4246   -10.8739    -2.6259  H       1  <O>11       0.0377
  35 H8        3.3885   -14.0097    -3.6692  H       1  <O>11       0.1921
  36 H9        5.1358   -10.3276    -3.9857  H       1  <O>11       0.0629
  37 H10       7.1351   -16.8589    -3.7482  H       1  <O>11       0.0625
  38 H11       9.4844   -16.6004    -3.2311  H       1  <O>11       0.0618
  39 H12      10.3224   -14.4777    -2.4187  H       1  <O>11       0.0618
  40 H13       8.8083   -12.6106    -2.1272  H       1  <O>11       0.0624
  41 H14       5.6148   -10.1440     0.1976  H       1  <O>11       0.0621
  42 H15       3.7580    -8.5842     0.3289  H       1  <O>11       0.0646
@<TRIPOS>BOND
     1     1     2    2
     2     2     3    1
     3     3     4    3
     4     4     5    1
     5     5     6    1
     6     6     7   am
     7     7     8    2
     8     7     9    1
     9     9    10   ar
    10    10    11   ar
    11    11    12    1
    12    12    13    1
    13    13    14   ar
    14    14    15   ar
    15    15    16   ar
    16    16    17    2
    17    16    18   ar
    18    18    19   ar
    19    19    20   ar
    20    20    21   ar
    21    21    22   ar
    22    22    23   ar
    23    13    23   ar
    24    18    23   ar
    25    11    24   ar
    26    24    25   ar
    27    25    26   ar
    28     9    26   ar
    29    26    27    1
    30     1    28    1
    31     2    29    1
    32     5    30    1
    33     5    31    1
    34     6    32    1
    35    12    33    1
    36    12    34    1
    37    15    35    1
    38    10    36    1
    39    19    37    1
    40    20    38    1
    41    21    39    1
    42    22    40    1
    43    24    41    1
    44    25    42    1
@<TRIPOS>MOLECULE
mol79_1_23
 42 44 0 0 0
SMALL
USER_CHARGES
****
VDW energy = -14.34
@<TRIPOS>ATOM
   1 N1       -1.6001   -11.4380    -6.2559  N.2     1  <O>11      -0.2986
   2 C1       -1.3355   -10.1106    -6.4246  C.2     1  <O>11       0.0685
   3 C2        0.0455    -9.6444    -6.4889  C.1     1  <O>11      -0.0535
   4 C3        1.4265    -9.1782    -6.5531  C.1     1  <O>11      -0.0771
   5 C4        2.8075    -8.7119    -6.6174  C.3     1  <O>11       0.0742
   6 N2        3.5130    -9.1100    -5.4020  N.am    1  <O>11      -0.3004
   7 C5        4.8310    -8.7810    -5.2370  C.2     1  <O>11       0.2476
   8 O1        5.4180    -8.1540    -6.1070  O.2     1  <O>11      -0.2701
   9 C6        5.5310    -9.1760    -4.0330  C.ar    1  <O>11       0.0721
  10 C7        6.1895   -10.4066    -3.9968  C.ar    1  <O>11      -0.0433
  11 C8        6.8575   -10.7990    -2.8318  C.ar    1  <O>11      -0.0406
  12 C9        7.5504   -12.1009    -2.7899  C.3     1  <O>11       0.0171
  13 C10       8.0322   -12.3611    -1.4067  C.ar    1  <O>11       0.0736
  14 N3        9.3999   -12.5373    -1.1671  N.ar    1  <O>11      -0.1750
  15 N4        9.8434   -12.8764     0.0649  N.ar    1  <O>11      -0.2425
  16 C11       8.9456   -13.0350     1.0678  C.ar    1  <O>11       0.2725
  17 O2        9.4602   -13.4836     2.2983  O.2     1  <O>11      -0.2658
  18 C12       7.5729   -12.7759     0.9343  C.ar    1  <O>11       0.0496
  19 C13       6.6437   -12.8824     1.9946  C.ar    1  <O>11      -0.0487
  20 C14       5.2859   -12.6427     1.7847  C.ar    1  <O>11      -0.0610
  21 C15       4.8285   -12.3007     0.5184  C.ar    1  <O>11      -0.0611
  22 C16       5.7309   -12.1967    -0.5414  C.ar    1  <O>11      -0.0521
  23 C17       7.1142   -12.4295    -0.3465  C.ar    1  <O>11       0.0106
  24 C18       6.8697    -9.9632    -1.7119  C.ar    1  <O>11      -0.0555
  25 C19       6.2105    -8.7313    -1.7669  C.ar    1  <O>11      -0.0254
  26 C20       5.5432    -8.3297    -2.9239  C.ar    1  <O>11       0.1355
  27 F1        4.9027    -7.1168    -2.9775  F       1  <O>11      -0.2047
  28 H1       -0.8324   -12.1048    -6.1746  H       1  <O>11       0.1867
  29 H2       -2.1559    -9.3982    -6.5114  H       1  <O>11       0.0919
  30 H3        3.2999    -9.1528    -7.4842  H       1  <O>11       0.0599
  31 H4        2.8205    -7.6256    -6.7056  H       1  <O>11       0.0599
  32 H5        3.0230    -9.6340    -4.6770  H       1  <O>11       0.1499
  33 H6        8.4013   -12.0836    -3.4727  H       1  <O>11       0.0377
  34 H7        6.8604   -12.8906    -3.0881  H       1  <O>11       0.0377
  35 H8       10.8279   -13.0125     0.2356  H       1  <O>11       0.1921
  36 H9        6.1834   -11.0232    -4.8244  H       1  <O>11       0.0629
  37 H10       6.9749   -13.1412     2.9372  H       1  <O>11       0.0625
  38 H11       4.6210   -12.7195     2.5702  H       1  <O>11       0.0618
  39 H12       3.8239   -12.1238     0.3617  H       1  <O>11       0.0618
  40 H13       5.3849   -11.9464    -1.4810  H       1  <O>11       0.0624
  41 H14       7.3610   -10.2526    -0.8517  H       1  <O>11       0.0621
  42 H15       6.2178    -8.1119    -0.9415  H       1  <O>11       0.0646
@<TRIPOS>BOND
     1     1     2    2
     2     2     3    1
     3     3     4    3
     4     4     5    1
     5     5     6    1
     6     6     7   am
     7     7     8    2
     8     7     9    1
     9     9    10   ar
    10    10    11   ar
    11    11    12    1
    12    12    13    1
    13    13    14   ar
    14    14    15   ar
    15    15    16   ar
    16    16    17    2
    17    16    18   ar
    18    18    19   ar
    19    19    20   ar
    20    20    21   ar
    21    21    22   ar
    22    22    23   ar
    23    13    23   ar
    24    18    23   ar
    25    11    24   ar
    26    24    25   ar
    27    25    26   ar
    28     9    26   ar
    29    26    27    1
    30     1    28    1
    31     2    29    1
    32     5    30    1
    33     5    31    1
    34     6    32    1
    35    12    33    1
    36    12    34    1
    37    15    35    1
    38    10    36    1
    39    19    37    1
    40    20    38    1
    41    21    39    1
    42    22    40    1
    43    24    41    1
    44    25    42    1
@<TRIPOS>MOLECULE
mol79_1_24
 42 44 0 0 0
SMALL
USER_CHARGES
****
VDW energy = -13.43
@<TRIPOS>ATOM
   1 N1       -1.6001   -11.4380    -6.2559  N.2     1  <O>11      -0.2986
   2 C1       -1.3355   -10.1106    -6.4246  C.2     1  <O>11       0.0685
   3 C2        0.0455    -9.6444    -6.4889  C.1     1  <O>11      -0.0535
   4 C3        1.4265    -9.1782    -6.5531  C.1     1  <O>11      -0.0771
   5 C4        2.8075    -8.7119    -6.6174  C.3     1  <O>11       0.0742
   6 N2        3.5130    -9.1100    -5.4020  N.am    1  <O>11      -0.3004
   7 C5        3.0734    -8.6739    -4.1817  C.2     1  <O>11       0.2476
   8 O1        2.0902    -7.9509    -4.1088  O.2     1  <O>11      -0.2701
   9 C6        3.7727    -9.0674    -2.9768  C.ar    1  <O>11       0.0721
  10 C7        4.8425    -9.9601    -3.0670  C.ar    1  <O>11      -0.0433
  11 C8        5.5144   -10.3534    -1.9046  C.ar    1  <O>11      -0.0406
  12 C9        6.6424   -11.2998    -1.9972  C.3     1  <O>11       0.0171
  13 C10       7.7091   -10.7164    -2.8546  C.ar    1  <O>11       0.0736
  14 N3        8.7159    -9.9336    -2.2780  N.ar    1  <O>11      -0.1750
  15 N4        9.6323    -9.3118    -3.0546  N.ar    1  <O>11      -0.2425
  16 C11       9.5680    -9.4642    -4.3998  C.ar    1  <O>11       0.2725
  17 O2       10.4876    -8.7136    -5.1556  O.2     1  <O>11      -0.2658
  18 C12       8.6560   -10.3125    -5.0463  C.ar    1  <O>11       0.0496
  19 C13       8.6264   -10.5193    -6.4446  C.ar    1  <O>11      -0.0487
  20 C14       7.6701   -11.3514    -7.0261  C.ar    1  <O>11      -0.0610
  21 C15       6.7245   -11.9854    -6.2300  C.ar    1  <O>11      -0.0611
  22 C16       6.7351   -11.7881    -4.8482  C.ar    1  <O>11      -0.0521
  23 C17       7.7025   -10.9523    -4.2387  C.ar    1  <O>11       0.0106
  24 C18       5.1206    -9.8532    -0.6605  C.ar    1  <O>11      -0.0555
  25 C19       4.0511    -8.9553    -0.5884  C.ar    1  <O>11      -0.0254
  26 C20       3.3758    -8.5552    -1.7413  C.ar    1  <O>11       0.1355
  27 F1        2.3306    -7.6684    -1.6683  F       1  <O>11      -0.2047
  28 H1       -0.8324   -12.1048    -6.1746  H       1  <O>11       0.1867
  29 H2       -2.1559    -9.3982    -6.5114  H       1  <O>11       0.0919
  30 H3        3.2999    -9.1528    -7.4842  H       1  <O>11       0.0599
  31 H4        2.8205    -7.6256    -6.7056  H       1  <O>11       0.0599
  32 H5        4.3338    -9.7123    -5.4635  H       1  <O>11       0.1499
  33 H6        6.2972   -12.2373    -2.4360  H       1  <O>11       0.0377
  34 H7        7.0415   -11.4895    -1.0006  H       1  <O>11       0.0377
  35 H8       10.3522    -8.7403    -2.6399  H       1  <O>11       0.1921
  36 H9        5.1358   -10.3276    -3.9857  H       1  <O>11       0.0629
  37 H10       9.3221   -10.0478    -7.0434  H       1  <O>11       0.0625
  38 H11       7.6650   -11.4963    -8.0479  H       1  <O>11       0.0618
  39 H12       6.0159   -12.6008    -6.6592  H       1  <O>11       0.0618
  40 H13       6.0276   -12.2582    -4.2621  H       1  <O>11       0.0624
  41 H14       5.6148   -10.1440     0.1976  H       1  <O>11       0.0621
  42 H15       3.7580    -8.5842     0.3289  H       1  <O>11       0.0646
@<TRIPOS>BOND
     1     1     2    2
     2     2     3    1
     3     3     4    3
     4     4     5    1
     5     5     6    1
     6     6     7   am
     7     7     8    2
     8     7     9    1
     9     9    10   ar
    10    10    11   ar
    11    11    12    1
    12    12    13    1
    13    13    14   ar
    14    14    15   ar
    15    15    16   ar
    16    16    17    2
    17    16    18   ar
    18    18    19   ar
    19    19    20   ar
    20    20    21   ar
    21    21    22   ar
    22    22    23   ar
    23    13    23   ar
    24    18    23   ar
    25    11    24   ar
    26    24    25   ar
    27    25    26   ar
    28     9    26   ar
    29    26    27    1
    30     1    28    1
    31     2    29    1
    32     5    30    1
    33     5    31    1
    34     6    32    1
    35    12    33    1
    36    12    34    1
    37    15    35    1
    38    10    36    1
    39    19    37    1
    40    20    38    1
    41    21    39    1
    42    22    40    1
    43    24    41    1
    44    25    42    1
@<TRIPOS>MOLECULE
mol79_1_25
 42 44 0 0 0
SMALL
USER_CHARGES
****
VDW energy = -13.34
@<TRIPOS>ATOM
   1 N1       -1.6001   -11.4380    -6.2559  N.2     1  <O>11      -0.2986
   2 C1       -1.3355   -10.1106    -6.4246  C.2     1  <O>11       0.0685
   3 C2        0.0455    -9.6444    -6.4889  C.1     1  <O>11      -0.0535
   4 C3        1.4265    -9.1782    -6.5531  C.1     1  <O>11      -0.0771
   5 C4        2.8075    -8.7119    -6.6174  C.3     1  <O>11       0.0742
   6 N2        3.5130    -9.1100    -5.4020  N.am    1  <O>11      -0.3004
   7 C5        3.6262   -10.4350    -5.0795  C.2     1  <O>11       0.2476
   8 O1        3.1367   -11.2856    -5.8085  O.2     1  <O>11      -0.2701
   9 C6        4.3246   -10.8302    -3.8746  C.ar    1  <O>11       0.0721
  10 C7        4.9506    -9.8552    -3.0954  C.ar    1  <O>11      -0.0433
  11 C8        5.6372   -10.2326    -1.9364  C.ar    1  <O>11      -0.0406
  12 C9        6.3029    -9.2044    -1.1138  C.3     1  <O>11       0.0171
  13 C10       5.2928    -8.2228    -0.6352  C.ar    1  <O>11       0.0736
  14 N3        4.6345    -8.4376     0.5811  N.ar    1  <O>11      -0.1750
  15 N4        3.6412    -7.6107     0.9802  N.ar    1  <O>11      -0.2425
  16 C11       3.2973    -6.5648     0.1898  C.ar    1  <O>11       0.2725
  17 O2        2.1929    -5.8021     0.6128  O.2     1  <O>11      -0.2658
  18 C12       3.9759    -6.2219    -0.9898  C.ar    1  <O>11       0.0496
  19 C13       3.6571    -5.0965    -1.7839  C.ar    1  <O>11      -0.0487
  20 C14       4.3513    -4.8323    -2.9644  C.ar    1  <O>11      -0.0610
  21 C15       5.3673    -5.6845    -3.3783  C.ar    1  <O>11      -0.0611
  22 C16       5.6914    -6.8037    -2.6098  C.ar    1  <O>11      -0.0521
  23 C17       5.0026    -7.0848    -1.4047  C.ar    1  <O>11       0.0106
  24 C18       5.6935   -11.5766    -1.5576  C.ar    1  <O>11      -0.0555
  25 C19       5.0561   -12.5397    -2.3458  C.ar    1  <O>11      -0.0254
  26 C20       4.3672   -12.1740    -3.5021  C.ar    1  <O>11       0.1355
  27 F1        3.7365   -13.1207    -4.2703  F       1  <O>11      -0.2047
  28 H1       -0.8324   -12.1048    -6.1746  H       1  <O>11       0.1867
  29 H2       -2.1559    -9.3982    -6.5114  H       1  <O>11       0.0919
  30 H3        3.2999    -9.1528    -7.4842  H       1  <O>11       0.0599
  31 H4        2.8205    -7.6256    -6.7056  H       1  <O>11       0.0599
  32 H5        3.9203    -8.3999    -4.7936  H       1  <O>11       0.1499
  33 H6        7.0545    -8.6879    -1.7130  H       1  <O>11       0.0377
  34 H7        6.7828    -9.6778    -0.2570  H       1  <O>11       0.0377
  35 H8        3.1606    -7.7707     1.8521  H       1  <O>11       0.1921
  36 H9        4.9070    -8.8622    -3.3729  H       1  <O>11       0.0629
  37 H10       2.9002    -4.4615    -1.4859  H       1  <O>11       0.0625
  38 H11       4.1102    -4.0037    -3.5303  H       1  <O>11       0.0618
  39 H12       5.8811    -5.4906    -4.2521  H       1  <O>11       0.0618
  40 H13       6.4443    -7.4357    -2.9243  H       1  <O>11       0.0624
  41 H14       6.2012   -11.8559    -0.7035  H       1  <O>11       0.0621
  42 H15       5.0958   -13.5330    -2.0686  H       1  <O>11       0.0646
@<TRIPOS>BOND
     1     1     2    2
     2     2     3    1
     3     3     4    3
     4     4     5    1
     5     5     6    1
     6     6     7   am
     7     7     8    2
     8     7     9    1
     9     9    10   ar
    10    10    11   ar
    11    11    12    1
    12    12    13    1
    13    13    14   ar
    14    14    15   ar
    15    15    16   ar
    16    16    17    2
    17    16    18   ar
    18    18    19   ar
    19    19    20   ar
    20    20    21   ar
    21    21    22   ar
    22    22    23   ar
    23    13    23   ar
    24    18    23   ar
    25    11    24   ar
    26    24    25   ar
    27    25    26   ar
    28     9    26   ar
    29    26    27    1
    30     1    28    1
    31     2    29    1
    32     5    30    1
    33     5    31    1
    34     6    32    1
    35    12    33    1
    36    12    34    1
    37    15    35    1
    38    10    36    1
    39    19    37    1
    40    20    38    1
    41    21    39    1
    42    22    40    1
    43    24    41    1
    44    25    42    1
@<TRIPOS>MOLECULE
mol79_1_26
 42 44 0 0 0
SMALL
USER_CHARGES
****
VDW energy = -11.84
@<TRIPOS>ATOM
   1 N1       -1.6001   -11.4380    -6.2559  N.2     1  <O>11      -0.2986
   2 C1       -1.3355   -10.1106    -6.4246  C.2     1  <O>11       0.0685
   3 C2        0.0455    -9.6444    -6.4889  C.1     1  <O>11      -0.0535
   4 C3        1.4265    -9.1782    -6.5531  C.1     1  <O>11      -0.0771
   5 C4        2.8075    -8.7119    -6.6174  C.3     1  <O>11       0.0742
   6 N2        3.5130    -9.1100    -5.4020  N.am    1  <O>11      -0.3004
   7 C5        3.0734    -8.6739    -4.1817  C.2     1  <O>11       0.2476
   8 O1        2.0902    -7.9509    -4.1088  O.2     1  <O>11      -0.2701
   9 C6        3.7727    -9.0674    -2.9768  C.ar    1  <O>11       0.0721
  10 C7        4.8425    -9.9601    -3.0670  C.ar    1  <O>11      -0.0433
  11 C8        5.5144   -10.3534    -1.9046  C.ar    1  <O>11      -0.0406
  12 C9        6.6424   -11.2998    -1.9972  C.3     1  <O>11       0.0171
  13 C10       7.0752   -11.6897    -0.6284  C.ar    1  <O>11       0.0736
  14 N3        6.4965   -12.8012    -0.0049  N.ar    1  <O>11      -0.1750
  15 N4        6.8033   -13.1074     1.2763  N.ar    1  <O>11      -0.2425
  16 C11       7.6864   -12.3278     1.9467  C.ar    1  <O>11       0.2725
  17 O2        7.8872   -12.6406     3.3039  O.2     1  <O>11      -0.2658
  18 C12       8.3861   -11.2612     1.3619  C.ar    1  <O>11       0.0496
  19 C13       9.3521   -10.4847     2.0423  C.ar    1  <O>11      -0.0487
  20 C14       9.9869    -9.4156     1.4105  C.ar    1  <O>11      -0.0610
  21 C15       9.6679    -9.0963     0.0967  C.ar    1  <O>11      -0.0611
  22 C16       8.7123    -9.8484    -0.5885  C.ar    1  <O>11      -0.0521
  23 C17       8.0620   -10.9419     0.0339  C.ar    1  <O>11       0.0106
  24 C18       5.1206    -9.8532    -0.6605  C.ar    1  <O>11      -0.0555
  25 C19       4.0511    -8.9553    -0.5884  C.ar    1  <O>11      -0.0254
  26 C20       3.3758    -8.5552    -1.7413  C.ar    1  <O>11       0.1355
  27 F1        2.3306    -7.6684    -1.6683  F       1  <O>11      -0.2047
  28 H1       -0.8324   -12.1048    -6.1746  H       1  <O>11       0.1867
  29 H2       -2.1559    -9.3982    -6.5114  H       1  <O>11       0.0919
  30 H3        3.2999    -9.1528    -7.4842  H       1  <O>11       0.0599
  31 H4        2.8205    -7.6256    -6.7056  H       1  <O>11       0.0599
  32 H5        4.3338    -9.7123    -5.4635  H       1  <O>11       0.1499
  33 H6        7.4750   -10.8254    -2.5191  H       1  <O>11       0.0377
  34 H7        6.3283   -12.1884    -2.5451  H       1  <O>11       0.0377
  35 H8        6.3794   -13.9028     1.7287  H       1  <O>11       0.1921
  36 H9        5.1358   -10.3276    -3.9857  H       1  <O>11       0.0629
  37 H10       9.5908   -10.7122     3.0202  H       1  <O>11       0.0625
  38 H11      10.6937    -8.8617     1.9190  H       1  <O>11       0.0618
  39 H12      10.1364    -8.3049    -0.3717  H       1  <O>11       0.0618
  40 H13       8.4761    -9.6041    -1.5630  H       1  <O>11       0.0624
  41 H14       5.6148   -10.1440     0.1976  H       1  <O>11       0.0621
  42 H15       3.7580    -8.5842     0.3289  H       1  <O>11       0.0646
@<TRIPOS>BOND
     1     1     2    2
     2     2     3    1
     3     3     4    3
     4     4     5    1
     5     5     6    1
     6     6     7   am
     7     7     8    2
     8     7     9    1
     9     9    10   ar
    10    10    11   ar
    11    11    12    1
    12    12    13    1
    13    13    14   ar
    14    14    15   ar
    15    15    16   ar
    16    16    17    2
    17    16    18   ar
    18    18    19   ar
    19    19    20   ar
    20    20    21   ar
    21    21    22   ar
    22    22    23   ar
    23    13    23   ar
    24    18    23   ar
    25    11    24   ar
    26    24    25   ar
    27    25    26   ar
    28     9    26   ar
    29    26    27    1
    30     1    28    1
    31     2    29    1
    32     5    30    1
    33     5    31    1
    34     6    32    1
    35    12    33    1
    36    12    34    1
    37    15    35    1
    38    10    36    1
    39    19    37    1
    40    20    38    1
    41    21    39    1
    42    22    40    1
    43    24    41    1
    44    25    42    1
@<TRIPOS>MOLECULE
mol79_1_27
 42 44 0 0 0
SMALL
USER_CHARGES
****
VDW energy = -9.40
@<TRIPOS>ATOM
   1 N1       -1.6001   -11.4380    -6.2559  N.2     1  <O>11      -0.2986
   2 C1       -1.3355   -10.1106    -6.4246  C.2     1  <O>11       0.0685
   3 C2        0.0455    -9.6444    -6.4889  C.1     1  <O>11      -0.0535
   4 C3        1.4265    -9.1782    -6.5531  C.1     1  <O>11      -0.0771
   5 C4        2.8075    -8.7119    -6.6174  C.3     1  <O>11       0.0742
   6 N2        3.5130    -9.1100    -5.4020  N.am    1  <O>11      -0.3004
   7 C5        3.0734    -8.6739    -4.1817  C.2     1  <O>11       0.2476
   8 O1        2.0902    -7.9509    -4.1088  O.2     1  <O>11      -0.2701
   9 C6        3.7727    -9.0674    -2.9768  C.ar    1  <O>11       0.0721
  10 C7        4.8167    -8.2720    -2.5007  C.ar    1  <O>11      -0.0433
  11 C8        5.5041    -8.6536    -1.3435  C.ar    1  <O>11      -0.0406
  12 C9        6.6103    -7.8167    -0.8410  C.3     1  <O>11       0.0171
  13 C10       7.2845    -8.5127     0.2878  C.ar    1  <O>11       0.0736
  14 N3        7.3286    -7.9107     1.5507  N.ar    1  <O>11      -0.1750
  15 N4        8.0254    -8.4813     2.5598  N.ar    1  <O>11      -0.2425
  16 C11       8.6740    -9.6498     2.3343  C.ar    1  <O>11       0.2725
  17 O2        9.4602   -10.1396     3.3936  O.2     1  <O>11      -0.2658
  18 C12       8.5936   -10.3672     1.1308  C.ar    1  <O>11       0.0496
  19 C13       9.2203   -11.6158     0.9139  C.ar    1  <O>11      -0.0487
  20 C14       9.1274   -12.2599    -0.3197  C.ar    1  <O>11      -0.0610
  21 C15       8.4173   -11.6716    -1.3587  C.ar    1  <O>11      -0.0611
  22 C16       7.7971   -10.4363    -1.1642  C.ar    1  <O>11      -0.0521
  23 C17       7.8745    -9.7703     0.0833  C.ar    1  <O>11       0.0106
  24 C18       5.1460    -9.8218    -0.6650  C.ar    1  <O>11      -0.0555
  25 C19       4.0941   -10.6039    -1.1518  C.ar    1  <O>11      -0.0254
  26 C20       3.4010   -10.2314    -2.3034  C.ar    1  <O>11       0.1355
  27 F1        2.3643   -10.9975    -2.7752  F       1  <O>11      -0.2047
  28 H1       -0.8324   -12.1048    -6.1746  H       1  <O>11       0.1867
  29 H2       -2.1559    -9.3982    -6.5114  H       1  <O>11       0.0919
  30 H3        3.2999    -9.1528    -7.4842  H       1  <O>11       0.0599
  31 H4        2.8205    -7.6256    -6.7056  H       1  <O>11       0.0599
  32 H5        4.3338    -9.7123    -5.4635  H       1  <O>11       0.1499
  33 H6        6.2159    -6.8606    -0.4933  H       1  <O>11       0.0377
  34 H7        7.3295    -7.6442    -1.6419  H       1  <O>11       0.0377
  35 H8        8.0649    -8.0430     3.4671  H       1  <O>11       0.1921
  36 H9        5.0798    -7.4076    -2.9995  H       1  <O>11       0.0629
  37 H10       9.7541   -12.0569     1.6791  H       1  <O>11       0.0625
  38 H11       9.5861   -13.1735    -0.4606  H       1  <O>11       0.0618
  39 H12       8.3485   -12.1468    -2.2722  H       1  <O>11       0.0618
  40 H13       7.2745   -10.0020    -1.9409  H       1  <O>11       0.0624
  41 H14       5.6536   -10.1048     0.1878  H       1  <O>11       0.0621
  42 H15       3.8274   -11.4670    -0.6529  H       1  <O>11       0.0646
@<TRIPOS>BOND
     1     1     2    2
     2     2     3    1
     3     3     4    3
     4     4     5    1
     5     5     6    1
     6     6     7   am
     7     7     8    2
     8     7     9    1
     9     9    10   ar
    10    10    11   ar
    11    11    12    1
    12    12    13    1
    13    13    14   ar
    14    14    15   ar
    15    15    16   ar
    16    16    17    2
    17    16    18   ar
    18    18    19   ar
    19    19    20   ar
    20    20    21   ar
    21    21    22   ar
    22    22    23   ar
    23    13    23   ar
    24    18    23   ar
    25    11    24   ar
    26    24    25   ar
    27    25    26   ar
    28     9    26   ar
    29    26    27    1
    30     1    28    1
    31     2    29    1
    32     5    30    1
    33     5    31    1
    34     6    32    1
    35    12    33    1
    36    12    34    1
    37    15    35    1
    38    10    36    1
    39    19    37    1
    40    20    38    1
    41    21    39    1
    42    22    40    1
    43    24    41    1
    44    25    42    1
@<TRIPOS>MOLECULE
mol79_1_28
 42 44 0 0 0
SMALL
USER_CHARGES
****
VDW energy = -3.63
@<TRIPOS>ATOM
   1 N1       -1.6001   -11.4380    -6.2559  N.2     1  <O>11      -0.2986
   2 C1       -1.3355   -10.1106    -6.4246  C.2     1  <O>11       0.0685
   3 C2        0.0455    -9.6444    -6.4889  C.1     1  <O>11      -0.0535
   4 C3        1.4265    -9.1782    -6.5531  C.1     1  <O>11      -0.0771
   5 C4        2.8075    -8.7119    -6.6174  C.3     1  <O>11       0.0742
   6 N2        3.5130    -9.1100    -5.4020  N.am    1  <O>11      -0.3004
   7 C5        4.8310    -8.7810    -5.2370  C.2     1  <O>11       0.2476
   8 O1        5.4180    -8.1540    -6.1070  O.2     1  <O>11      -0.2701
   9 C6        5.5310    -9.1760    -4.0330  C.ar    1  <O>11       0.0721
  10 C7        4.8277    -9.8179    -3.0119  C.ar    1  <O>11      -0.0433
  11 C8        5.4963   -10.1911    -1.8410  C.ar    1  <O>11      -0.0406
  12 C9        4.7541   -10.8657    -0.7589  C.3     1  <O>11       0.0171
  13 C10       5.6336   -11.0048     0.4328  C.ar    1  <O>11       0.0736
  14 N3        5.9265   -12.2769     0.9378  N.ar    1  <O>11      -0.1750
  15 N4        6.6386   -12.4157     2.0793  N.ar    1  <O>11      -0.2425
  16 C11       7.0728   -11.3054     2.7241  C.ar    1  <O>11       0.2725
  17 O2        7.7212   -11.5145     3.9554  O.2     1  <O>11      -0.2658
  18 C12       6.9106   -10.0022     2.2293  C.ar    1  <O>11       0.0496
  19 C13       7.4154    -8.8473     2.8699  C.ar    1  <O>11      -0.0487
  20 C14       7.1888    -7.5770     2.3403  C.ar    1  <O>11      -0.0610
  21 C15       6.4521    -7.4330     1.1714  C.ar    1  <O>11      -0.0611
  22 C16       5.9412    -8.5618     0.5288  C.ar    1  <O>11      -0.0521
  23 C17       6.1666    -9.8604     1.0474  C.ar    1  <O>11       0.0106
  24 C18       6.8609    -9.9273    -1.6949  C.ar    1  <O>11      -0.0555
  25 C19       7.5517    -9.2892    -2.7297  C.ar    1  <O>11      -0.0254
  26 C20       6.8952    -8.9146    -3.9019  C.ar    1  <O>11       0.1355
  27 F1        7.5773    -8.2944    -4.9189  F       1  <O>11      -0.2047
  28 H1       -0.8324   -12.1048    -6.1746  H       1  <O>11       0.1867
  29 H2       -2.1559    -9.3982    -6.5114  H       1  <O>11       0.0919
  30 H3        3.2999    -9.1528    -7.4842  H       1  <O>11       0.0599
  31 H4        2.8205    -7.6256    -6.7056  H       1  <O>11       0.0599
  32 H5        3.0230    -9.6340    -4.6770  H       1  <O>11       0.1499
  33 H6        4.4392   -11.8552    -1.0942  H       1  <O>11       0.0377
  34 H7        3.8770   -10.2745    -0.4952  H       1  <O>11       0.0377
  35 H8        6.8418   -13.3319     2.4483  H       1  <O>11       0.1921
  36 H9        3.8206   -10.0157    -3.1201  H       1  <O>11       0.0629
  37 H10       7.9590    -8.9455     3.7415  H       1  <O>11       0.0625
  38 H11       7.5684    -6.7442     2.8170  H       1  <O>11       0.0618
  39 H12       6.2831    -6.4936     0.7790  H       1  <O>11       0.0618
  40 H13       5.3910    -8.4486    -0.3370  H       1  <O>11       0.0624
  41 H14       7.3544   -10.2009    -0.8309  H       1  <O>11       0.0621
  42 H15       8.5594    -9.0930    -2.6248  H       1  <O>11       0.0646
@<TRIPOS>BOND
     1     1     2    2
     2     2     3    1
     3     3     4    3
     4     4     5    1
     5     5     6    1
     6     6     7   am
     7     7     8    2
     8     7     9    1
     9     9    10   ar
    10    10    11   ar
    11    11    12    1
    12    12    13    1
    13    13    14   ar
    14    14    15   ar
    15    15    16   ar
    16    16    17    2
    17    16    18   ar
    18    18    19   ar
    19    19    20   ar
    20    20    21   ar
    21    21    22   ar
    22    22    23   ar
    23    13    23   ar
    24    18    23   ar
    25    11    24   ar
    26    24    25   ar
    27    25    26   ar
    28     9    26   ar
    29    26    27    1
    30     1    28    1
    31     2    29    1
    32     5    30    1
    33     5    31    1
    34     6    32    1
    35    12    33    1
    36    12    34    1
    37    15    35    1
    38    10    36    1
    39    19    37    1
    40    20    38    1
    41    21    39    1
    42    22    40    1
    43    24    41    1
    44    25    42    1
@<TRIPOS>MOLECULE
mol79_1_29
 42 44 0 0 0
SMALL
USER_CHARGES
****
VDW energy = -0.92
@<TRIPOS>ATOM
   1 N1       -1.6001   -11.4380    -6.2559  N.2     1  <O>11      -0.2986
   2 C1       -1.3355   -10.1106    -6.4246  C.2     1  <O>11       0.0685
   3 C2        0.0455    -9.6444    -6.4889  C.1     1  <O>11      -0.0535
   4 C3        1.4265    -9.1782    -6.5531  C.1     1  <O>11      -0.0771
   5 C4        2.8075    -8.7119    -6.6174  C.3     1  <O>11       0.0742
   6 N2        3.5130    -9.1100    -5.4020  N.am    1  <O>11      -0.3004
   7 C5        3.6262   -10.4350    -5.0795  C.2     1  <O>11       0.2476
   8 O1        4.2175   -10.7682    -4.0626  O.2     1  <O>11      -0.2701
   9 C6        3.0470   -11.4427    -5.9424  C.ar    1  <O>11       0.0721
  10 C7        3.8153   -11.9825    -6.9757  C.ar    1  <O>11      -0.0433
  11 C8        3.2570   -12.9480    -7.8204  C.ar    1  <O>11      -0.0406
  12 C9        4.0657   -13.5166    -8.9156  C.3     1  <O>11       0.0171
  13 C10       3.2071   -14.3840    -9.7662  C.ar    1  <O>11       0.0736
  14 N3        2.5312   -13.8350   -10.8621  N.ar    1  <O>11      -0.1750
  15 N4        1.6671   -14.5856   -11.5827  N.ar    1  <O>11      -0.2425
  16 C11       1.4706   -15.8807   -11.2346  C.ar    1  <O>11       0.2725
  17 O2        0.4874   -16.5779   -11.9610  O.2     1  <O>11      -0.2658
  18 C12       2.1848   -16.5322   -10.2173  C.ar    1  <O>11       0.0496
  19 C13       2.0245   -17.8988    -9.8925  C.ar    1  <O>11      -0.0487
  20 C14       2.7430   -18.4759    -8.8457  C.ar    1  <O>11      -0.0610
  21 C15       3.6260   -17.7042    -8.1009  C.ar    1  <O>11      -0.0611
  22 C16       3.7924   -16.3519    -8.4037  C.ar    1  <O>11      -0.0521
  23 C17       3.0769   -15.7497    -9.4673  C.ar    1  <O>11       0.0106
  24 C18       1.9395   -13.3732    -7.6294  C.ar    1  <O>11      -0.0555
  25 C19       1.1858   -12.8270    -6.5860  C.ar    1  <O>11      -0.0254
  26 C20       1.7334   -11.8654    -5.7370  C.ar    1  <O>11       0.1355
  27 F1        0.9935   -11.3358    -4.7093  F       1  <O>11      -0.2047
  28 H1       -0.8324   -12.1048    -6.1746  H       1  <O>11       0.1867
  29 H2       -2.1559    -9.3982    -6.5114  H       1  <O>11       0.0919
  30 H3        3.2999    -9.1528    -7.4842  H       1  <O>11       0.0599
  31 H4        2.8205    -7.6256    -6.7056  H       1  <O>11       0.0599
  32 H5        3.9203    -8.3999    -4.7936  H       1  <O>11       0.1499
  33 H6        4.8796   -14.1110    -8.4976  H       1  <O>11       0.0377
  34 H7        4.4781   -12.7093    -9.5210  H       1  <O>11       0.0377
  35 H8        1.1731   -14.1877   -12.3666  H       1  <O>11       0.1921
  36 H9        4.7892   -11.6711    -7.1156  H       1  <O>11       0.0629
  37 H10       1.3665   -18.4775   -10.4376  H       1  <O>11       0.0625
  38 H11       2.6187   -19.4762    -8.6244  H       1  <O>11       0.0618
  39 H12       4.1576   -18.1299    -7.3255  H       1  <O>11       0.0618
  40 H13       4.4466   -15.7824    -7.8444  H       1  <O>11       0.0624
  41 H14       1.5264   -14.0842    -8.2531  H       1  <O>11       0.0621
  42 H15       0.2126   -13.1390    -6.4425  H       1  <O>11       0.0646
@<TRIPOS>BOND
     1     1     2    2
     2     2     3    1
     3     3     4    3
     4     4     5    1
     5     5     6    1
     6     6     7   am
     7     7     8    2
     8     7     9    1
     9     9    10   ar
    10    10    11   ar
    11    11    12    1
    12    12    13    1
    13    13    14   ar
    14    14    15   ar
    15    15    16   ar
    16    16    17    2
    17    16    18   ar
    18    18    19   ar
    19    19    20   ar
    20    20    21   ar
    21    21    22   ar
    22    22    23   ar
    23    13    23   ar
    24    18    23   ar
    25    11    24   ar
    26    24    25   ar
    27    25    26   ar
    28     9    26   ar
    29    26    27    1
    30     1    28    1
    31     2    29    1
    32     5    30    1
    33     5    31    1
    34     6    32    1
    35    12    33    1
    36    12    34    1
    37    15    35    1
    38    10    36    1
    39    19    37    1
    40    20    38    1
    41    21    39    1
    42    22    40    1
    43    24    41    1
    44    25    42    1
@<TRIPOS>MOLECULE
mol79_1_30
 42 44 0 0 0
SMALL
USER_CHARGES
****
VDW energy = 9.43
@<TRIPOS>ATOM
   1 N1       -1.6001   -11.4380    -6.2559  N.2     1  <O>11      -0.2986
   2 C1       -1.3355   -10.1106    -6.4246  C.2     1  <O>11       0.0685
   3 C2        0.0455    -9.6444    -6.4889  C.1     1  <O>11      -0.0535
   4 C3        1.4265    -9.1782    -6.5531  C.1     1  <O>11      -0.0771
   5 C4        2.8075    -8.7119    -6.6174  C.3     1  <O>11       0.0742
   6 N2        3.5130    -9.1100    -5.4020  N.am    1  <O>11      -0.3004
   7 C5        4.8310    -8.7810    -5.2370  C.2     1  <O>11       0.2476
   8 O1        5.4180    -8.1540    -6.1070  O.2     1  <O>11      -0.2701
   9 C6        5.5310    -9.1760    -4.0330  C.ar    1  <O>11       0.0721
  10 C7        4.8277    -9.8179    -3.0119  C.ar    1  <O>11      -0.0433
  11 C8        5.4963   -10.1911    -1.8410  C.ar    1  <O>11      -0.0406
  12 C9        4.7541   -10.8657    -0.7589  C.3     1  <O>11       0.0171
  13 C10       5.6336   -11.0048     0.4328  C.ar    1  <O>11       0.0736
  14 N3        5.2633   -10.4110     1.6449  N.ar    1  <O>11      -0.1750
  15 N4        6.0992   -10.4401     2.7079  N.ar    1  <O>11      -0.2425
  16 C11       7.2982   -11.0603     2.5863  C.ar    1  <O>11       0.2725
  17 O2        8.1607   -10.9699     3.6946  O.2     1  <O>11      -0.2658
  18 C12       7.6988   -11.7666     1.4417  C.ar    1  <O>11       0.0496
  19 C13       8.9235   -12.4649     1.3347  C.ar    1  <O>11      -0.0487
  20 C14       9.2749   -13.1190     0.1541  C.ar    1  <O>11      -0.0610
  21 C15       8.4199   -13.0843    -0.9402  C.ar    1  <O>11      -0.0611
  22 C16       7.2094   -12.3947    -0.8544  C.ar    1  <O>11      -0.0521
  23 C17       6.8320   -11.7302     0.3381  C.ar    1  <O>11       0.0106
  24 C18       6.8609    -9.9273    -1.6949  C.ar    1  <O>11      -0.0555
  25 C19       7.5517    -9.2892    -2.7297  C.ar    1  <O>11      -0.0254
  26 C20       6.8952    -8.9146    -3.9019  C.ar    1  <O>11       0.1355
  27 F1        7.5773    -8.2944    -4.9189  F       1  <O>11      -0.2047
  28 H1       -0.8324   -12.1048    -6.1746  H       1  <O>11       0.1867
  29 H2       -2.1559    -9.3982    -6.5114  H       1  <O>11       0.0919
  30 H3        3.2999    -9.1528    -7.4842  H       1  <O>11       0.0599
  31 H4        2.8205    -7.6256    -6.7056  H       1  <O>11       0.0599
  32 H5        3.0230    -9.6340    -4.6770  H       1  <O>11       0.1499
  33 H6        4.4392   -11.8552    -1.0942  H       1  <O>11       0.0377
  34 H7        3.8770   -10.2745    -0.4952  H       1  <O>11       0.0377
  35 H8        5.8364   -10.0044     3.5785  H       1  <O>11       0.1921
  36 H9        3.8206   -10.0157    -3.1201  H       1  <O>11       0.0629
  37 H10       9.5665   -12.4909     2.1415  H       1  <O>11       0.0625
  38 H11      10.1701   -13.6289     0.0936  H       1  <O>11       0.0618
  39 H12       8.6792   -13.5673    -1.8146  H       1  <O>11       0.0618
  40 H13       6.5800   -12.3687    -1.6719  H       1  <O>11       0.0624
  41 H14       7.3544   -10.2009    -0.8309  H       1  <O>11       0.0621
  42 H15       8.5594    -9.0930    -2.6248  H       1  <O>11       0.0646
@<TRIPOS>BOND
     1     1     2    2
     2     2     3    1
     3     3     4    3
     4     4     5    1
     5     5     6    1
     6     6     7   am
     7     7     8    2
     8     7     9    1
     9     9    10   ar
    10    10    11   ar
    11    11    12    1
    12    12    13    1
    13    13    14   ar
    14    14    15   ar
    15    15    16   ar
    16    16    17    2
    17    16    18   ar
    18    18    19   ar
    19    19    20   ar
    20    20    21   ar
    21    21    22   ar
    22    22    23   ar
    23    13    23   ar
    24    18    23   ar
    25    11    24   ar
    26    24    25   ar
    27    25    26   ar
    28     9    26   ar
    29    26    27    1
    30     1    28    1
    31     2    29    1
    32     5    30    1
    33     5    31    1
    34     6    32    1
    35    12    33    1
    36    12    34    1
    37    15    35    1
    38    10    36    1
    39    19    37    1
    40    20    38    1
    41    21    39    1
    42    22    40    1
    43    24    41    1
    44    25    42    1
