@<TRIPOS>MOLECULE
mol73_1_1
 38 41 0 0 0
SMALL
USER_CHARGES
****
VDW energy = 57.05
@<TRIPOS>ATOM
   1 N1        2.8495    -9.8143    -4.4295  N.pl3   1  <O>11      -0.3577
   2 C1        1.4617   -10.1611    -4.6036  C.ar    1  <O>11       0.0278
   3 C2        0.8050   -10.8783    -3.6012  C.ar    1  <O>11      -0.0408
   4 C3       -0.5391   -11.2290    -3.7692  C.ar    1  <O>11      -0.0600
   5 C4       -1.2224   -10.8607    -4.9311  C.ar    1  <O>11      -0.0614
   6 C5       -0.5527   -10.1366    -5.9237  C.ar    1  <O>11      -0.0568
   7 C6        0.7874    -9.7806    -5.7650  C.ar    1  <O>11      -0.0264
   8 C7        1.4920    -9.0100    -6.8090  C.3     1  <O>11      -0.0205
   9 C8        2.1332    -9.9685    -7.7994  C.3     1  <O>11      -0.0040
  10 C9        2.8327    -9.2042    -8.8349  C.ar    1  <O>11       0.0708
  11 N2        2.2229    -8.8080    -9.9832  N.ar    1  <O>11      -0.1777
  12 N3        3.1883    -8.0500   -10.5810  N.ar    1  <O>11      -0.2767
  13 C10       4.4009    -8.1319    -9.8884  C.ar    1  <O>11       0.0660
  14 C11       5.7144    -7.6985   -10.1651  C.ar    1  <O>11      -0.0356
  15 C12       6.7381    -7.9096    -9.2125  C.ar    1  <O>11      -0.0490
  16 C13       6.4205    -8.5859    -8.0243  C.ar    1  <O>11       0.0212
  17 C14       7.4110    -8.7734    -7.1059  C.ar    1  <O>11       0.1794
  18 N4        7.6954    -7.9030    -6.1144  N.ar    1  <O>11      -0.1084
  19 N5        8.6647    -8.5046    -5.3652  N.ar    1  <O>11      -0.0229
  20 N6        8.9740    -9.6395    -5.9706  N.ar    1  <O>11      -0.0464
  21 N7        8.2057    -9.8252    -7.0798  N.ar    1  <O>11      -0.2388
  22 C15       5.1267    -9.0604    -7.7685  C.ar    1  <O>11      -0.0401
  23 C16       4.1177    -8.8437    -8.7201  C.ar    1  <O>11       0.0233
  24 H1        3.3392    -9.2907    -5.1550  H       1  <O>11       0.1423
  25 H2        3.3420   -10.0924    -3.5807  H       1  <O>11       0.1423
  26 H3        2.2643    -8.3952    -6.3471  H       1  <O>11       0.0317
  27 H4        0.7801    -8.3703    -7.3308  H       1  <O>11       0.0317
  28 H5        1.3616   -10.5843    -8.2620  H       1  <O>11       0.0332
  29 H6        2.8445   -10.6071    -7.2769  H       1  <O>11       0.0332
  30 H7        3.0367    -7.5027   -11.4164  H       1  <O>11       0.1889
  31 H8        8.1972   -10.5709    -7.7603  H       1  <O>11       0.1923
  32 H9        1.3082   -11.1481    -2.7415  H       1  <O>11       0.0636
  33 H10      -1.0275   -11.7615    -3.0324  H       1  <O>11       0.0618
  34 H11      -2.2132   -11.1207    -5.0562  H       1  <O>11       0.0618
  35 H12      -1.0552    -9.8628    -6.7825  H       1  <O>11       0.0621
  36 H13       5.9275    -7.2291   -11.0592  H       1  <O>11       0.0639
  37 H14       7.6981    -7.5737    -9.3873  H       1  <O>11       0.0625
  38 H15       4.9184    -9.5628    -6.8915  H       1  <O>11       0.0632
@<TRIPOS>BOND
     1     1     2    1
     2     2     3   ar
     3     3     4   ar
     4     4     5   ar
     5     5     6   ar
     6     6     7   ar
     7     2     7   ar
     8     7     8    1
     9     8     9    1
    10     9    10    1
    11    10    11   ar
    12    11    12   ar
    13    12    13   ar
    14    13    14   ar
    15    14    15   ar
    16    15    16   ar
    17    16    17    1
    18    17    18   ar
    19    18    19   ar
    20    19    20   ar
    21    20    21   ar
    22    17    21   ar
    23    16    22   ar
    24    22    23   ar
    25    10    23   ar
    26    13    23   ar
    27     1    24    1
    28     1    25    1
    29     8    26    1
    30     8    27    1
    31     9    28    1
    32     9    29    1
    33    12    30    1
    34    21    31    1
    35     3    32    1
    36     4    33    1
    37     5    34    1
    38     6    35    1
    39    14    36    1
    40    15    37    1
    41    22    38    1
@<TRIPOS>MOLECULE
mol73_1_2
 38 41 0 0 0
SMALL
USER_CHARGES
****
VDW energy = 57.35
@<TRIPOS>ATOM
   1 N1        2.8495    -9.8143    -4.4295  N.pl3   1  <O>11      -0.3577
   2 C1        1.4617   -10.1611    -4.6036  C.ar    1  <O>11       0.0278
   3 C2        0.8050   -10.8783    -3.6012  C.ar    1  <O>11      -0.0408
   4 C3       -0.5391   -11.2290    -3.7692  C.ar    1  <O>11      -0.0600
   5 C4       -1.2224   -10.8607    -4.9311  C.ar    1  <O>11      -0.0614
   6 C5       -0.5527   -10.1366    -5.9237  C.ar    1  <O>11      -0.0568
   7 C6        0.7874    -9.7806    -5.7650  C.ar    1  <O>11      -0.0264
   8 C7        1.4920    -9.0100    -6.8090  C.3     1  <O>11      -0.0205
   9 C8        1.3337    -7.5233    -6.5342  C.3     1  <O>11      -0.0040
  10 C9        2.0322    -6.7587    -7.5701  C.ar    1  <O>11       0.0708
  11 N2        3.3365    -6.3953    -7.4508  N.ar    1  <O>11      -0.1777
  12 N3        3.5917    -5.8184    -8.6615  N.ar    1  <O>11      -0.2767
  13 C10       2.4232    -5.6883    -9.4195  C.ar    1  <O>11       0.0660
  14 C11       2.1105    -5.0272   -10.6257  C.ar    1  <O>11      -0.0356
  15 C12       0.8051    -5.1242   -11.1607  C.ar    1  <O>11      -0.0490
  16 C13      -0.1607    -5.8514   -10.4476  C.ar    1  <O>11       0.0212
  17 C14      -1.4131    -5.9504   -10.9777  C.ar    1  <O>11       0.1794
  18 N4       -1.8036    -6.9368   -11.8121  N.ar    1  <O>11      -0.1084
  19 N5       -3.1366    -6.7330   -12.0224  N.ar    1  <O>11      -0.0229
  20 N6       -3.4618    -5.6155   -11.3934  N.ar    1  <O>11      -0.0464
  21 N7       -2.3874    -5.0951   -10.7377  N.ar    1  <O>11      -0.2388
  22 C15       0.1350    -6.4686    -9.2243  C.ar    1  <O>11      -0.0401
  23 C16       1.4345    -6.3675    -8.7033  C.ar    1  <O>11       0.0233
  24 H1        3.3392    -9.2907    -5.1550  H       1  <O>11       0.1423
  25 H2        3.3420   -10.0924    -3.5807  H       1  <O>11       0.1423
  26 H3        1.0659    -9.2461    -7.7839  H       1  <O>11       0.0317
  27 H4        2.5505    -9.2707    -6.8006  H       1  <O>11       0.0317
  28 H5        1.7594    -7.2859    -5.5589  H       1  <O>11       0.0332
  29 H6        0.2757    -7.2639    -6.5429  H       1  <O>11       0.0332
  30 H7        4.5106    -5.5265    -8.9630  H       1  <O>11       0.1889
  31 H8       -2.2950    -4.2576   -10.1815  H       1  <O>11       0.1923
  32 H9        1.3082   -11.1481    -2.7415  H       1  <O>11       0.0636
  33 H10      -1.0275   -11.7615    -3.0324  H       1  <O>11       0.0618
  34 H11      -2.2132   -11.1207    -5.0562  H       1  <O>11       0.0618
  35 H12      -1.0552    -9.8628    -6.7825  H       1  <O>11       0.0621
  36 H13       2.8316    -4.4748   -11.1157  H       1  <O>11       0.0639
  37 H14       0.5675    -4.6699   -12.0564  H       1  <O>11       0.0625
  38 H15      -0.5936    -6.9908    -8.7131  H       1  <O>11       0.0632
@<TRIPOS>BOND
     1     1     2    1
     2     2     3   ar
     3     3     4   ar
     4     4     5   ar
     5     5     6   ar
     6     6     7   ar
     7     2     7   ar
     8     7     8    1
     9     8     9    1
    10     9    10    1
    11    10    11   ar
    12    11    12   ar
    13    12    13   ar
    14    13    14   ar
    15    14    15   ar
    16    15    16   ar
    17    16    17    1
    18    17    18   ar
    19    18    19   ar
    20    19    20   ar
    21    20    21   ar
    22    17    21   ar
    23    16    22   ar
    24    22    23   ar
    25    10    23   ar
    26    13    23   ar
    27     1    24    1
    28     1    25    1
    29     8    26    1
    30     8    27    1
    31     9    28    1
    32     9    29    1
    33    12    30    1
    34    21    31    1
    35     3    32    1
    36     4    33    1
    37     5    34    1
    38     6    35    1
    39    14    36    1
    40    15    37    1
    41    22    38    1
@<TRIPOS>MOLECULE
mol73_1_3
 38 41 0 0 0
SMALL
USER_CHARGES
****
VDW energy = 58.24
@<TRIPOS>ATOM
   1 N1        2.8495    -9.8143    -4.4295  N.pl3   1  <O>11      -0.3577
   2 C1        1.4617   -10.1611    -4.6036  C.ar    1  <O>11       0.0278
   3 C2        0.8050   -10.8783    -3.6012  C.ar    1  <O>11      -0.0408
   4 C3       -0.5391   -11.2290    -3.7692  C.ar    1  <O>11      -0.0600
   5 C4       -1.2224   -10.8607    -4.9311  C.ar    1  <O>11      -0.0614
   6 C5       -0.5527   -10.1366    -5.9237  C.ar    1  <O>11      -0.0568
   7 C6        0.7874    -9.7806    -5.7650  C.ar    1  <O>11      -0.0264
   8 C7        1.4920    -9.0100    -6.8090  C.3     1  <O>11      -0.0205
   9 C8        2.1332    -9.9685    -7.7994  C.3     1  <O>11      -0.0040
  10 C9        2.8327    -9.2042    -8.8349  C.ar    1  <O>11       0.0708
  11 N2        2.2229    -8.8080    -9.9832  N.ar    1  <O>11      -0.1777
  12 N3        3.1883    -8.0500   -10.5810  N.ar    1  <O>11      -0.2767
  13 C10       4.4009    -8.1319    -9.8884  C.ar    1  <O>11       0.0660
  14 C11       5.7144    -7.6985   -10.1651  C.ar    1  <O>11      -0.0356
  15 C12       6.7381    -7.9096    -9.2125  C.ar    1  <O>11      -0.0490
  16 C13       6.4205    -8.5859    -8.0243  C.ar    1  <O>11       0.0212
  17 C14       7.4110    -8.7734    -7.1059  C.ar    1  <O>11       0.1794
  18 N4        7.8262    -9.9852    -6.6806  N.ar    1  <O>11      -0.1084
  19 N5        8.8879    -9.7412    -5.8585  N.ar    1  <O>11      -0.0229
  20 N6        9.0073    -8.4274    -5.7590  N.ar    1  <O>11      -0.0464
  21 N7        8.0773    -7.7942    -6.5266  N.ar    1  <O>11      -0.2388
  22 C15       5.1267    -9.0604    -7.7685  C.ar    1  <O>11      -0.0401
  23 C16       4.1177    -8.8437    -8.7201  C.ar    1  <O>11       0.0233
  24 H1        3.3392    -9.2907    -5.1550  H       1  <O>11       0.1423
  25 H2        3.3420   -10.0924    -3.5807  H       1  <O>11       0.1423
  26 H3        2.2643    -8.3952    -6.3471  H       1  <O>11       0.0317
  27 H4        0.7801    -8.3703    -7.3308  H       1  <O>11       0.0317
  28 H5        1.3616   -10.5843    -8.2620  H       1  <O>11       0.0332
  29 H6        2.8445   -10.6071    -7.2769  H       1  <O>11       0.0332
  30 H7        3.0367    -7.5027   -11.4164  H       1  <O>11       0.1889
  31 H8        7.8921    -6.8112    -6.6635  H       1  <O>11       0.1923
  32 H9        1.3082   -11.1481    -2.7415  H       1  <O>11       0.0636
  33 H10      -1.0275   -11.7615    -3.0324  H       1  <O>11       0.0618
  34 H11      -2.2132   -11.1207    -5.0562  H       1  <O>11       0.0618
  35 H12      -1.0552    -9.8628    -6.7825  H       1  <O>11       0.0621
  36 H13       5.9275    -7.2291   -11.0592  H       1  <O>11       0.0639
  37 H14       7.6981    -7.5737    -9.3873  H       1  <O>11       0.0625
  38 H15       4.9184    -9.5628    -6.8915  H       1  <O>11       0.0632
@<TRIPOS>BOND
     1     1     2    1
     2     2     3   ar
     3     3     4   ar
     4     4     5   ar
     5     5     6   ar
     6     6     7   ar
     7     2     7   ar
     8     7     8    1
     9     8     9    1
    10     9    10    1
    11    10    11   ar
    12    11    12   ar
    13    12    13   ar
    14    13    14   ar
    15    14    15   ar
    16    15    16   ar
    17    16    17    1
    18    17    18   ar
    19    18    19   ar
    20    19    20   ar
    21    20    21   ar
    22    17    21   ar
    23    16    22   ar
    24    22    23   ar
    25    10    23   ar
    26    13    23   ar
    27     1    24    1
    28     1    25    1
    29     8    26    1
    30     8    27    1
    31     9    28    1
    32     9    29    1
    33    12    30    1
    34    21    31    1
    35     3    32    1
    36     4    33    1
    37     5    34    1
    38     6    35    1
    39    14    36    1
    40    15    37    1
    41    22    38    1
@<TRIPOS>MOLECULE
mol73_1_4
 38 41 0 0 0
SMALL
USER_CHARGES
****
VDW energy = 58.38
@<TRIPOS>ATOM
   1 N1        2.8495    -9.8143    -4.4295  N.pl3   1  <O>11      -0.3577
   2 C1        1.4617   -10.1611    -4.6036  C.ar    1  <O>11       0.0278
   3 C2        0.8050   -10.8783    -3.6012  C.ar    1  <O>11      -0.0408
   4 C3       -0.5391   -11.2290    -3.7692  C.ar    1  <O>11      -0.0600
   5 C4       -1.2224   -10.8607    -4.9311  C.ar    1  <O>11      -0.0614
   6 C5       -0.5527   -10.1366    -5.9237  C.ar    1  <O>11      -0.0568
   7 C6        0.7874    -9.7806    -5.7650  C.ar    1  <O>11      -0.0264
   8 C7        1.4920    -9.0100    -6.8090  C.3     1  <O>11      -0.0205
   9 C8        2.1332    -9.9685    -7.7994  C.3     1  <O>11      -0.0040
  10 C9        2.8327    -9.2042    -8.8349  C.ar    1  <O>11       0.0708
  11 N2        2.2229    -8.8080    -9.9832  N.ar    1  <O>11      -0.1777
  12 N3        3.1883    -8.0500   -10.5810  N.ar    1  <O>11      -0.2767
  13 C10       4.4009    -8.1319    -9.8884  C.ar    1  <O>11       0.0660
  14 C11       5.7144    -7.6985   -10.1651  C.ar    1  <O>11      -0.0356
  15 C12       6.7381    -7.9096    -9.2125  C.ar    1  <O>11      -0.0490
  16 C13       6.4205    -8.5859    -8.0243  C.ar    1  <O>11       0.0212
  17 C14       7.4110    -8.7734    -7.1059  C.ar    1  <O>11       0.1794
  18 N4        7.3694    -8.2978    -5.8435  N.ar    1  <O>11      -0.1084
  19 N5        8.4856    -8.7883    -5.2300  N.ar    1  <O>11      -0.0229
  20 N6        9.1746    -9.4467    -6.1476  N.ar    1  <O>11      -0.0464
  21 N7        8.5235    -9.4398    -7.3439  N.ar    1  <O>11      -0.2388
  22 C15       5.1267    -9.0604    -7.7685  C.ar    1  <O>11      -0.0401
  23 C16       4.1177    -8.8437    -8.7201  C.ar    1  <O>11       0.0233
  24 H1        3.3392    -9.2907    -5.1550  H       1  <O>11       0.1423
  25 H2        3.3420   -10.0924    -3.5807  H       1  <O>11       0.1423
  26 H3        2.2643    -8.3952    -6.3471  H       1  <O>11       0.0317
  27 H4        0.7801    -8.3703    -7.3308  H       1  <O>11       0.0317
  28 H5        1.3616   -10.5843    -8.2620  H       1  <O>11       0.0332
  29 H6        2.8445   -10.6071    -7.2769  H       1  <O>11       0.0332
  30 H7        3.0367    -7.5027   -11.4164  H       1  <O>11       0.1889
  31 H8        8.7789    -9.8347    -8.2373  H       1  <O>11       0.1923
  32 H9        1.3082   -11.1481    -2.7415  H       1  <O>11       0.0636
  33 H10      -1.0275   -11.7615    -3.0324  H       1  <O>11       0.0618
  34 H11      -2.2132   -11.1207    -5.0562  H       1  <O>11       0.0618
  35 H12      -1.0552    -9.8628    -6.7825  H       1  <O>11       0.0621
  36 H13       5.9275    -7.2291   -11.0592  H       1  <O>11       0.0639
  37 H14       7.6981    -7.5737    -9.3873  H       1  <O>11       0.0625
  38 H15       4.9184    -9.5628    -6.8915  H       1  <O>11       0.0632
@<TRIPOS>BOND
     1     1     2    1
     2     2     3   ar
     3     3     4   ar
     4     4     5   ar
     5     5     6   ar
     6     6     7   ar
     7     2     7   ar
     8     7     8    1
     9     8     9    1
    10     9    10    1
    11    10    11   ar
    12    11    12   ar
    13    12    13   ar
    14    13    14   ar
    15    14    15   ar
    16    15    16   ar
    17    16    17    1
    18    17    18   ar
    19    18    19   ar
    20    19    20   ar
    21    20    21   ar
    22    17    21   ar
    23    16    22   ar
    24    22    23   ar
    25    10    23   ar
    26    13    23   ar
    27     1    24    1
    28     1    25    1
    29     8    26    1
    30     8    27    1
    31     9    28    1
    32     9    29    1
    33    12    30    1
    34    21    31    1
    35     3    32    1
    36     4    33    1
    37     5    34    1
    38     6    35    1
    39    14    36    1
    40    15    37    1
    41    22    38    1
@<TRIPOS>MOLECULE
mol73_1_5
 38 41 0 0 0
SMALL
USER_CHARGES
****
VDW energy = 58.56
@<TRIPOS>ATOM
   1 N1        2.8495    -9.8143    -4.4295  N.pl3   1  <O>11      -0.3577
   2 C1        1.4617   -10.1611    -4.6036  C.ar    1  <O>11       0.0278
   3 C2        0.8050   -10.8783    -3.6012  C.ar    1  <O>11      -0.0408
   4 C3       -0.5391   -11.2290    -3.7692  C.ar    1  <O>11      -0.0600
   5 C4       -1.2224   -10.8607    -4.9311  C.ar    1  <O>11      -0.0614
   6 C5       -0.5527   -10.1366    -5.9237  C.ar    1  <O>11      -0.0568
   7 C6        0.7874    -9.7806    -5.7650  C.ar    1  <O>11      -0.0264
   8 C7        1.4920    -9.0100    -6.8090  C.3     1  <O>11      -0.0205
   9 C8        1.3337    -7.5233    -6.5342  C.3     1  <O>11      -0.0040
  10 C9        2.0322    -6.7587    -7.5701  C.ar    1  <O>11       0.0708
  11 N2        3.3365    -6.3953    -7.4508  N.ar    1  <O>11      -0.1777
  12 N3        3.5917    -5.8184    -8.6615  N.ar    1  <O>11      -0.2767
  13 C10       2.4232    -5.6883    -9.4195  C.ar    1  <O>11       0.0660
  14 C11       2.1105    -5.0272   -10.6257  C.ar    1  <O>11      -0.0356
  15 C12       0.8051    -5.1242   -11.1607  C.ar    1  <O>11      -0.0490
  16 C13      -0.1607    -5.8514   -10.4476  C.ar    1  <O>11       0.0212
  17 C14      -1.4131    -5.9504   -10.9777  C.ar    1  <O>11       0.1794
  18 N4       -2.5298    -5.5058   -10.3636  N.ar    1  <O>11      -0.1084
  19 N5       -3.5413    -5.6948   -11.2603  N.ar    1  <O>11      -0.0229
  20 N6       -3.0190    -6.3069   -12.3104  N.ar    1  <O>11      -0.0464
  21 N7       -1.6792    -6.4919   -12.1500  N.ar    1  <O>11      -0.2388
  22 C15       0.1350    -6.4686    -9.2243  C.ar    1  <O>11      -0.0401
  23 C16       1.4345    -6.3675    -8.7033  C.ar    1  <O>11       0.0233
  24 H1        3.3392    -9.2907    -5.1550  H       1  <O>11       0.1423
  25 H2        3.3420   -10.0924    -3.5807  H       1  <O>11       0.1423
  26 H3        1.0659    -9.2461    -7.7839  H       1  <O>11       0.0317
  27 H4        2.5505    -9.2707    -6.8006  H       1  <O>11       0.0317
  28 H5        1.7594    -7.2859    -5.5589  H       1  <O>11       0.0332
  29 H6        0.2757    -7.2639    -6.5429  H       1  <O>11       0.0332
  30 H7        4.5106    -5.5265    -8.9630  H       1  <O>11       0.1889
  31 H8       -0.9964    -6.9306   -12.7505  H       1  <O>11       0.1923
  32 H9        1.3082   -11.1481    -2.7415  H       1  <O>11       0.0636
  33 H10      -1.0275   -11.7615    -3.0324  H       1  <O>11       0.0618
  34 H11      -2.2132   -11.1207    -5.0562  H       1  <O>11       0.0618
  35 H12      -1.0552    -9.8628    -6.7825  H       1  <O>11       0.0621
  36 H13       2.8316    -4.4748   -11.1157  H       1  <O>11       0.0639
  37 H14       0.5675    -4.6699   -12.0564  H       1  <O>11       0.0625
  38 H15      -0.5936    -6.9908    -8.7131  H       1  <O>11       0.0632
@<TRIPOS>BOND
     1     1     2    1
     2     2     3   ar
     3     3     4   ar
     4     4     5   ar
     5     5     6   ar
     6     6     7   ar
     7     2     7   ar
     8     7     8    1
     9     8     9    1
    10     9    10    1
    11    10    11   ar
    12    11    12   ar
    13    12    13   ar
    14    13    14   ar
    15    14    15   ar
    16    15    16   ar
    17    16    17    1
    18    17    18   ar
    19    18    19   ar
    20    19    20   ar
    21    20    21   ar
    22    17    21   ar
    23    16    22   ar
    24    22    23   ar
    25    10    23   ar
    26    13    23   ar
    27     1    24    1
    28     1    25    1
    29     8    26    1
    30     8    27    1
    31     9    28    1
    32     9    29    1
    33    12    30    1
    34    21    31    1
    35     3    32    1
    36     4    33    1
    37     5    34    1
    38     6    35    1
    39    14    36    1
    40    15    37    1
    41    22    38    1
@<TRIPOS>MOLECULE
mol73_1_6
 38 41 0 0 0
SMALL
USER_CHARGES
****
VDW energy = 59.72
@<TRIPOS>ATOM
   1 N1        2.8495    -9.8143    -4.4295  N.pl3   1  <O>11      -0.3577
   2 C1        1.4617   -10.1611    -4.6036  C.ar    1  <O>11       0.0278
   3 C2        0.8050   -10.8783    -3.6012  C.ar    1  <O>11      -0.0408
   4 C3       -0.5391   -11.2290    -3.7692  C.ar    1  <O>11      -0.0600
   5 C4       -1.2224   -10.8607    -4.9311  C.ar    1  <O>11      -0.0614
   6 C5       -0.5527   -10.1366    -5.9237  C.ar    1  <O>11      -0.0568
   7 C6        0.7874    -9.7806    -5.7650  C.ar    1  <O>11      -0.0264
   8 C7        1.4920    -9.0100    -6.8090  C.3     1  <O>11      -0.0205
   9 C8        1.3337    -7.5233    -6.5342  C.3     1  <O>11      -0.0040
  10 C9        2.0322    -6.7587    -7.5701  C.ar    1  <O>11       0.0708
  11 N2        2.6990    -7.3584    -8.5914  N.ar    1  <O>11      -0.1777
  12 N3        3.0847    -6.2940    -9.3544  N.ar    1  <O>11      -0.2767
  13 C10       2.8024    -5.0816    -8.7160  C.ar    1  <O>11       0.0660
  14 C11       3.1399    -3.7377    -8.9798  C.ar    1  <O>11      -0.0356
  15 C12       2.6505    -2.7131    -8.1367  C.ar    1  <O>11      -0.0490
  16 C13       1.8671    -3.0720    -7.0288  C.ar    1  <O>11       0.0212
  17 C14       1.3888    -2.0765    -6.2291  C.ar    1  <O>11       0.1794
  18 N4        0.2024    -1.4611    -6.4179  N.ar    1  <O>11      -0.1084
  19 N5        0.0544    -0.6165    -5.3561  N.ar    1  <O>11      -0.0229
  20 N6        1.1649    -0.6942    -4.6413  N.ar    1  <O>11      -0.0464
  21 N7        2.0287    -1.5992    -5.1797  N.ar    1  <O>11      -0.2388
  22 C15       1.5709    -4.4106    -6.7372  C.ar    1  <O>11      -0.0401
  23 C16       2.0602    -5.4195    -7.5816  C.ar    1  <O>11       0.0233
  24 H1        3.3392    -9.2907    -5.1550  H       1  <O>11       0.1423
  25 H2        3.3420   -10.0924    -3.5807  H       1  <O>11       0.1423
  26 H3        1.0659    -9.2461    -7.7839  H       1  <O>11       0.0317
  27 H4        2.5505    -9.2707    -6.8006  H       1  <O>11       0.0317
  28 H5        1.7594    -7.2859    -5.5589  H       1  <O>11       0.0332
  29 H6        0.2757    -7.2639    -6.5429  H       1  <O>11       0.0332
  30 H7        3.5175    -6.3806   -10.2630  H       1  <O>11       0.1889
  31 H8        2.9532    -1.8832    -4.8902  H       1  <O>11       0.1923
  32 H9        1.3082   -11.1481    -2.7415  H       1  <O>11       0.0636
  33 H10      -1.0275   -11.7615    -3.0324  H       1  <O>11       0.0618
  34 H11      -2.2132   -11.1207    -5.0562  H       1  <O>11       0.0618
  35 H12      -1.0552    -9.8628    -6.7825  H       1  <O>11       0.0621
  36 H13       3.7417    -3.5030    -9.7847  H       1  <O>11       0.0639
  37 H14       2.8648    -1.7226    -8.3320  H       1  <O>11       0.0625
  38 H15       1.0002    -4.6515    -5.9119  H       1  <O>11       0.0632
@<TRIPOS>BOND
     1     1     2    1
     2     2     3   ar
     3     3     4   ar
     4     4     5   ar
     5     5     6   ar
     6     6     7   ar
     7     2     7   ar
     8     7     8    1
     9     8     9    1
    10     9    10    1
    11    10    11   ar
    12    11    12   ar
    13    12    13   ar
    14    13    14   ar
    15    14    15   ar
    16    15    16   ar
    17    16    17    1
    18    17    18   ar
    19    18    19   ar
    20    19    20   ar
    21    20    21   ar
    22    17    21   ar
    23    16    22   ar
    24    22    23   ar
    25    10    23   ar
    26    13    23   ar
    27     1    24    1
    28     1    25    1
    29     8    26    1
    30     8    27    1
    31     9    28    1
    32     9    29    1
    33    12    30    1
    34    21    31    1
    35     3    32    1
    36     4    33    1
    37     5    34    1
    38     6    35    1
    39    14    36    1
    40    15    37    1
    41    22    38    1
@<TRIPOS>MOLECULE
mol73_1_7
 38 41 0 0 0
SMALL
USER_CHARGES
****
VDW energy = 62.58
@<TRIPOS>ATOM
   1 N1        2.8495    -9.8143    -4.4295  N.pl3   1  <O>11      -0.3577
   2 C1        1.4617   -10.1611    -4.6036  C.ar    1  <O>11       0.0278
   3 C2        0.8050   -10.8783    -3.6012  C.ar    1  <O>11      -0.0408
   4 C3       -0.5391   -11.2290    -3.7692  C.ar    1  <O>11      -0.0600
   5 C4       -1.2224   -10.8607    -4.9311  C.ar    1  <O>11      -0.0614
   6 C5       -0.5527   -10.1366    -5.9237  C.ar    1  <O>11      -0.0568
   7 C6        0.7874    -9.7806    -5.7650  C.ar    1  <O>11      -0.0264
   8 C7        1.4920    -9.0100    -6.8090  C.3     1  <O>11      -0.0205
   9 C8        2.1332    -9.9685    -7.7994  C.3     1  <O>11      -0.0040
  10 C9        2.8327    -9.2042    -8.8349  C.ar    1  <O>11       0.0708
  11 N2        2.5107    -9.2999   -10.1519  N.ar    1  <O>11      -0.1777
  12 N3        3.3166    -8.3556   -10.7199  N.ar    1  <O>11      -0.2767
  13 C10       4.2180    -7.8293    -9.7886  C.ar    1  <O>11       0.0660
  14 C11       5.3417    -6.9824    -9.8884  C.ar    1  <O>11      -0.0356
  15 C12       6.0354    -6.5966    -8.7180  C.ar    1  <O>11      -0.0490
  16 C13       5.6034    -7.1048    -7.4830  C.ar    1  <O>11       0.0212
  17 C14       6.2703    -6.7170    -6.3585  C.ar    1  <O>11       0.1794
  18 N4        5.9432    -5.6337    -5.6230  N.ar    1  <O>11      -0.1084
  19 N5        6.7755    -5.6598    -4.5416  N.ar    1  <O>11      -0.0229
  20 N6        7.6014    -6.6791    -4.7126  N.ar    1  <O>11      -0.0464
  21 N7        7.3115    -7.3539    -5.8597  N.ar    1  <O>11      -0.2388
  22 C15       4.5170    -7.9851    -7.3867  C.ar    1  <O>11      -0.0401
  23 C16       3.8343    -8.3600    -8.5545  C.ar    1  <O>11       0.0233
  24 H1        3.3392    -9.2907    -5.1550  H       1  <O>11       0.1423
  25 H2        3.3420   -10.0924    -3.5807  H       1  <O>11       0.1423
  26 H3        2.2643    -8.3952    -6.3471  H       1  <O>11       0.0317
  27 H4        0.7801    -8.3703    -7.3308  H       1  <O>11       0.0317
  28 H5        1.3616   -10.5843    -8.2620  H       1  <O>11       0.0332
  29 H6        2.8445   -10.6071    -7.2769  H       1  <O>11       0.0332
  30 H7        3.2613    -8.0785   -11.6897  H       1  <O>11       0.1889
  31 H8        7.7509    -8.1590    -6.2815  H       1  <O>11       0.1923
  32 H9        1.3082   -11.1481    -2.7415  H       1  <O>11       0.0636
  33 H10      -1.0275   -11.7615    -3.0324  H       1  <O>11       0.0618
  34 H11      -2.2132   -11.1207    -5.0562  H       1  <O>11       0.0618
  35 H12      -1.0552    -9.8628    -6.7825  H       1  <O>11       0.0621
  36 H13       5.6562    -6.6457   -10.8118  H       1  <O>11       0.0639
  37 H14       6.8422    -5.9552    -8.7708  H       1  <O>11       0.0625
  38 H15       4.2225    -8.3531    -6.4686  H       1  <O>11       0.0632
@<TRIPOS>BOND
     1     1     2    1
     2     2     3   ar
     3     3     4   ar
     4     4     5   ar
     5     5     6   ar
     6     6     7   ar
     7     2     7   ar
     8     7     8    1
     9     8     9    1
    10     9    10    1
    11    10    11   ar
    12    11    12   ar
    13    12    13   ar
    14    13    14   ar
    15    14    15   ar
    16    15    16   ar
    17    16    17    1
    18    17    18   ar
    19    18    19   ar
    20    19    20   ar
    21    20    21   ar
    22    17    21   ar
    23    16    22   ar
    24    22    23   ar
    25    10    23   ar
    26    13    23   ar
    27     1    24    1
    28     1    25    1
    29     8    26    1
    30     8    27    1
    31     9    28    1
    32     9    29    1
    33    12    30    1
    34    21    31    1
    35     3    32    1
    36     4    33    1
    37     5    34    1
    38     6    35    1
    39    14    36    1
    40    15    37    1
    41    22    38    1
@<TRIPOS>MOLECULE
mol73_1_8
 38 41 0 0 0
SMALL
USER_CHARGES
****
VDW energy = 64.63
@<TRIPOS>ATOM
   1 N1        2.8495    -9.8143    -4.4295  N.pl3   1  <O>11      -0.3577
   2 C1        1.4617   -10.1611    -4.6036  C.ar    1  <O>11       0.0278
   3 C2        0.8050   -10.8783    -3.6012  C.ar    1  <O>11      -0.0408
   4 C3       -0.5391   -11.2290    -3.7692  C.ar    1  <O>11      -0.0600
   5 C4       -1.2224   -10.8607    -4.9311  C.ar    1  <O>11      -0.0614
   6 C5       -0.5527   -10.1366    -5.9237  C.ar    1  <O>11      -0.0568
   7 C6        0.7874    -9.7806    -5.7650  C.ar    1  <O>11      -0.0264
   8 C7        1.4920    -9.0100    -6.8090  C.3     1  <O>11      -0.0205
   9 C8        0.5390    -8.7270    -7.9590  C.3     1  <O>11      -0.0040
  10 C9        1.2380    -7.9630    -8.9950  C.ar    1  <O>11       0.0708
  11 N2        1.2658    -6.6041    -9.0024  N.ar    1  <O>11      -0.1777
  12 N3        2.1001    -6.3339   -10.0487  N.ar    1  <O>11      -0.2767
  13 C10       2.4261    -7.4977   -10.7531  C.ar    1  <O>11       0.0660
  14 C11       3.0888    -7.7471   -11.9731  C.ar    1  <O>11      -0.0356
  15 C12       3.2961    -9.0796   -12.3991  C.ar    1  <O>11      -0.0490
  16 C13       2.7965   -10.1238   -11.6053  C.ar    1  <O>11       0.0212
  17 C14       3.0125   -11.4057   -12.0174  C.ar    1  <O>11       0.1794
  18 N4        2.0271   -12.2860   -12.2927  N.ar    1  <O>11      -0.1084
  19 N5        2.6541   -13.4015   -12.7674  N.ar    1  <O>11      -0.0229
  20 N6        3.9558   -13.1822   -12.6779  N.ar    1  <O>11      -0.0464
  21 N7        4.2074   -11.9341   -12.1942  N.ar    1  <O>11      -0.2388
  22 C15       2.0952    -9.8768   -10.4172  C.ar    1  <O>11      -0.0401
  23 C16       1.8967    -8.5505   -10.0026  C.ar    1  <O>11       0.0233
  24 H1        3.3392    -9.2907    -5.1550  H       1  <O>11       0.1423
  25 H2        3.3420   -10.0924    -3.5807  H       1  <O>11       0.1423
  26 H3        2.3410    -9.5870    -7.1750  H       1  <O>11       0.0317
  27 H4        1.8450    -8.0680    -6.3890  H       1  <O>11       0.0317
  28 H5       -0.3110    -8.1500    -7.5940  H       1  <O>11       0.0332
  29 H6        0.1870    -9.6690    -8.3780  H       1  <O>11       0.0332
  30 H7        2.4346    -5.4084   -10.2769  H       1  <O>11       0.1889
  31 H8        5.0797   -11.4655   -11.9970  H       1  <O>11       0.1923
  32 H9        1.3082   -11.1481    -2.7415  H       1  <O>11       0.0636
  33 H10      -1.0275   -11.7615    -3.0324  H       1  <O>11       0.0618
  34 H11      -2.2132   -11.1207    -5.0562  H       1  <O>11       0.0618
  35 H12      -1.0552    -9.8628    -6.7825  H       1  <O>11       0.0621
  36 H13       3.4210    -6.9604   -12.5525  H       1  <O>11       0.0639
  37 H14       3.8038    -9.2799   -13.2750  H       1  <O>11       0.0625
  38 H15       1.7292   -10.6604    -9.8540  H       1  <O>11       0.0632
@<TRIPOS>BOND
     1     1     2    1
     2     2     3   ar
     3     3     4   ar
     4     4     5   ar
     5     5     6   ar
     6     6     7   ar
     7     2     7   ar
     8     7     8    1
     9     8     9    1
    10     9    10    1
    11    10    11   ar
    12    11    12   ar
    13    12    13   ar
    14    13    14   ar
    15    14    15   ar
    16    15    16   ar
    17    16    17    1
    18    17    18   ar
    19    18    19   ar
    20    19    20   ar
    21    20    21   ar
    22    17    21   ar
    23    16    22   ar
    24    22    23   ar
    25    10    23   ar
    26    13    23   ar
    27     1    24    1
    28     1    25    1
    29     8    26    1
    30     8    27    1
    31     9    28    1
    32     9    29    1
    33    12    30    1
    34    21    31    1
    35     3    32    1
    36     4    33    1
    37     5    34    1
    38     6    35    1
    39    14    36    1
    40    15    37    1
    41    22    38    1
@<TRIPOS>MOLECULE
mol73_1_9
 38 41 0 0 0
SMALL
USER_CHARGES
****
VDW energy = 64.64
@<TRIPOS>ATOM
   1 N1        2.8495    -9.8143    -4.4295  N.pl3   1  <O>11      -0.3577
   2 C1        1.4617   -10.1611    -4.6036  C.ar    1  <O>11       0.0278
   3 C2        0.8050   -10.8783    -3.6012  C.ar    1  <O>11      -0.0408
   4 C3       -0.5391   -11.2290    -3.7692  C.ar    1  <O>11      -0.0600
   5 C4       -1.2224   -10.8607    -4.9311  C.ar    1  <O>11      -0.0614
   6 C5       -0.5527   -10.1366    -5.9237  C.ar    1  <O>11      -0.0568
   7 C6        0.7874    -9.7806    -5.7650  C.ar    1  <O>11      -0.0264
   8 C7        1.4920    -9.0100    -6.8090  C.3     1  <O>11      -0.0205
   9 C8        0.5390    -8.7270    -7.9590  C.3     1  <O>11      -0.0040
  10 C9        1.2380    -7.9630    -8.9950  C.ar    1  <O>11       0.0708
  11 N2        1.9043    -8.5632   -10.0163  N.ar    1  <O>11      -0.1777
  12 N3        2.2907    -7.4992   -10.7794  N.ar    1  <O>11      -0.2767
  13 C10       2.0094    -6.2866   -10.1411  C.ar    1  <O>11       0.0660
  14 C11       2.3479    -4.9429   -10.4050  C.ar    1  <O>11      -0.0356
  15 C12       1.8593    -3.9179    -9.5620  C.ar    1  <O>11      -0.0490
  16 C13       1.0757    -4.2761    -8.4540  C.ar    1  <O>11       0.0212
  17 C14       0.5981    -3.2802    -7.6543  C.ar    1  <O>11       0.1794
  18 N4        0.8823    -3.1662    -6.3397  N.ar    1  <O>11      -0.1084
  19 N5        0.3060    -1.9953    -5.9402  N.ar    1  <O>11      -0.0229
  20 N6       -0.3540    -1.5134    -6.9806  N.ar    1  <O>11      -0.0464
  21 N7       -0.1963    -2.3140    -8.0711  N.ar    1  <O>11      -0.2388
  22 C15       0.7785    -5.6145    -8.1622  C.ar    1  <O>11      -0.0401
  23 C16       1.2670    -6.6238    -9.0066  C.ar    1  <O>11       0.0233
  24 H1        3.3392    -9.2907    -5.1550  H       1  <O>11       0.1423
  25 H2        3.3420   -10.0924    -3.5807  H       1  <O>11       0.1423
  26 H3        2.3410    -9.5870    -7.1750  H       1  <O>11       0.0317
  27 H4        1.8450    -8.0680    -6.3890  H       1  <O>11       0.0317
  28 H5       -0.3110    -8.1500    -7.5940  H       1  <O>11       0.0332
  29 H6        0.1870    -9.6690    -8.3780  H       1  <O>11       0.0332
  30 H7        2.7234    -7.5862   -11.6881  H       1  <O>11       0.1889
  31 H8       -0.5711    -2.2389    -9.0055  H       1  <O>11       0.1923
  32 H9        1.3082   -11.1481    -2.7415  H       1  <O>11       0.0636
  33 H10      -1.0275   -11.7615    -3.0324  H       1  <O>11       0.0618
  34 H11      -2.2132   -11.1207    -5.0562  H       1  <O>11       0.0618
  35 H12      -1.0552    -9.8628    -6.7825  H       1  <O>11       0.0621
  36 H13       2.9497    -4.7088   -11.2100  H       1  <O>11       0.0639
  37 H14       2.0744    -2.9276    -9.7573  H       1  <O>11       0.0625
  38 H15       0.2076    -5.8549    -7.3369  H       1  <O>11       0.0632
@<TRIPOS>BOND
     1     1     2    1
     2     2     3   ar
     3     3     4   ar
     4     4     5   ar
     5     5     6   ar
     6     6     7   ar
     7     2     7   ar
     8     7     8    1
     9     8     9    1
    10     9    10    1
    11    10    11   ar
    12    11    12   ar
    13    12    13   ar
    14    13    14   ar
    15    14    15   ar
    16    15    16   ar
    17    16    17    1
    18    17    18   ar
    19    18    19   ar
    20    19    20   ar
    21    20    21   ar
    22    17    21   ar
    23    16    22   ar
    24    22    23   ar
    25    10    23   ar
    26    13    23   ar
    27     1    24    1
    28     1    25    1
    29     8    26    1
    30     8    27    1
    31     9    28    1
    32     9    29    1
    33    12    30    1
    34    21    31    1
    35     3    32    1
    36     4    33    1
    37     5    34    1
    38     6    35    1
    39    14    36    1
    40    15    37    1
    41    22    38    1
@<TRIPOS>MOLECULE
mol73_1_10
 38 41 0 0 0
SMALL
USER_CHARGES
****
VDW energy = 65.04
@<TRIPOS>ATOM
   1 N1        2.8495    -9.8143    -4.4295  N.pl3   1  <O>11      -0.3577
   2 C1        1.4617   -10.1611    -4.6036  C.ar    1  <O>11       0.0278
   3 C2        0.8050   -10.8783    -3.6012  C.ar    1  <O>11      -0.0408
   4 C3       -0.5391   -11.2290    -3.7692  C.ar    1  <O>11      -0.0600
   5 C4       -1.2224   -10.8607    -4.9311  C.ar    1  <O>11      -0.0614
   6 C5       -0.5527   -10.1366    -5.9237  C.ar    1  <O>11      -0.0568
   7 C6        0.7874    -9.7806    -5.7650  C.ar    1  <O>11      -0.0264
   8 C7        1.4920    -9.0100    -6.8090  C.3     1  <O>11      -0.0205
   9 C8        1.3337    -7.5233    -6.5342  C.3     1  <O>11      -0.0040
  10 C9        2.0322    -6.7587    -7.5701  C.ar    1  <O>11       0.0708
  11 N2        1.4216    -6.3629    -8.7180  N.ar    1  <O>11      -0.1777
  12 N3        2.3862    -5.6044    -9.3164  N.ar    1  <O>11      -0.2767
  13 C10       3.5993    -5.6858    -8.6246  C.ar    1  <O>11       0.0660
  14 C11       4.9125    -5.2518    -8.9021  C.ar    1  <O>11      -0.0356
  15 C12       5.9368    -5.4625    -7.9502  C.ar    1  <O>11      -0.0490
  16 C13       5.6203    -6.1388    -6.7617  C.ar    1  <O>11       0.0212
  17 C14       6.6114    -6.3259    -5.8440  C.ar    1  <O>11       0.1794
  18 N4        7.8822    -5.9018    -6.0086  N.ar    1  <O>11      -0.1084
  19 N5        8.5187    -6.1872    -4.8355  N.ar    1  <O>11      -0.0229
  20 N6        7.6518    -6.8302    -4.0705  N.ar    1  <O>11      -0.0464
  21 N7        6.4444    -6.9425    -4.6906  N.ar    1  <O>11      -0.2388
  22 C15       4.3268    -6.6139    -6.5052  C.ar    1  <O>11      -0.0401
  23 C16       3.3172    -6.3977    -7.4561  C.ar    1  <O>11       0.0233
  24 H1        3.3392    -9.2907    -5.1550  H       1  <O>11       0.1423
  25 H2        3.3420   -10.0924    -3.5807  H       1  <O>11       0.1423
  26 H3        1.0659    -9.2461    -7.7839  H       1  <O>11       0.0317
  27 H4        2.5505    -9.2707    -6.8006  H       1  <O>11       0.0317
  28 H5        1.7594    -7.2859    -5.5589  H       1  <O>11       0.0332
  29 H6        0.2757    -7.2639    -6.5429  H       1  <O>11       0.0332
  30 H7        2.2338    -5.0572   -10.1518  H       1  <O>11       0.1889
  31 H8        5.5858    -7.3805    -4.3903  H       1  <O>11       0.1923
  32 H9        1.3082   -11.1481    -2.7415  H       1  <O>11       0.0636
  33 H10      -1.0275   -11.7615    -3.0324  H       1  <O>11       0.0618
  34 H11      -2.2132   -11.1207    -5.0562  H       1  <O>11       0.0618
  35 H12      -1.0552    -9.8628    -6.7825  H       1  <O>11       0.0621
  36 H13       5.1248    -4.7824    -9.7964  H       1  <O>11       0.0639
  37 H14       6.8966    -5.1261    -8.1256  H       1  <O>11       0.0625
  38 H15       4.1193    -7.1164    -5.6280  H       1  <O>11       0.0632
@<TRIPOS>BOND
     1     1     2    1
     2     2     3   ar
     3     3     4   ar
     4     4     5   ar
     5     5     6   ar
     6     6     7   ar
     7     2     7   ar
     8     7     8    1
     9     8     9    1
    10     9    10    1
    11    10    11   ar
    12    11    12   ar
    13    12    13   ar
    14    13    14   ar
    15    14    15   ar
    16    15    16   ar
    17    16    17    1
    18    17    18   ar
    19    18    19   ar
    20    19    20   ar
    21    20    21   ar
    22    17    21   ar
    23    16    22   ar
    24    22    23   ar
    25    10    23   ar
    26    13    23   ar
    27     1    24    1
    28     1    25    1
    29     8    26    1
    30     8    27    1
    31     9    28    1
    32     9    29    1
    33    12    30    1
    34    21    31    1
    35     3    32    1
    36     4    33    1
    37     5    34    1
    38     6    35    1
    39    14    36    1
    40    15    37    1
    41    22    38    1
@<TRIPOS>MOLECULE
mol73_1_11
 38 41 0 0 0
SMALL
USER_CHARGES
****
VDW energy = 65.86
@<TRIPOS>ATOM
   1 N1        2.8495    -9.8143    -4.4295  N.pl3   1  <O>11      -0.3577
   2 C1        1.4617   -10.1611    -4.6036  C.ar    1  <O>11       0.0278
   3 C2        0.8050   -10.8783    -3.6012  C.ar    1  <O>11      -0.0408
   4 C3       -0.5391   -11.2290    -3.7692  C.ar    1  <O>11      -0.0600
   5 C4       -1.2224   -10.8607    -4.9311  C.ar    1  <O>11      -0.0614
   6 C5       -0.5527   -10.1366    -5.9237  C.ar    1  <O>11      -0.0568
   7 C6        0.7874    -9.7806    -5.7650  C.ar    1  <O>11      -0.0264
   8 C7        1.4920    -9.0100    -6.8090  C.3     1  <O>11      -0.0205
   9 C8        0.5390    -8.7270    -7.9590  C.3     1  <O>11      -0.0040
  10 C9        1.2380    -7.9630    -8.9950  C.ar    1  <O>11       0.0708
  11 N2        2.5420    -7.5990    -8.8750  N.ar    1  <O>11      -0.1777
  12 N3        2.7980    -7.0230   -10.0860  N.ar    1  <O>11      -0.2767
  13 C10       1.6300    -6.8940   -10.8450  C.ar    1  <O>11       0.0660
  14 C11       1.3180    -6.2340   -12.0520  C.ar    1  <O>11      -0.0356
  15 C12       0.0130    -6.3320   -12.5880  C.ar    1  <O>11      -0.0490
  16 C13      -0.9530    -7.0590   -11.8750  C.ar    1  <O>11       0.0212
  17 C14      -2.2050    -7.1590   -12.4060  C.ar    1  <O>11       0.1794
  18 N4       -2.5944    -8.1463   -13.2399  N.ar    1  <O>11      -0.1084
  19 N5       -3.9273    -7.9431   -13.4514  N.ar    1  <O>11      -0.0229
  20 N6       -4.2535    -6.8252   -12.8236  N.ar    1  <O>11      -0.0464
  21 N7       -3.1798    -6.3038   -12.1675  N.ar    1  <O>11      -0.2388
  22 C15      -0.6580    -7.6750   -10.6510  C.ar    1  <O>11      -0.0401
  23 C16       0.6410    -7.5730   -10.1290  C.ar    1  <O>11       0.0233
  24 H1        3.3392    -9.2907    -5.1550  H       1  <O>11       0.1423
  25 H2        3.3420   -10.0924    -3.5807  H       1  <O>11       0.1423
  26 H3        2.3410    -9.5870    -7.1750  H       1  <O>11       0.0317
  27 H4        1.8450    -8.0680    -6.3890  H       1  <O>11       0.0317
  28 H5       -0.3110    -8.1500    -7.5940  H       1  <O>11       0.0332
  29 H6        0.1870    -9.6690    -8.3780  H       1  <O>11       0.0332
  30 H7        3.7170    -6.7310   -10.3870  H       1  <O>11       0.1889
  31 H8       -3.0882    -5.4658   -11.6120  H       1  <O>11       0.1923
  32 H9        1.3082   -11.1481    -2.7415  H       1  <O>11       0.0636
  33 H10      -1.0275   -11.7615    -3.0324  H       1  <O>11       0.0618
  34 H11      -2.2132   -11.1207    -5.0562  H       1  <O>11       0.0618
  35 H12      -1.0552    -9.8628    -6.7825  H       1  <O>11       0.0621
  36 H13       2.0392    -5.6818   -12.5419  H       1  <O>11       0.0639
  37 H14      -0.2240    -5.8786   -13.4843  H       1  <O>11       0.0625
  38 H15      -1.3868    -8.1971   -10.1399  H       1  <O>11       0.0632
@<TRIPOS>BOND
     1     1     2    1
     2     2     3   ar
     3     3     4   ar
     4     4     5   ar
     5     5     6   ar
     6     6     7   ar
     7     2     7   ar
     8     7     8    1
     9     8     9    1
    10     9    10    1
    11    10    11   ar
    12    11    12   ar
    13    12    13   ar
    14    13    14   ar
    15    14    15   ar
    16    15    16   ar
    17    16    17    1
    18    17    18   ar
    19    18    19   ar
    20    19    20   ar
    21    20    21   ar
    22    17    21   ar
    23    16    22   ar
    24    22    23   ar
    25    10    23   ar
    26    13    23   ar
    27     1    24    1
    28     1    25    1
    29     8    26    1
    30     8    27    1
    31     9    28    1
    32     9    29    1
    33    12    30    1
    34    21    31    1
    35     3    32    1
    36     4    33    1
    37     5    34    1
    38     6    35    1
    39    14    36    1
    40    15    37    1
    41    22    38    1
@<TRIPOS>MOLECULE
mol73_1_12
 38 41 0 0 0
SMALL
USER_CHARGES
****
VDW energy = 67.06
@<TRIPOS>ATOM
   1 N1        2.8495    -9.8143    -4.4295  N.pl3   1  <O>11      -0.3577
   2 C1        1.4617   -10.1611    -4.6036  C.ar    1  <O>11       0.0278
   3 C2        0.8050   -10.8783    -3.6012  C.ar    1  <O>11      -0.0408
   4 C3       -0.5391   -11.2290    -3.7692  C.ar    1  <O>11      -0.0600
   5 C4       -1.2224   -10.8607    -4.9311  C.ar    1  <O>11      -0.0614
   6 C5       -0.5527   -10.1366    -5.9237  C.ar    1  <O>11      -0.0568
   7 C6        0.7874    -9.7806    -5.7650  C.ar    1  <O>11      -0.0264
   8 C7        1.4920    -9.0100    -6.8090  C.3     1  <O>11      -0.0205
   9 C8        0.5390    -8.7270    -7.9590  C.3     1  <O>11      -0.0040
  10 C9        1.2380    -7.9630    -8.9950  C.ar    1  <O>11       0.0708
  11 N2        2.5420    -7.5990    -8.8750  N.ar    1  <O>11      -0.1777
  12 N3        2.7980    -7.0230   -10.0860  N.ar    1  <O>11      -0.2767
  13 C10       1.6300    -6.8940   -10.8450  C.ar    1  <O>11       0.0660
  14 C11       1.3180    -6.2340   -12.0520  C.ar    1  <O>11      -0.0356
  15 C12       0.0130    -6.3320   -12.5880  C.ar    1  <O>11      -0.0490
  16 C13      -0.9530    -7.0590   -11.8750  C.ar    1  <O>11       0.0212
  17 C14      -2.2050    -7.1590   -12.4060  C.ar    1  <O>11       0.1794
  18 N4       -3.3223    -6.7143   -11.7932  N.ar    1  <O>11      -0.1084
  19 N5       -4.3330    -6.9045   -12.6905  N.ar    1  <O>11      -0.0229
  20 N6       -3.8097    -7.5172   -13.7397  N.ar    1  <O>11      -0.0464
  21 N7       -2.4699    -7.7015   -13.5781  N.ar    1  <O>11      -0.2388
  22 C15      -0.6580    -7.6750   -10.6510  C.ar    1  <O>11      -0.0401
  23 C16       0.6410    -7.5730   -10.1290  C.ar    1  <O>11       0.0233
  24 H1        3.3392    -9.2907    -5.1550  H       1  <O>11       0.1423
  25 H2        3.3420   -10.0924    -3.5807  H       1  <O>11       0.1423
  26 H3        2.3410    -9.5870    -7.1750  H       1  <O>11       0.0317
  27 H4        1.8450    -8.0680    -6.3890  H       1  <O>11       0.0317
  28 H5       -0.3110    -8.1500    -7.5940  H       1  <O>11       0.0332
  29 H6        0.1870    -9.6690    -8.3780  H       1  <O>11       0.0332
  30 H7        3.7170    -6.7310   -10.3870  H       1  <O>11       0.1889
  31 H8       -1.7864    -8.1405   -14.1776  H       1  <O>11       0.1923
  32 H9        1.3082   -11.1481    -2.7415  H       1  <O>11       0.0636
  33 H10      -1.0275   -11.7615    -3.0324  H       1  <O>11       0.0618
  34 H11      -2.2132   -11.1207    -5.0562  H       1  <O>11       0.0618
  35 H12      -1.0552    -9.8628    -6.7825  H       1  <O>11       0.0621
  36 H13       2.0392    -5.6818   -12.5419  H       1  <O>11       0.0639
  37 H14      -0.2240    -5.8786   -13.4843  H       1  <O>11       0.0625
  38 H15      -1.3868    -8.1971   -10.1399  H       1  <O>11       0.0632
@<TRIPOS>BOND
     1     1     2    1
     2     2     3   ar
     3     3     4   ar
     4     4     5   ar
     5     5     6   ar
     6     6     7   ar
     7     2     7   ar
     8     7     8    1
     9     8     9    1
    10     9    10    1
    11    10    11   ar
    12    11    12   ar
    13    12    13   ar
    14    13    14   ar
    15    14    15   ar
    16    15    16   ar
    17    16    17    1
    18    17    18   ar
    19    18    19   ar
    20    19    20   ar
    21    20    21   ar
    22    17    21   ar
    23    16    22   ar
    24    22    23   ar
    25    10    23   ar
    26    13    23   ar
    27     1    24    1
    28     1    25    1
    29     8    26    1
    30     8    27    1
    31     9    28    1
    32     9    29    1
    33    12    30    1
    34    21    31    1
    35     3    32    1
    36     4    33    1
    37     5    34    1
    38     6    35    1
    39    14    36    1
    40    15    37    1
    41    22    38    1
@<TRIPOS>MOLECULE
mol73_1_13
 38 41 0 0 0
SMALL
USER_CHARGES
****
VDW energy = 67.23
@<TRIPOS>ATOM
   1 N1        2.8495    -9.8143    -4.4295  N.pl3   1  <O>11      -0.3577
   2 C1        1.4617   -10.1611    -4.6036  C.ar    1  <O>11       0.0278
   3 C2        0.8050   -10.8783    -3.6012  C.ar    1  <O>11      -0.0408
   4 C3       -0.5391   -11.2290    -3.7692  C.ar    1  <O>11      -0.0600
   5 C4       -1.2224   -10.8607    -4.9311  C.ar    1  <O>11      -0.0614
   6 C5       -0.5527   -10.1366    -5.9237  C.ar    1  <O>11      -0.0568
   7 C6        0.7874    -9.7806    -5.7650  C.ar    1  <O>11      -0.0264
   8 C7        1.4920    -9.0100    -6.8090  C.3     1  <O>11      -0.0205
   9 C8        0.5390    -8.7270    -7.9590  C.3     1  <O>11      -0.0040
  10 C9        1.2380    -7.9630    -8.9950  C.ar    1  <O>11       0.0708
  11 N2        0.8300    -6.7273    -9.3873  N.ar    1  <O>11      -0.1777
  12 N3        1.8116    -6.3585   -10.2615  N.ar    1  <O>11      -0.2767
  13 C10       2.6921    -7.4159   -10.5133  C.ar    1  <O>11       0.0660
  14 C11       3.7395    -7.6154   -11.4369  C.ar    1  <O>11      -0.0356
  15 C12       4.4824    -8.8183   -11.4059  C.ar    1  <O>11      -0.0490
  16 C13       4.1261    -9.8038   -10.4722  C.ar    1  <O>11       0.0212
  17 C14       4.8564   -10.9550   -10.4409  C.ar    1  <O>11       0.1794
  18 N4        5.9533   -11.1322    -9.6747  N.ar    1  <O>11      -0.1084
  19 N5        6.3177   -12.4355    -9.8519  N.ar    1  <O>11      -0.0229
  20 N6        5.4999   -12.9469   -10.7574  N.ar    1  <O>11      -0.0464
  21 N7        4.5770   -12.0275   -11.1550  N.ar    1  <O>11      -0.2388
  22 C15       3.0547    -9.6275    -9.5859  C.ar    1  <O>11      -0.0401
  23 C16       2.3251    -8.4290    -9.6239  C.ar    1  <O>11       0.0233
  24 H1        3.3392    -9.2907    -5.1550  H       1  <O>11       0.1423
  25 H2        3.3420   -10.0924    -3.5807  H       1  <O>11       0.1423
  26 H3        2.3410    -9.5870    -7.1750  H       1  <O>11       0.0317
  27 H4        1.8450    -8.0680    -6.3890  H       1  <O>11       0.0317
  28 H5       -0.3110    -8.1500    -7.5940  H       1  <O>11       0.0332
  29 H6        0.1870    -9.6690    -8.3780  H       1  <O>11       0.0332
  30 H7        1.8849    -5.4370   -10.6689  H       1  <O>11       0.1889
  31 H8        3.8295   -12.0914   -11.8306  H       1  <O>11       0.1923
  32 H9        1.3082   -11.1481    -2.7415  H       1  <O>11       0.0636
  33 H10      -1.0275   -11.7615    -3.0324  H       1  <O>11       0.0618
  34 H11      -2.2132   -11.1207    -5.0562  H       1  <O>11       0.0618
  35 H12      -1.0552    -9.8628    -6.7825  H       1  <O>11       0.0621
  36 H13       3.9626    -6.8864   -12.1325  H       1  <O>11       0.0639
  37 H14       5.2698    -8.9683   -12.0560  H       1  <O>11       0.0625
  38 H15       2.8052   -10.3697    -8.9137  H       1  <O>11       0.0632
@<TRIPOS>BOND
     1     1     2    1
     2     2     3   ar
     3     3     4   ar
     4     4     5   ar
     5     5     6   ar
     6     6     7   ar
     7     2     7   ar
     8     7     8    1
     9     8     9    1
    10     9    10    1
    11    10    11   ar
    12    11    12   ar
    13    12    13   ar
    14    13    14   ar
    15    14    15   ar
    16    15    16   ar
    17    16    17    1
    18    17    18   ar
    19    18    19   ar
    20    19    20   ar
    21    20    21   ar
    22    17    21   ar
    23    16    22   ar
    24    22    23   ar
    25    10    23   ar
    26    13    23   ar
    27     1    24    1
    28     1    25    1
    29     8    26    1
    30     8    27    1
    31     9    28    1
    32     9    29    1
    33    12    30    1
    34    21    31    1
    35     3    32    1
    36     4    33    1
    37     5    34    1
    38     6    35    1
    39    14    36    1
    40    15    37    1
    41    22    38    1
@<TRIPOS>MOLECULE
mol73_1_14
 38 41 0 0 0
SMALL
USER_CHARGES
****
VDW energy = 68.41
@<TRIPOS>ATOM
   1 N1        2.8495    -9.8143    -4.4295  N.pl3   1  <O>11      -0.3577
   2 C1        1.4617   -10.1611    -4.6036  C.ar    1  <O>11       0.0278
   3 C2        0.8050   -10.8783    -3.6012  C.ar    1  <O>11      -0.0408
   4 C3       -0.5391   -11.2290    -3.7692  C.ar    1  <O>11      -0.0600
   5 C4       -1.2224   -10.8607    -4.9311  C.ar    1  <O>11      -0.0614
   6 C5       -0.5527   -10.1366    -5.9237  C.ar    1  <O>11      -0.0568
   7 C6        0.7874    -9.7806    -5.7650  C.ar    1  <O>11      -0.0264
   8 C7        1.4920    -9.0100    -6.8090  C.3     1  <O>11      -0.0205
   9 C8        0.5390    -8.7270    -7.9590  C.3     1  <O>11      -0.0040
  10 C9        1.2380    -7.9630    -8.9950  C.ar    1  <O>11       0.0708
  11 N2        0.8300    -6.7273    -9.3873  N.ar    1  <O>11      -0.1777
  12 N3        1.8116    -6.3585   -10.2615  N.ar    1  <O>11      -0.2767
  13 C10       2.6921    -7.4159   -10.5133  C.ar    1  <O>11       0.0660
  14 C11       3.7395    -7.6154   -11.4369  C.ar    1  <O>11      -0.0356
  15 C12       4.4824    -8.8183   -11.4059  C.ar    1  <O>11      -0.0490
  16 C13       4.1261    -9.8038   -10.4722  C.ar    1  <O>11       0.0212
  17 C14       4.8564   -10.9550   -10.4409  C.ar    1  <O>11       0.1794
  18 N4        4.3392   -12.1829   -10.6567  N.ar    1  <O>11      -0.1084
  19 N5        5.4039   -13.0367   -10.6431  N.ar    1  <O>11      -0.0229
  20 N6        6.4732   -12.3182   -10.3422  N.ar    1  <O>11      -0.0464
  21 N7        6.1511   -11.0029   -10.1961  N.ar    1  <O>11      -0.2388
  22 C15       3.0547    -9.6275    -9.5859  C.ar    1  <O>11      -0.0401
  23 C16       2.3251    -8.4290    -9.6239  C.ar    1  <O>11       0.0233
  24 H1        3.3392    -9.2907    -5.1550  H       1  <O>11       0.1423
  25 H2        3.3420   -10.0924    -3.5807  H       1  <O>11       0.1423
  26 H3        2.3410    -9.5870    -7.1750  H       1  <O>11       0.0317
  27 H4        1.8450    -8.0680    -6.3890  H       1  <O>11       0.0317
  28 H5       -0.3110    -8.1500    -7.5940  H       1  <O>11       0.0332
  29 H6        0.1870    -9.6690    -8.3780  H       1  <O>11       0.0332
  30 H7        1.8849    -5.4370   -10.6689  H       1  <O>11       0.1889
  31 H8        6.7227   -10.2052    -9.9590  H       1  <O>11       0.1923
  32 H9        1.3082   -11.1481    -2.7415  H       1  <O>11       0.0636
  33 H10      -1.0275   -11.7615    -3.0324  H       1  <O>11       0.0618
  34 H11      -2.2132   -11.1207    -5.0562  H       1  <O>11       0.0618
  35 H12      -1.0552    -9.8628    -6.7825  H       1  <O>11       0.0621
  36 H13       3.9626    -6.8864   -12.1325  H       1  <O>11       0.0639
  37 H14       5.2698    -8.9683   -12.0560  H       1  <O>11       0.0625
  38 H15       2.8052   -10.3697    -8.9137  H       1  <O>11       0.0632
@<TRIPOS>BOND
     1     1     2    1
     2     2     3   ar
     3     3     4   ar
     4     4     5   ar
     5     5     6   ar
     6     6     7   ar
     7     2     7   ar
     8     7     8    1
     9     8     9    1
    10     9    10    1
    11    10    11   ar
    12    11    12   ar
    13    12    13   ar
    14    13    14   ar
    15    14    15   ar
    16    15    16   ar
    17    16    17    1
    18    17    18   ar
    19    18    19   ar
    20    19    20   ar
    21    20    21   ar
    22    17    21   ar
    23    16    22   ar
    24    22    23   ar
    25    10    23   ar
    26    13    23   ar
    27     1    24    1
    28     1    25    1
    29     8    26    1
    30     8    27    1
    31     9    28    1
    32     9    29    1
    33    12    30    1
    34    21    31    1
    35     3    32    1
    36     4    33    1
    37     5    34    1
    38     6    35    1
    39    14    36    1
    40    15    37    1
    41    22    38    1
@<TRIPOS>MOLECULE
mol73_1_15
 38 41 0 0 0
SMALL
USER_CHARGES
****
VDW energy = 68.44
@<TRIPOS>ATOM
   1 N1        2.8495    -9.8143    -4.4295  N.pl3   1  <O>11      -0.3577
   2 C1        1.4617   -10.1611    -4.6036  C.ar    1  <O>11       0.0278
   3 C2        0.8050   -10.8783    -3.6012  C.ar    1  <O>11      -0.0408
   4 C3       -0.5391   -11.2290    -3.7692  C.ar    1  <O>11      -0.0600
   5 C4       -1.2224   -10.8607    -4.9311  C.ar    1  <O>11      -0.0614
   6 C5       -0.5527   -10.1366    -5.9237  C.ar    1  <O>11      -0.0568
   7 C6        0.7874    -9.7806    -5.7650  C.ar    1  <O>11      -0.0264
   8 C7        1.4920    -9.0100    -6.8090  C.3     1  <O>11      -0.0205
   9 C8        0.5390    -8.7270    -7.9590  C.3     1  <O>11      -0.0040
  10 C9        1.2380    -7.9630    -8.9950  C.ar    1  <O>11       0.0708
  11 N2        0.8300    -6.7273    -9.3873  N.ar    1  <O>11      -0.1777
  12 N3        1.8116    -6.3585   -10.2615  N.ar    1  <O>11      -0.2767
  13 C10       2.6921    -7.4159   -10.5133  C.ar    1  <O>11       0.0660
  14 C11       3.7395    -7.6154   -11.4369  C.ar    1  <O>11      -0.0356
  15 C12       4.4824    -8.8183   -11.4059  C.ar    1  <O>11      -0.0490
  16 C13       4.1261    -9.8038   -10.4722  C.ar    1  <O>11       0.0212
  17 C14       4.8564   -10.9550   -10.4409  C.ar    1  <O>11       0.1794
  18 N4        5.5391   -11.3864    -9.3595  N.ar    1  <O>11      -0.1084
  19 N5        6.0371   -12.6095    -9.7042  N.ar    1  <O>11      -0.0229
  20 N6        5.7149   -12.8163   -10.9706  N.ar    1  <O>11      -0.0464
  21 N7        4.9811   -11.7795   -11.4622  N.ar    1  <O>11      -0.2388
  22 C15       3.0547    -9.6275    -9.5859  C.ar    1  <O>11      -0.0401
  23 C16       2.3251    -8.4290    -9.6239  C.ar    1  <O>11       0.0233
  24 H1        3.3392    -9.2907    -5.1550  H       1  <O>11       0.1423
  25 H2        3.3420   -10.0924    -3.5807  H       1  <O>11       0.1423
  26 H3        2.3410    -9.5870    -7.1750  H       1  <O>11       0.0317
  27 H4        1.8450    -8.0680    -6.3890  H       1  <O>11       0.0317
  28 H5       -0.3110    -8.1500    -7.5940  H       1  <O>11       0.0332
  29 H6        0.1870    -9.6690    -8.3780  H       1  <O>11       0.0332
  30 H7        1.8849    -5.4370   -10.6689  H       1  <O>11       0.1889
  31 H8        4.5938   -11.6215   -12.3810  H       1  <O>11       0.1923
  32 H9        1.3082   -11.1481    -2.7415  H       1  <O>11       0.0636
  33 H10      -1.0275   -11.7615    -3.0324  H       1  <O>11       0.0618
  34 H11      -2.2132   -11.1207    -5.0562  H       1  <O>11       0.0618
  35 H12      -1.0552    -9.8628    -6.7825  H       1  <O>11       0.0621
  36 H13       3.9626    -6.8864   -12.1325  H       1  <O>11       0.0639
  37 H14       5.2698    -8.9683   -12.0560  H       1  <O>11       0.0625
  38 H15       2.8052   -10.3697    -8.9137  H       1  <O>11       0.0632
@<TRIPOS>BOND
     1     1     2    1
     2     2     3   ar
     3     3     4   ar
     4     4     5   ar
     5     5     6   ar
     6     6     7   ar
     7     2     7   ar
     8     7     8    1
     9     8     9    1
    10     9    10    1
    11    10    11   ar
    12    11    12   ar
    13    12    13   ar
    14    13    14   ar
    15    14    15   ar
    16    15    16   ar
    17    16    17    1
    18    17    18   ar
    19    18    19   ar
    20    19    20   ar
    21    20    21   ar
    22    17    21   ar
    23    16    22   ar
    24    22    23   ar
    25    10    23   ar
    26    13    23   ar
    27     1    24    1
    28     1    25    1
    29     8    26    1
    30     8    27    1
    31     9    28    1
    32     9    29    1
    33    12    30    1
    34    21    31    1
    35     3    32    1
    36     4    33    1
    37     5    34    1
    38     6    35    1
    39    14    36    1
    40    15    37    1
    41    22    38    1
@<TRIPOS>MOLECULE
mol73_1_16
 38 41 0 0 0
SMALL
USER_CHARGES
****
VDW energy = 68.61
@<TRIPOS>ATOM
   1 N1        2.8495    -9.8143    -4.4295  N.pl3   1  <O>11      -0.3577
   2 C1        1.4617   -10.1611    -4.6036  C.ar    1  <O>11       0.0278
   3 C2        0.8050   -10.8783    -3.6012  C.ar    1  <O>11      -0.0408
   4 C3       -0.5391   -11.2290    -3.7692  C.ar    1  <O>11      -0.0600
   5 C4       -1.2224   -10.8607    -4.9311  C.ar    1  <O>11      -0.0614
   6 C5       -0.5527   -10.1366    -5.9237  C.ar    1  <O>11      -0.0568
   7 C6        0.7874    -9.7806    -5.7650  C.ar    1  <O>11      -0.0264
   8 C7        1.4920    -9.0100    -6.8090  C.3     1  <O>11      -0.0205
   9 C8        1.3337    -7.5233    -6.5342  C.3     1  <O>11      -0.0040
  10 C9        2.0322    -6.7587    -7.5701  C.ar    1  <O>11       0.0708
  11 N2        3.0486    -5.9036    -7.2819  N.ar    1  <O>11      -0.1777
  12 N3        3.4634    -5.5129    -8.5225  N.ar    1  <O>11      -0.2767
  13 C10       2.6062    -5.9908    -9.5194  C.ar    1  <O>11       0.0660
  14 C11       2.4834    -5.7431   -10.9026  C.ar    1  <O>11      -0.0356
  15 C12       1.5080    -6.4369   -11.6557  C.ar    1  <O>11      -0.0490
  16 C13       0.6568    -7.3321   -10.9893  C.ar    1  <O>11       0.0212
  17 C14      -0.2720    -8.0063   -11.7257  C.ar    1  <O>11       0.1794
  18 N4       -0.4258    -7.8645   -13.0591  N.ar    1  <O>11      -0.1084
  19 N5       -1.3725    -8.7796   -13.4184  N.ar    1  <O>11      -0.0229
  20 N6       -1.7974    -9.3551   -12.3056  N.ar    1  <O>11      -0.0464
  21 N7       -1.1275    -8.8739   -11.2217  N.ar    1  <O>11      -0.2388
  22 C15       0.7450    -7.5436    -9.6065  C.ar    1  <O>11      -0.0401
  23 C16       1.7180    -6.8511    -8.8690  C.ar    1  <O>11       0.0233
  24 H1        3.3392    -9.2907    -5.1550  H       1  <O>11       0.1423
  25 H2        3.3420   -10.0924    -3.5807  H       1  <O>11       0.1423
  26 H3        1.0659    -9.2461    -7.7839  H       1  <O>11       0.0317
  27 H4        2.5505    -9.2707    -6.8006  H       1  <O>11       0.0317
  28 H5        1.7594    -7.2859    -5.5589  H       1  <O>11       0.0332
  29 H6        0.2757    -7.2639    -6.5429  H       1  <O>11       0.0332
  30 H7        4.2859    -4.9508    -8.6896  H       1  <O>11       0.1889
  31 H8       -1.2172    -9.0908   -10.2398  H       1  <O>11       0.1923
  32 H9        1.3082   -11.1481    -2.7415  H       1  <O>11       0.0636
  33 H10      -1.0275   -11.7615    -3.0324  H       1  <O>11       0.0618
  34 H11      -2.2132   -11.1207    -5.0562  H       1  <O>11       0.0618
  35 H12      -1.0552    -9.8628    -6.7825  H       1  <O>11       0.0621
  36 H13       3.1030    -5.0582   -11.3632  H       1  <O>11       0.0639
  37 H14       1.4238    -6.2881   -12.6734  H       1  <O>11       0.0625
  38 H15       0.1025    -8.2002    -9.1364  H       1  <O>11       0.0632
@<TRIPOS>BOND
     1     1     2    1
     2     2     3   ar
     3     3     4   ar
     4     4     5   ar
     5     5     6   ar
     6     6     7   ar
     7     2     7   ar
     8     7     8    1
     9     8     9    1
    10     9    10    1
    11    10    11   ar
    12    11    12   ar
    13    12    13   ar
    14    13    14   ar
    15    14    15   ar
    16    15    16   ar
    17    16    17    1
    18    17    18   ar
    19    18    19   ar
    20    19    20   ar
    21    20    21   ar
    22    17    21   ar
    23    16    22   ar
    24    22    23   ar
    25    10    23   ar
    26    13    23   ar
    27     1    24    1
    28     1    25    1
    29     8    26    1
    30     8    27    1
    31     9    28    1
    32     9    29    1
    33    12    30    1
    34    21    31    1
    35     3    32    1
    36     4    33    1
    37     5    34    1
    38     6    35    1
    39    14    36    1
    40    15    37    1
    41    22    38    1
@<TRIPOS>MOLECULE
mol73_1_17
 38 41 0 0 0
SMALL
USER_CHARGES
****
VDW energy = 70.92
@<TRIPOS>ATOM
   1 N1        2.8495    -9.8143    -4.4295  N.pl3   1  <O>11      -0.3577
   2 C1        1.4617   -10.1611    -4.6036  C.ar    1  <O>11       0.0278
   3 C2        0.8050   -10.8783    -3.6012  C.ar    1  <O>11      -0.0408
   4 C3       -0.5391   -11.2290    -3.7692  C.ar    1  <O>11      -0.0600
   5 C4       -1.2224   -10.8607    -4.9311  C.ar    1  <O>11      -0.0614
   6 C5       -0.5527   -10.1366    -5.9237  C.ar    1  <O>11      -0.0568
   7 C6        0.7874    -9.7806    -5.7650  C.ar    1  <O>11      -0.0264
   8 C7        1.4920    -9.0100    -6.8090  C.3     1  <O>11      -0.0205
   9 C8        1.9846    -7.6967    -6.2229  C.3     1  <O>11      -0.0040
  10 C9        2.6831    -6.9319    -7.2586  C.ar    1  <O>11       0.0708
  11 N2        2.8286    -7.3924    -8.5291  N.ar    1  <O>11      -0.1777
  12 N3        3.4216    -6.3355    -9.1577  N.ar    1  <O>11      -0.2767
  13 C10       3.7753    -5.3349    -8.2463  C.ar    1  <O>11       0.0660
  14 C11       4.5409    -4.1540    -8.3415  C.ar    1  <O>11      -0.0356
  15 C12       4.6804    -3.3154    -7.2113  C.ar    1  <O>11      -0.0490
  16 C13       4.0782    -3.7076    -6.0057  C.ar    1  <O>11       0.0212
  17 C14       4.2071    -2.8864    -4.9248  C.ar    1  <O>11       0.1794
  18 N4        3.3408    -1.8968    -4.6214  N.ar    1  <O>11      -0.1084
  19 N5        3.7640    -1.3929    -3.4256  N.ar    1  <O>11      -0.0229
  20 N6        4.8837    -2.0245    -3.1133  N.ar    1  <O>11      -0.0464
  21 N7        5.1918    -2.9627    -4.0514  N.ar    1  <O>11      -0.2388
  22 C15       3.3577    -4.9049    -5.8961  C.ar    1  <O>11      -0.0401
  23 C16       3.2239    -5.7289    -7.0246  C.ar    1  <O>11       0.0233
  24 H1        3.3392    -9.2907    -5.1550  H       1  <O>11       0.1423
  25 H2        3.3420   -10.0924    -3.5807  H       1  <O>11       0.1423
  26 H3        0.8084    -8.8059    -7.6328  H       1  <O>11       0.0317
  27 H4        2.3419    -9.5866    -7.1746  H       1  <O>11       0.0317
  28 H5        2.6684    -7.8997    -5.3984  H       1  <O>11       0.0332
  29 H6        1.1345    -7.1214    -5.8581  H       1  <O>11       0.0332
  30 H7        3.5800    -6.2905   -10.1543  H       1  <O>11       0.1889
  31 H8        5.9732    -3.5984    -4.1180  H       1  <O>11       0.1923
  32 H9        1.3082   -11.1481    -2.7415  H       1  <O>11       0.0636
  33 H10      -1.0275   -11.7615    -3.0324  H       1  <O>11       0.0618
  34 H11      -2.2132   -11.1207    -5.0562  H       1  <O>11       0.0618
  35 H12      -1.0552    -9.8628    -6.7825  H       1  <O>11       0.0621
  36 H13       4.9975    -3.9030    -9.2324  H       1  <O>11       0.0639
  37 H14       5.2136    -2.4339    -7.2718  H       1  <O>11       0.0625
  38 H15       2.9309    -5.1773    -4.9969  H       1  <O>11       0.0632
@<TRIPOS>BOND
     1     1     2    1
     2     2     3   ar
     3     3     4   ar
     4     4     5   ar
     5     5     6   ar
     6     6     7   ar
     7     2     7   ar
     8     7     8    1
     9     8     9    1
    10     9    10    1
    11    10    11   ar
    12    11    12   ar
    13    12    13   ar
    14    13    14   ar
    15    14    15   ar
    16    15    16   ar
    17    16    17    1
    18    17    18   ar
    19    18    19   ar
    20    19    20   ar
    21    20    21   ar
    22    17    21   ar
    23    16    22   ar
    24    22    23   ar
    25    10    23   ar
    26    13    23   ar
    27     1    24    1
    28     1    25    1
    29     8    26    1
    30     8    27    1
    31     9    28    1
    32     9    29    1
    33    12    30    1
    34    21    31    1
    35     3    32    1
    36     4    33    1
    37     5    34    1
    38     6    35    1
    39    14    36    1
    40    15    37    1
    41    22    38    1
@<TRIPOS>MOLECULE
mol73_1_18
 38 41 0 0 0
SMALL
USER_CHARGES
****
VDW energy = 71.05
@<TRIPOS>ATOM
   1 N1        2.8495    -9.8143    -4.4295  N.pl3   1  <O>11      -0.3577
   2 C1        1.4617   -10.1611    -4.6036  C.ar    1  <O>11       0.0278
   3 C2        0.8050   -10.8783    -3.6012  C.ar    1  <O>11      -0.0408
   4 C3       -0.5391   -11.2290    -3.7692  C.ar    1  <O>11      -0.0600
   5 C4       -1.2224   -10.8607    -4.9311  C.ar    1  <O>11      -0.0614
   6 C5       -0.5527   -10.1366    -5.9237  C.ar    1  <O>11      -0.0568
   7 C6        0.7874    -9.7806    -5.7650  C.ar    1  <O>11      -0.0264
   8 C7        1.4920    -9.0100    -6.8090  C.3     1  <O>11      -0.0205
   9 C8        0.5390    -8.7270    -7.9590  C.3     1  <O>11      -0.0040
  10 C9        1.2380    -7.9630    -8.9950  C.ar    1  <O>11       0.0708
  11 N2        1.2658    -6.6041    -9.0024  N.ar    1  <O>11      -0.1777
  12 N3        2.1001    -6.3339   -10.0487  N.ar    1  <O>11      -0.2767
  13 C10       2.4261    -7.4977   -10.7531  C.ar    1  <O>11       0.0660
  14 C11       3.0888    -7.7471   -11.9731  C.ar    1  <O>11      -0.0356
  15 C12       3.2961    -9.0796   -12.3991  C.ar    1  <O>11      -0.0490
  16 C13       2.7965   -10.1238   -11.6053  C.ar    1  <O>11       0.0212
  17 C14       3.0125   -11.4057   -12.0174  C.ar    1  <O>11       0.1794
  18 N4        3.6782   -11.7339   -13.1447  N.ar    1  <O>11      -0.1084
  19 N5        3.7660   -13.0959   -13.1353  N.ar    1  <O>11      -0.0229
  20 N6        3.0934   -13.5203   -12.0780  N.ar    1  <O>11      -0.0464
  21 N7        2.5963   -12.4725   -11.3639  N.ar    1  <O>11      -0.2388
  22 C15       2.0952    -9.8768   -10.4172  C.ar    1  <O>11      -0.0401
  23 C16       1.8967    -8.5505   -10.0026  C.ar    1  <O>11       0.0233
  24 H1        3.3392    -9.2907    -5.1550  H       1  <O>11       0.1423
  25 H2        3.3420   -10.0924    -3.5807  H       1  <O>11       0.1423
  26 H3        2.3410    -9.5870    -7.1750  H       1  <O>11       0.0317
  27 H4        1.8450    -8.0680    -6.3890  H       1  <O>11       0.0317
  28 H5       -0.3110    -8.1500    -7.5940  H       1  <O>11       0.0332
  29 H6        0.1870    -9.6690    -8.3780  H       1  <O>11       0.0332
  30 H7        2.4346    -5.4084   -10.2769  H       1  <O>11       0.1889
  31 H8        2.0364   -12.4518   -10.5241  H       1  <O>11       0.1923
  32 H9        1.3082   -11.1481    -2.7415  H       1  <O>11       0.0636
  33 H10      -1.0275   -11.7615    -3.0324  H       1  <O>11       0.0618
  34 H11      -2.2132   -11.1207    -5.0562  H       1  <O>11       0.0618
  35 H12      -1.0552    -9.8628    -6.7825  H       1  <O>11       0.0621
  36 H13       3.4210    -6.9604   -12.5525  H       1  <O>11       0.0639
  37 H14       3.8038    -9.2799   -13.2750  H       1  <O>11       0.0625
  38 H15       1.7292   -10.6604    -9.8540  H       1  <O>11       0.0632
@<TRIPOS>BOND
     1     1     2    1
     2     2     3   ar
     3     3     4   ar
     4     4     5   ar
     5     5     6   ar
     6     6     7   ar
     7     2     7   ar
     8     7     8    1
     9     8     9    1
    10     9    10    1
    11    10    11   ar
    12    11    12   ar
    13    12    13   ar
    14    13    14   ar
    15    14    15   ar
    16    15    16   ar
    17    16    17    1
    18    17    18   ar
    19    18    19   ar
    20    19    20   ar
    21    20    21   ar
    22    17    21   ar
    23    16    22   ar
    24    22    23   ar
    25    10    23   ar
    26    13    23   ar
    27     1    24    1
    28     1    25    1
    29     8    26    1
    30     8    27    1
    31     9    28    1
    32     9    29    1
    33    12    30    1
    34    21    31    1
    35     3    32    1
    36     4    33    1
    37     5    34    1
    38     6    35    1
    39    14    36    1
    40    15    37    1
    41    22    38    1
@<TRIPOS>MOLECULE
mol73_1_19
 38 41 0 0 0
SMALL
USER_CHARGES
****
VDW energy = 71.07
@<TRIPOS>ATOM
   1 N1        2.8495    -9.8143    -4.4295  N.pl3   1  <O>11      -0.3577
   2 C1        1.4617   -10.1611    -4.6036  C.ar    1  <O>11       0.0278
   3 C2        0.8050   -10.8783    -3.6012  C.ar    1  <O>11      -0.0408
   4 C3       -0.5391   -11.2290    -3.7692  C.ar    1  <O>11      -0.0600
   5 C4       -1.2224   -10.8607    -4.9311  C.ar    1  <O>11      -0.0614
   6 C5       -0.5527   -10.1366    -5.9237  C.ar    1  <O>11      -0.0568
   7 C6        0.7874    -9.7806    -5.7650  C.ar    1  <O>11      -0.0264
   8 C7        1.4920    -9.0100    -6.8090  C.3     1  <O>11      -0.0205
   9 C8        2.1332    -9.9685    -7.7994  C.3     1  <O>11      -0.0040
  10 C9        2.8327    -9.2042    -8.8349  C.ar    1  <O>11       0.0708
  11 N2        2.5107    -9.2999   -10.1519  N.ar    1  <O>11      -0.1777
  12 N3        3.3166    -8.3556   -10.7199  N.ar    1  <O>11      -0.2767
  13 C10       4.2180    -7.8293    -9.7886  C.ar    1  <O>11       0.0660
  14 C11       5.3417    -6.9824    -9.8884  C.ar    1  <O>11      -0.0356
  15 C12       6.0354    -6.5966    -8.7180  C.ar    1  <O>11      -0.0490
  16 C13       5.6034    -7.1048    -7.4830  C.ar    1  <O>11       0.0212
  17 C14       6.2703    -6.7170    -6.3585  C.ar    1  <O>11       0.1794
  18 N4        7.3245    -5.8741    -6.3593  N.ar    1  <O>11      -0.1084
  19 N5        7.6267    -5.6638    -5.0450  N.ar    1  <O>11      -0.0229
  20 N6        6.8205    -6.4348    -4.3338  N.ar    1  <O>11      -0.0464
  21 N7        5.9640    -7.1201    -5.1411  N.ar    1  <O>11      -0.2388
  22 C15       4.5170    -7.9851    -7.3867  C.ar    1  <O>11      -0.0401
  23 C16       3.8343    -8.3600    -8.5545  C.ar    1  <O>11       0.0233
  24 H1        3.3392    -9.2907    -5.1550  H       1  <O>11       0.1423
  25 H2        3.3420   -10.0924    -3.5807  H       1  <O>11       0.1423
  26 H3        2.2643    -8.3952    -6.3471  H       1  <O>11       0.0317
  27 H4        0.7801    -8.3703    -7.3308  H       1  <O>11       0.0317
  28 H5        1.3616   -10.5843    -8.2620  H       1  <O>11       0.0332
  29 H6        2.8445   -10.6071    -7.2769  H       1  <O>11       0.0332
  30 H7        3.2613    -8.0785   -11.6897  H       1  <O>11       0.1889
  31 H8        5.2422    -7.7906    -4.9206  H       1  <O>11       0.1923
  32 H9        1.3082   -11.1481    -2.7415  H       1  <O>11       0.0636
  33 H10      -1.0275   -11.7615    -3.0324  H       1  <O>11       0.0618
  34 H11      -2.2132   -11.1207    -5.0562  H       1  <O>11       0.0618
  35 H12      -1.0552    -9.8628    -6.7825  H       1  <O>11       0.0621
  36 H13       5.6562    -6.6457   -10.8118  H       1  <O>11       0.0639
  37 H14       6.8422    -5.9552    -8.7708  H       1  <O>11       0.0625
  38 H15       4.2225    -8.3531    -6.4686  H       1  <O>11       0.0632
@<TRIPOS>BOND
     1     1     2    1
     2     2     3   ar
     3     3     4   ar
     4     4     5   ar
     5     5     6   ar
     6     6     7   ar
     7     2     7   ar
     8     7     8    1
     9     8     9    1
    10     9    10    1
    11    10    11   ar
    12    11    12   ar
    13    12    13   ar
    14    13    14   ar
    15    14    15   ar
    16    15    16   ar
    17    16    17    1
    18    17    18   ar
    19    18    19   ar
    20    19    20   ar
    21    20    21   ar
    22    17    21   ar
    23    16    22   ar
    24    22    23   ar
    25    10    23   ar
    26    13    23   ar
    27     1    24    1
    28     1    25    1
    29     8    26    1
    30     8    27    1
    31     9    28    1
    32     9    29    1
    33    12    30    1
    34    21    31    1
    35     3    32    1
    36     4    33    1
    37     5    34    1
    38     6    35    1
    39    14    36    1
    40    15    37    1
    41    22    38    1
@<TRIPOS>MOLECULE
mol73_1_20
 38 41 0 0 0
SMALL
USER_CHARGES
****
VDW energy = 71.07
@<TRIPOS>ATOM
   1 N1        2.8495    -9.8143    -4.4295  N.pl3   1  <O>11      -0.3577
   2 C1        1.4617   -10.1611    -4.6036  C.ar    1  <O>11       0.0278
   3 C2        0.8050   -10.8783    -3.6012  C.ar    1  <O>11      -0.0408
   4 C3       -0.5391   -11.2290    -3.7692  C.ar    1  <O>11      -0.0600
   5 C4       -1.2224   -10.8607    -4.9311  C.ar    1  <O>11      -0.0614
   6 C5       -0.5527   -10.1366    -5.9237  C.ar    1  <O>11      -0.0568
   7 C6        0.7874    -9.7806    -5.7650  C.ar    1  <O>11      -0.0264
   8 C7        1.4920    -9.0100    -6.8090  C.3     1  <O>11      -0.0205
   9 C8        0.5390    -8.7270    -7.9590  C.3     1  <O>11      -0.0040
  10 C9        1.2380    -7.9630    -8.9950  C.ar    1  <O>11       0.0708
  11 N2        1.9043    -8.5632   -10.0163  N.ar    1  <O>11      -0.1777
  12 N3        2.2907    -7.4992   -10.7794  N.ar    1  <O>11      -0.2767
  13 C10       2.0094    -6.2866   -10.1411  C.ar    1  <O>11       0.0660
  14 C11       2.3479    -4.9429   -10.4050  C.ar    1  <O>11      -0.0356
  15 C12       1.8593    -3.9179    -9.5620  C.ar    1  <O>11      -0.0490
  16 C13       1.0757    -4.2761    -8.4540  C.ar    1  <O>11       0.0212
  17 C14       0.5981    -3.2802    -7.6543  C.ar    1  <O>11       0.1794
  18 N4        0.8345    -1.9675    -7.8611  N.ar    1  <O>11      -0.1084
  19 N5        0.1019    -1.3097    -6.9159  N.ar    1  <O>11      -0.0229
  20 N6       -0.4583    -2.2310    -6.1493  N.ar    1  <O>11      -0.0464
  21 N7       -0.1487    -3.4831    -6.5868  N.ar    1  <O>11      -0.2388
  22 C15       0.7785    -5.6145    -8.1622  C.ar    1  <O>11      -0.0401
  23 C16       1.2670    -6.6238    -9.0066  C.ar    1  <O>11       0.0233
  24 H1        3.3392    -9.2907    -5.1550  H       1  <O>11       0.1423
  25 H2        3.3420   -10.0924    -3.5807  H       1  <O>11       0.1423
  26 H3        2.3410    -9.5870    -7.1750  H       1  <O>11       0.0317
  27 H4        1.8450    -8.0680    -6.3890  H       1  <O>11       0.0317
  28 H5       -0.3110    -8.1500    -7.5940  H       1  <O>11       0.0332
  29 H6        0.1870    -9.6690    -8.3780  H       1  <O>11       0.0332
  30 H7        2.7234    -7.5862   -11.6881  H       1  <O>11       0.1889
  31 H8       -0.4014    -4.3908    -6.2243  H       1  <O>11       0.1923
  32 H9        1.3082   -11.1481    -2.7415  H       1  <O>11       0.0636
  33 H10      -1.0275   -11.7615    -3.0324  H       1  <O>11       0.0618
  34 H11      -2.2132   -11.1207    -5.0562  H       1  <O>11       0.0618
  35 H12      -1.0552    -9.8628    -6.7825  H       1  <O>11       0.0621
  36 H13       2.9497    -4.7088   -11.2100  H       1  <O>11       0.0639
  37 H14       2.0744    -2.9276    -9.7573  H       1  <O>11       0.0625
  38 H15       0.2076    -5.8549    -7.3369  H       1  <O>11       0.0632
@<TRIPOS>BOND
     1     1     2    1
     2     2     3   ar
     3     3     4   ar
     4     4     5   ar
     5     5     6   ar
     6     6     7   ar
     7     2     7   ar
     8     7     8    1
     9     8     9    1
    10     9    10    1
    11    10    11   ar
    12    11    12   ar
    13    12    13   ar
    14    13    14   ar
    15    14    15   ar
    16    15    16   ar
    17    16    17    1
    18    17    18   ar
    19    18    19   ar
    20    19    20   ar
    21    20    21   ar
    22    17    21   ar
    23    16    22   ar
    24    22    23   ar
    25    10    23   ar
    26    13    23   ar
    27     1    24    1
    28     1    25    1
    29     8    26    1
    30     8    27    1
    31     9    28    1
    32     9    29    1
    33    12    30    1
    34    21    31    1
    35     3    32    1
    36     4    33    1
    37     5    34    1
    38     6    35    1
    39    14    36    1
    40    15    37    1
    41    22    38    1
@<TRIPOS>MOLECULE
mol73_1_21
 38 41 0 0 0
SMALL
USER_CHARGES
****
VDW energy = 72.13
@<TRIPOS>ATOM
   1 N1        2.8495    -9.8143    -4.4295  N.pl3   1  <O>11      -0.3577
   2 C1        1.4617   -10.1611    -4.6036  C.ar    1  <O>11       0.0278
   3 C2        0.8050   -10.8783    -3.6012  C.ar    1  <O>11      -0.0408
   4 C3       -0.5391   -11.2290    -3.7692  C.ar    1  <O>11      -0.0600
   5 C4       -1.2224   -10.8607    -4.9311  C.ar    1  <O>11      -0.0614
   6 C5       -0.5527   -10.1366    -5.9237  C.ar    1  <O>11      -0.0568
   7 C6        0.7874    -9.7806    -5.7650  C.ar    1  <O>11      -0.0264
   8 C7        1.4920    -9.0100    -6.8090  C.3     1  <O>11      -0.0205
   9 C8        1.9846    -7.6967    -6.2229  C.3     1  <O>11      -0.0040
  10 C9        2.6831    -6.9319    -7.2586  C.ar    1  <O>11       0.0708
  11 N2        2.8286    -7.3924    -8.5291  N.ar    1  <O>11      -0.1777
  12 N3        3.4216    -6.3355    -9.1577  N.ar    1  <O>11      -0.2767
  13 C10       3.7753    -5.3349    -8.2463  C.ar    1  <O>11       0.0660
  14 C11       4.5409    -4.1540    -8.3415  C.ar    1  <O>11      -0.0356
  15 C12       4.6804    -3.3154    -7.2113  C.ar    1  <O>11      -0.0490
  16 C13       4.0782    -3.7076    -6.0057  C.ar    1  <O>11       0.0212
  17 C14       4.2071    -2.8864    -4.9248  C.ar    1  <O>11       0.1794
  18 N4        4.7894    -3.2530    -3.7637  N.ar    1  <O>11      -0.1084
  19 N5        4.8110    -2.1269    -2.9927  N.ar    1  <O>11      -0.0229
  20 N6        4.1808    -1.1813    -3.6702  N.ar    1  <O>11      -0.0464
  21 N7        3.7778    -1.6403    -4.8876  N.ar    1  <O>11      -0.2388
  22 C15       3.3577    -4.9049    -5.8961  C.ar    1  <O>11      -0.0401
  23 C16       3.2239    -5.7289    -7.0246  C.ar    1  <O>11       0.0233
  24 H1        3.3392    -9.2907    -5.1550  H       1  <O>11       0.1423
  25 H2        3.3420   -10.0924    -3.5807  H       1  <O>11       0.1423
  26 H3        0.8084    -8.8059    -7.6328  H       1  <O>11       0.0317
  27 H4        2.3419    -9.5866    -7.1746  H       1  <O>11       0.0317
  28 H5        2.6684    -7.8997    -5.3984  H       1  <O>11       0.0332
  29 H6        1.1345    -7.1214    -5.8581  H       1  <O>11       0.0332
  30 H7        3.5800    -6.2905   -10.1543  H       1  <O>11       0.1889
  31 H8        3.2692    -1.1835    -5.6305  H       1  <O>11       0.1923
  32 H9        1.3082   -11.1481    -2.7415  H       1  <O>11       0.0636
  33 H10      -1.0275   -11.7615    -3.0324  H       1  <O>11       0.0618
  34 H11      -2.2132   -11.1207    -5.0562  H       1  <O>11       0.0618
  35 H12      -1.0552    -9.8628    -6.7825  H       1  <O>11       0.0621
  36 H13       4.9975    -3.9030    -9.2324  H       1  <O>11       0.0639
  37 H14       5.2136    -2.4339    -7.2718  H       1  <O>11       0.0625
  38 H15       2.9309    -5.1773    -4.9969  H       1  <O>11       0.0632
@<TRIPOS>BOND
     1     1     2    1
     2     2     3   ar
     3     3     4   ar
     4     4     5   ar
     5     5     6   ar
     6     6     7   ar
     7     2     7   ar
     8     7     8    1
     9     8     9    1
    10     9    10    1
    11    10    11   ar
    12    11    12   ar
    13    12    13   ar
    14    13    14   ar
    15    14    15   ar
    16    15    16   ar
    17    16    17    1
    18    17    18   ar
    19    18    19   ar
    20    19    20   ar
    21    20    21   ar
    22    17    21   ar
    23    16    22   ar
    24    22    23   ar
    25    10    23   ar
    26    13    23   ar
    27     1    24    1
    28     1    25    1
    29     8    26    1
    30     8    27    1
    31     9    28    1
    32     9    29    1
    33    12    30    1
    34    21    31    1
    35     3    32    1
    36     4    33    1
    37     5    34    1
    38     6    35    1
    39    14    36    1
    40    15    37    1
    41    22    38    1
@<TRIPOS>MOLECULE
mol73_1_22
 38 41 0 0 0
SMALL
USER_CHARGES
****
VDW energy = 72.47
@<TRIPOS>ATOM
   1 N1        2.8495    -9.8143    -4.4295  N.pl3   1  <O>11      -0.3577
   2 C1        1.4617   -10.1611    -4.6036  C.ar    1  <O>11       0.0278
   3 C2        0.8050   -10.8783    -3.6012  C.ar    1  <O>11      -0.0408
   4 C3       -0.5391   -11.2290    -3.7692  C.ar    1  <O>11      -0.0600
   5 C4       -1.2224   -10.8607    -4.9311  C.ar    1  <O>11      -0.0614
   6 C5       -0.5527   -10.1366    -5.9237  C.ar    1  <O>11      -0.0568
   7 C6        0.7874    -9.7806    -5.7650  C.ar    1  <O>11      -0.0264
   8 C7        1.4920    -9.0100    -6.8090  C.3     1  <O>11      -0.0205
   9 C8        1.9846    -7.6967    -6.2229  C.3     1  <O>11      -0.0040
  10 C9        2.6831    -6.9319    -7.2586  C.ar    1  <O>11       0.0708
  11 N2        3.9873    -6.5685    -7.1392  N.ar    1  <O>11      -0.1777
  12 N3        4.2427    -5.9914    -8.3498  N.ar    1  <O>11      -0.2767
  13 C10       3.0742    -5.8612    -9.1078  C.ar    1  <O>11       0.0660
  14 C11       2.7616    -5.1999   -10.3139  C.ar    1  <O>11      -0.0356
  15 C12       1.4562    -5.2968   -10.8491  C.ar    1  <O>11      -0.0490
  16 C13       0.4904    -6.0242   -10.1362  C.ar    1  <O>11       0.0212
  17 C14      -0.7620    -6.1232   -10.6664  C.ar    1  <O>11       0.1794
  18 N4       -1.1523    -7.1095   -11.5011  N.ar    1  <O>11      -0.1084
  19 N5       -2.4853    -6.9057   -11.7114  N.ar    1  <O>11      -0.0229
  20 N6       -2.8106    -5.7883   -11.0822  N.ar    1  <O>11      -0.0464
  21 N7       -1.7363    -5.2680   -10.4264  N.ar    1  <O>11      -0.2388
  22 C15       0.7861    -6.6416    -8.9130  C.ar    1  <O>11      -0.0401
  23 C16       2.0855    -6.5406    -8.3918  C.ar    1  <O>11       0.0233
  24 H1        3.3392    -9.2907    -5.1550  H       1  <O>11       0.1423
  25 H2        3.3420   -10.0924    -3.5807  H       1  <O>11       0.1423
  26 H3        0.8084    -8.8059    -7.6328  H       1  <O>11       0.0317
  27 H4        2.3419    -9.5866    -7.1746  H       1  <O>11       0.0317
  28 H5        2.6684    -7.8997    -5.3984  H       1  <O>11       0.0332
  29 H6        1.1345    -7.1214    -5.8581  H       1  <O>11       0.0332
  30 H7        5.1616    -5.6994    -8.6511  H       1  <O>11       0.1889
  31 H8       -1.6440    -4.4306    -9.8701  H       1  <O>11       0.1923
  32 H9        1.3082   -11.1481    -2.7415  H       1  <O>11       0.0636
  33 H10      -1.0275   -11.7615    -3.0324  H       1  <O>11       0.0618
  34 H11      -2.2132   -11.1207    -5.0562  H       1  <O>11       0.0618
  35 H12      -1.0552    -9.8628    -6.7825  H       1  <O>11       0.0621
  36 H13       3.4827    -4.6474   -10.8038  H       1  <O>11       0.0639
  37 H14       1.2187    -4.8424   -11.7448  H       1  <O>11       0.0625
  38 H15       0.0575    -7.1639    -8.4019  H       1  <O>11       0.0632
@<TRIPOS>BOND
     1     1     2    1
     2     2     3   ar
     3     3     4   ar
     4     4     5   ar
     5     5     6   ar
     6     6     7   ar
     7     2     7   ar
     8     7     8    1
     9     8     9    1
    10     9    10    1
    11    10    11   ar
    12    11    12   ar
    13    12    13   ar
    14    13    14   ar
    15    14    15   ar
    16    15    16   ar
    17    16    17    1
    18    17    18   ar
    19    18    19   ar
    20    19    20   ar
    21    20    21   ar
    22    17    21   ar
    23    16    22   ar
    24    22    23   ar
    25    10    23   ar
    26    13    23   ar
    27     1    24    1
    28     1    25    1
    29     8    26    1
    30     8    27    1
    31     9    28    1
    32     9    29    1
    33    12    30    1
    34    21    31    1
    35     3    32    1
    36     4    33    1
    37     5    34    1
    38     6    35    1
    39    14    36    1
    40    15    37    1
    41    22    38    1
@<TRIPOS>MOLECULE
mol73_1_23
 38 41 0 0 0
SMALL
USER_CHARGES
****
VDW energy = 73.49
@<TRIPOS>ATOM
   1 N1        2.8495    -9.8143    -4.4295  N.pl3   1  <O>11      -0.3577
   2 C1        1.4617   -10.1611    -4.6036  C.ar    1  <O>11       0.0278
   3 C2        0.8050   -10.8783    -3.6012  C.ar    1  <O>11      -0.0408
   4 C3       -0.5391   -11.2290    -3.7692  C.ar    1  <O>11      -0.0600
   5 C4       -1.2224   -10.8607    -4.9311  C.ar    1  <O>11      -0.0614
   6 C5       -0.5527   -10.1366    -5.9237  C.ar    1  <O>11      -0.0568
   7 C6        0.7874    -9.7806    -5.7650  C.ar    1  <O>11      -0.0264
   8 C7        1.4920    -9.0100    -6.8090  C.3     1  <O>11      -0.0205
   9 C8        0.5390    -8.7270    -7.9590  C.3     1  <O>11      -0.0040
  10 C9        1.2380    -7.9630    -8.9950  C.ar    1  <O>11       0.0708
  11 N2        2.5420    -7.5990    -8.8750  N.ar    1  <O>11      -0.1777
  12 N3        2.7980    -7.0230   -10.0860  N.ar    1  <O>11      -0.2767
  13 C10       1.6300    -6.8940   -10.8450  C.ar    1  <O>11       0.0660
  14 C11       1.3180    -6.2340   -12.0520  C.ar    1  <O>11      -0.0356
  15 C12       0.0130    -6.3320   -12.5880  C.ar    1  <O>11      -0.0490
  16 C13      -0.9530    -7.0590   -11.8750  C.ar    1  <O>11       0.0212
  17 C14      -2.2050    -7.1590   -12.4060  C.ar    1  <O>11       0.1794
  18 N4       -2.5750    -6.5990   -13.5770  N.ar    1  <O>11      -0.1084
  19 N5       -3.8550    -7.0190   -13.7960  N.ar    1  <O>11      -0.0229
  20 N6       -4.2190    -7.7220   -12.7360  N.ar    1  <O>11      -0.0464
  21 N7       -3.1990    -7.8130   -11.8380  N.ar    1  <O>11      -0.2388
  22 C15      -0.6580    -7.6750   -10.6510  C.ar    1  <O>11      -0.0401
  23 C16       0.6410    -7.5730   -10.1290  C.ar    1  <O>11       0.0233
  24 H1        3.3392    -9.2907    -5.1550  H       1  <O>11       0.1423
  25 H2        3.3420   -10.0924    -3.5807  H       1  <O>11       0.1423
  26 H3        2.3410    -9.5870    -7.1750  H       1  <O>11       0.0317
  27 H4        1.8450    -8.0680    -6.3890  H       1  <O>11       0.0317
  28 H5       -0.3110    -8.1500    -7.5940  H       1  <O>11       0.0332
  29 H6        0.1870    -9.6690    -8.3780  H       1  <O>11       0.0332
  30 H7        3.7170    -6.7310   -10.3870  H       1  <O>11       0.1889
  31 H8       -3.1520    -8.2620   -10.9350  H       1  <O>11       0.1923
  32 H9        1.3082   -11.1481    -2.7415  H       1  <O>11       0.0636
  33 H10      -1.0275   -11.7615    -3.0324  H       1  <O>11       0.0618
  34 H11      -2.2132   -11.1207    -5.0562  H       1  <O>11       0.0618
  35 H12      -1.0552    -9.8628    -6.7825  H       1  <O>11       0.0621
  36 H13       2.0392    -5.6818   -12.5419  H       1  <O>11       0.0639
  37 H14      -0.2240    -5.8786   -13.4843  H       1  <O>11       0.0625
  38 H15      -1.3868    -8.1971   -10.1399  H       1  <O>11       0.0632
@<TRIPOS>BOND
     1     1     2    1
     2     2     3   ar
     3     3     4   ar
     4     4     5   ar
     5     5     6   ar
     6     6     7   ar
     7     2     7   ar
     8     7     8    1
     9     8     9    1
    10     9    10    1
    11    10    11   ar
    12    11    12   ar
    13    12    13   ar
    14    13    14   ar
    15    14    15   ar
    16    15    16   ar
    17    16    17    1
    18    17    18   ar
    19    18    19   ar
    20    19    20   ar
    21    20    21   ar
    22    17    21   ar
    23    16    22   ar
    24    22    23   ar
    25    10    23   ar
    26    13    23   ar
    27     1    24    1
    28     1    25    1
    29     8    26    1
    30     8    27    1
    31     9    28    1
    32     9    29    1
    33    12    30    1
    34    21    31    1
    35     3    32    1
    36     4    33    1
    37     5    34    1
    38     6    35    1
    39    14    36    1
    40    15    37    1
    41    22    38    1
@<TRIPOS>MOLECULE
mol73_1_24
 38 41 0 0 0
SMALL
USER_CHARGES
****
VDW energy = 73.65
@<TRIPOS>ATOM
   1 N1        2.8495    -9.8143    -4.4295  N.pl3   1  <O>11      -0.3577
   2 C1        1.4617   -10.1611    -4.6036  C.ar    1  <O>11       0.0278
   3 C2        0.8050   -10.8783    -3.6012  C.ar    1  <O>11      -0.0408
   4 C3       -0.5391   -11.2290    -3.7692  C.ar    1  <O>11      -0.0600
   5 C4       -1.2224   -10.8607    -4.9311  C.ar    1  <O>11      -0.0614
   6 C5       -0.5527   -10.1366    -5.9237  C.ar    1  <O>11      -0.0568
   7 C6        0.7874    -9.7806    -5.7650  C.ar    1  <O>11      -0.0264
   8 C7        1.4920    -9.0100    -6.8090  C.3     1  <O>11      -0.0205
   9 C8        1.9846    -7.6967    -6.2229  C.3     1  <O>11      -0.0040
  10 C9        2.6831    -6.9319    -7.2586  C.ar    1  <O>11       0.0708
  11 N2        3.9873    -6.5685    -7.1392  N.ar    1  <O>11      -0.1777
  12 N3        4.2427    -5.9914    -8.3498  N.ar    1  <O>11      -0.2767
  13 C10       3.0742    -5.8612    -9.1078  C.ar    1  <O>11       0.0660
  14 C11       2.7616    -5.1999   -10.3139  C.ar    1  <O>11      -0.0356
  15 C12       1.4562    -5.2968   -10.8491  C.ar    1  <O>11      -0.0490
  16 C13       0.4904    -6.0242   -10.1362  C.ar    1  <O>11       0.0212
  17 C14      -0.7620    -6.1232   -10.6664  C.ar    1  <O>11       0.1794
  18 N4       -1.3543    -7.2921   -10.9898  N.ar    1  <O>11      -0.1084
  19 N5       -2.6204    -6.9656   -11.3812  N.ar    1  <O>11      -0.0229
  20 N6       -2.7044    -5.6455   -11.3599  N.ar    1  <O>11      -0.0464
  21 N7       -1.5391    -5.0901   -10.9252  N.ar    1  <O>11      -0.2388
  22 C15       0.7861    -6.6416    -8.9130  C.ar    1  <O>11      -0.0401
  23 C16       2.0855    -6.5406    -8.3918  C.ar    1  <O>11       0.0233
  24 H1        3.3392    -9.2907    -5.1550  H       1  <O>11       0.1423
  25 H2        3.3420   -10.0924    -3.5807  H       1  <O>11       0.1423
  26 H3        0.8084    -8.8059    -7.6328  H       1  <O>11       0.0317
  27 H4        2.3419    -9.5866    -7.1746  H       1  <O>11       0.0317
  28 H5        2.6684    -7.8997    -5.3984  H       1  <O>11       0.0332
  29 H6        1.1345    -7.1214    -5.8581  H       1  <O>11       0.0332
  30 H7        5.1616    -5.6994    -8.6511  H       1  <O>11       0.1889
  31 H8       -1.2721    -4.1238   -10.8057  H       1  <O>11       0.1923
  32 H9        1.3082   -11.1481    -2.7415  H       1  <O>11       0.0636
  33 H10      -1.0275   -11.7615    -3.0324  H       1  <O>11       0.0618
  34 H11      -2.2132   -11.1207    -5.0562  H       1  <O>11       0.0618
  35 H12      -1.0552    -9.8628    -6.7825  H       1  <O>11       0.0621
  36 H13       3.4827    -4.6474   -10.8038  H       1  <O>11       0.0639
  37 H14       1.2187    -4.8424   -11.7448  H       1  <O>11       0.0625
  38 H15       0.0575    -7.1639    -8.4019  H       1  <O>11       0.0632
@<TRIPOS>BOND
     1     1     2    1
     2     2     3   ar
     3     3     4   ar
     4     4     5   ar
     5     5     6   ar
     6     6     7   ar
     7     2     7   ar
     8     7     8    1
     9     8     9    1
    10     9    10    1
    11    10    11   ar
    12    11    12   ar
    13    12    13   ar
    14    13    14   ar
    15    14    15   ar
    16    15    16   ar
    17    16    17    1
    18    17    18   ar
    19    18    19   ar
    20    19    20   ar
    21    20    21   ar
    22    17    21   ar
    23    16    22   ar
    24    22    23   ar
    25    10    23   ar
    26    13    23   ar
    27     1    24    1
    28     1    25    1
    29     8    26    1
    30     8    27    1
    31     9    28    1
    32     9    29    1
    33    12    30    1
    34    21    31    1
    35     3    32    1
    36     4    33    1
    37     5    34    1
    38     6    35    1
    39    14    36    1
    40    15    37    1
    41    22    38    1
@<TRIPOS>MOLECULE
mol73_1_25
 38 41 0 0 0
SMALL
USER_CHARGES
****
VDW energy = 74.02
@<TRIPOS>ATOM
   1 N1        2.8495    -9.8143    -4.4295  N.pl3   1  <O>11      -0.3577
   2 C1        1.4617   -10.1611    -4.6036  C.ar    1  <O>11       0.0278
   3 C2        0.8050   -10.8783    -3.6012  C.ar    1  <O>11      -0.0408
   4 C3       -0.5391   -11.2290    -3.7692  C.ar    1  <O>11      -0.0600
   5 C4       -1.2224   -10.8607    -4.9311  C.ar    1  <O>11      -0.0614
   6 C5       -0.5527   -10.1366    -5.9237  C.ar    1  <O>11      -0.0568
   7 C6        0.7874    -9.7806    -5.7650  C.ar    1  <O>11      -0.0264
   8 C7        1.4920    -9.0100    -6.8090  C.3     1  <O>11      -0.0205
   9 C8        2.6770    -9.8143    -7.3187  C.3     1  <O>11      -0.0040
  10 C9        3.3764    -9.0498    -8.3540  C.ar    1  <O>11       0.0708
  11 N2        3.5215    -9.5099    -9.6246  N.ar    1  <O>11      -0.1777
  12 N3        4.1156    -8.4533   -10.2527  N.ar    1  <O>11      -0.2767
  13 C10       4.4701    -7.4533    -9.3409  C.ar    1  <O>11       0.0660
  14 C11       5.2369    -6.2731    -9.4355  C.ar    1  <O>11      -0.0356
  15 C12       5.3771    -5.4352    -8.3050  C.ar    1  <O>11      -0.0490
  16 C13       4.7744    -5.8273    -7.0996  C.ar    1  <O>11       0.0212
  17 C14       4.9039    -5.0066    -6.0183  C.ar    1  <O>11       0.1794
  18 N4        4.0386    -4.0163    -5.7146  N.ar    1  <O>11      -0.1084
  19 N5        4.4621    -3.5133    -4.5186  N.ar    1  <O>11      -0.0229
  20 N6        5.5812    -4.1461    -4.2064  N.ar    1  <O>11      -0.0464
  21 N7        5.8885    -5.0843    -5.1448  N.ar    1  <O>11      -0.2388
  22 C15       4.0527    -7.0240    -6.9906  C.ar    1  <O>11      -0.0401
  23 C16       3.9182    -7.8473    -8.1194  C.ar    1  <O>11       0.0233
  24 H1        3.3392    -9.2907    -5.1550  H       1  <O>11       0.1423
  25 H2        3.3420   -10.0924    -3.5807  H       1  <O>11       0.1423
  26 H3        1.8462    -8.0690    -6.3885  H       1  <O>11       0.0317
  27 H4        0.8087    -8.8068    -7.6337  H       1  <O>11       0.0317
  28 H5        2.3239   -10.7561    -7.7393  H       1  <O>11       0.0332
  29 H6        3.3592   -10.0167    -6.4937  H       1  <O>11       0.0332
  30 H7        4.2742    -8.4080   -11.2493  H       1  <O>11       0.1889
  31 H8        6.6693    -5.7207    -5.2116  H       1  <O>11       0.1923
  32 H9        1.3082   -11.1481    -2.7415  H       1  <O>11       0.0636
  33 H10      -1.0275   -11.7615    -3.0324  H       1  <O>11       0.0618
  34 H11      -2.2132   -11.1207    -5.0562  H       1  <O>11       0.0618
  35 H12      -1.0552    -9.8628    -6.7825  H       1  <O>11       0.0621
  36 H13       5.6939    -6.0223   -10.3262  H       1  <O>11       0.0639
  37 H14       5.9112    -4.5541    -8.3650  H       1  <O>11       0.0625
  38 H15       3.6255    -7.2963    -6.0915  H       1  <O>11       0.0632
@<TRIPOS>BOND
     1     1     2    1
     2     2     3   ar
     3     3     4   ar
     4     4     5   ar
     5     5     6   ar
     6     6     7   ar
     7     2     7   ar
     8     7     8    1
     9     8     9    1
    10     9    10    1
    11    10    11   ar
    12    11    12   ar
    13    12    13   ar
    14    13    14   ar
    15    14    15   ar
    16    15    16   ar
    17    16    17    1
    18    17    18   ar
    19    18    19   ar
    20    19    20   ar
    21    20    21   ar
    22    17    21   ar
    23    16    22   ar
    24    22    23   ar
    25    10    23   ar
    26    13    23   ar
    27     1    24    1
    28     1    25    1
    29     8    26    1
    30     8    27    1
    31     9    28    1
    32     9    29    1
    33    12    30    1
    34    21    31    1
    35     3    32    1
    36     4    33    1
    37     5    34    1
    38     6    35    1
    39    14    36    1
    40    15    37    1
    41    22    38    1
@<TRIPOS>MOLECULE
mol73_1_26
 38 41 0 0 0
SMALL
USER_CHARGES
****
VDW energy = 74.75
@<TRIPOS>ATOM
   1 N1        2.8495    -9.8143    -4.4295  N.pl3   1  <O>11      -0.3577
   2 C1        1.4617   -10.1611    -4.6036  C.ar    1  <O>11       0.0278
   3 C2        0.8050   -10.8783    -3.6012  C.ar    1  <O>11      -0.0408
   4 C3       -0.5391   -11.2290    -3.7692  C.ar    1  <O>11      -0.0600
   5 C4       -1.2224   -10.8607    -4.9311  C.ar    1  <O>11      -0.0614
   6 C5       -0.5527   -10.1366    -5.9237  C.ar    1  <O>11      -0.0568
   7 C6        0.7874    -9.7806    -5.7650  C.ar    1  <O>11      -0.0264
   8 C7        1.4920    -9.0100    -6.8090  C.3     1  <O>11      -0.0205
   9 C8        0.5390    -8.7270    -7.9590  C.3     1  <O>11      -0.0040
  10 C9        1.2380    -7.9630    -8.9950  C.ar    1  <O>11       0.0708
  11 N2        0.8300    -6.7273    -9.3873  N.ar    1  <O>11      -0.1777
  12 N3        1.8116    -6.3585   -10.2615  N.ar    1  <O>11      -0.2767
  13 C10       2.6921    -7.4159   -10.5133  C.ar    1  <O>11       0.0660
  14 C11       3.7395    -7.6154   -11.4369  C.ar    1  <O>11      -0.0356
  15 C12       4.4824    -8.8183   -11.4059  C.ar    1  <O>11      -0.0490
  16 C13       4.1261    -9.8038   -10.4722  C.ar    1  <O>11       0.0212
  17 C14       4.8564   -10.9550   -10.4409  C.ar    1  <O>11       0.1794
  18 N4        5.9024   -11.2075   -11.2558  N.ar    1  <O>11      -0.1084
  19 N5        6.4149   -12.4006   -10.8354  N.ar    1  <O>11      -0.0229
  20 N6        5.6254   -12.8432    -9.8705  N.ar    1  <O>11      -0.0464
  21 N7        4.6259   -11.9545    -9.6126  N.ar    1  <O>11      -0.2388
  22 C15       3.0547    -9.6275    -9.5859  C.ar    1  <O>11      -0.0401
  23 C16       2.3251    -8.4290    -9.6239  C.ar    1  <O>11       0.0233
  24 H1        3.3392    -9.2907    -5.1550  H       1  <O>11       0.1423
  25 H2        3.3420   -10.0924    -3.5807  H       1  <O>11       0.1423
  26 H3        2.3410    -9.5870    -7.1750  H       1  <O>11       0.0317
  27 H4        1.8450    -8.0680    -6.3890  H       1  <O>11       0.0317
  28 H5       -0.3110    -8.1500    -7.5940  H       1  <O>11       0.0332
  29 H6        0.1870    -9.6690    -8.3780  H       1  <O>11       0.0332
  30 H7        1.8849    -5.4370   -10.6689  H       1  <O>11       0.1889
  31 H8        3.8611   -11.9932    -8.9548  H       1  <O>11       0.1923
  32 H9        1.3082   -11.1481    -2.7415  H       1  <O>11       0.0636
  33 H10      -1.0275   -11.7615    -3.0324  H       1  <O>11       0.0618
  34 H11      -2.2132   -11.1207    -5.0562  H       1  <O>11       0.0618
  35 H12      -1.0552    -9.8628    -6.7825  H       1  <O>11       0.0621
  36 H13       3.9626    -6.8864   -12.1325  H       1  <O>11       0.0639
  37 H14       5.2698    -8.9683   -12.0560  H       1  <O>11       0.0625
  38 H15       2.8052   -10.3697    -8.9137  H       1  <O>11       0.0632
@<TRIPOS>BOND
     1     1     2    1
     2     2     3   ar
     3     3     4   ar
     4     4     5   ar
     5     5     6   ar
     6     6     7   ar
     7     2     7   ar
     8     7     8    1
     9     8     9    1
    10     9    10    1
    11    10    11   ar
    12    11    12   ar
    13    12    13   ar
    14    13    14   ar
    15    14    15   ar
    16    15    16   ar
    17    16    17    1
    18    17    18   ar
    19    18    19   ar
    20    19    20   ar
    21    20    21   ar
    22    17    21   ar
    23    16    22   ar
    24    22    23   ar
    25    10    23   ar
    26    13    23   ar
    27     1    24    1
    28     1    25    1
    29     8    26    1
    30     8    27    1
    31     9    28    1
    32     9    29    1
    33    12    30    1
    34    21    31    1
    35     3    32    1
    36     4    33    1
    37     5    34    1
    38     6    35    1
    39    14    36    1
    40    15    37    1
    41    22    38    1
@<TRIPOS>MOLECULE
mol73_1_27
 38 41 0 0 0
SMALL
USER_CHARGES
****
VDW energy = 75.44
@<TRIPOS>ATOM
   1 N1        2.8495    -9.8143    -4.4295  N.pl3   1  <O>11      -0.3577
   2 C1        1.4617   -10.1611    -4.6036  C.ar    1  <O>11       0.0278
   3 C2        0.8050   -10.8783    -3.6012  C.ar    1  <O>11      -0.0408
   4 C3       -0.5391   -11.2290    -3.7692  C.ar    1  <O>11      -0.0600
   5 C4       -1.2224   -10.8607    -4.9311  C.ar    1  <O>11      -0.0614
   6 C5       -0.5527   -10.1366    -5.9237  C.ar    1  <O>11      -0.0568
   7 C6        0.7874    -9.7806    -5.7650  C.ar    1  <O>11      -0.0264
   8 C7        1.4920    -9.0100    -6.8090  C.3     1  <O>11      -0.0205
   9 C8        0.5390    -8.7270    -7.9590  C.3     1  <O>11      -0.0040
  10 C9        1.2380    -7.9630    -8.9950  C.ar    1  <O>11       0.0708
  11 N2        1.3829    -8.4239   -10.2654  N.ar    1  <O>11      -0.1777
  12 N3        1.9767    -7.3676   -10.8943  N.ar    1  <O>11      -0.2767
  13 C10       2.3312    -6.3670    -9.9833  C.ar    1  <O>11       0.0660
  14 C11       3.0978    -5.1868   -10.0789  C.ar    1  <O>11      -0.0356
  15 C12       3.2382    -4.3481    -8.9489  C.ar    1  <O>11      -0.0490
  16 C13       2.6359    -4.7395    -7.7431  C.ar    1  <O>11       0.0212
  17 C14       2.7655    -3.9181    -6.6623  C.ar    1  <O>11       0.1794
  18 N4        3.4408    -2.7496    -6.6793  N.ar    1  <O>11      -0.1084
  19 N5        3.2423    -2.1935    -5.4488  N.ar    1  <O>11      -0.0229
  20 N6        2.5489    -3.0663    -4.7363  N.ar    1  <O>11      -0.0464
  21 N7        2.2476    -4.1695    -5.4762  N.ar    1  <O>11      -0.2388
  22 C15       1.9144    -5.9362    -7.6331  C.ar    1  <O>11      -0.0401
  23 C16       1.7797    -6.7603    -8.7614  C.ar    1  <O>11       0.0233
  24 H1        3.3392    -9.2907    -5.1550  H       1  <O>11       0.1423
  25 H2        3.3420   -10.0924    -3.5807  H       1  <O>11       0.1423
  26 H3        2.3410    -9.5870    -7.1750  H       1  <O>11       0.0317
  27 H4        1.8450    -8.0680    -6.3890  H       1  <O>11       0.0317
  28 H5       -0.3110    -8.1500    -7.5940  H       1  <O>11       0.0332
  29 H6        0.1870    -9.6690    -8.3780  H       1  <O>11       0.0332
  30 H7        2.1350    -7.3230   -11.8910  H       1  <O>11       0.1889
  31 H8        1.7478    -5.0121    -5.2324  H       1  <O>11       0.1923
  32 H9        1.3082   -11.1481    -2.7415  H       1  <O>11       0.0636
  33 H10      -1.0275   -11.7615    -3.0324  H       1  <O>11       0.0618
  34 H11      -2.2132   -11.1207    -5.0562  H       1  <O>11       0.0618
  35 H12      -1.0552    -9.8628    -6.7825  H       1  <O>11       0.0621
  36 H13       3.5545    -4.9364   -10.9698  H       1  <O>11       0.0639
  37 H14       3.7721    -3.4670    -9.0096  H       1  <O>11       0.0625
  38 H15       1.4875    -6.2081    -6.7338  H       1  <O>11       0.0632
@<TRIPOS>BOND
     1     1     2    1
     2     2     3   ar
     3     3     4   ar
     4     4     5   ar
     5     5     6   ar
     6     6     7   ar
     7     2     7   ar
     8     7     8    1
     9     8     9    1
    10     9    10    1
    11    10    11   ar
    12    11    12   ar
    13    12    13   ar
    14    13    14   ar
    15    14    15   ar
    16    15    16   ar
    17    16    17    1
    18    17    18   ar
    19    18    19   ar
    20    19    20   ar
    21    20    21   ar
    22    17    21   ar
    23    16    22   ar
    24    22    23   ar
    25    10    23   ar
    26    13    23   ar
    27     1    24    1
    28     1    25    1
    29     8    26    1
    30     8    27    1
    31     9    28    1
    32     9    29    1
    33    12    30    1
    34    21    31    1
    35     3    32    1
    36     4    33    1
    37     5    34    1
    38     6    35    1
    39    14    36    1
    40    15    37    1
    41    22    38    1
@<TRIPOS>MOLECULE
mol73_1_28
 38 41 0 0 0
SMALL
USER_CHARGES
****
VDW energy = 78.53
@<TRIPOS>ATOM
   1 N1        2.8495    -9.8143    -4.4295  N.pl3   1  <O>11      -0.3577
   2 C1        1.4617   -10.1611    -4.6036  C.ar    1  <O>11       0.0278
   3 C2        0.8050   -10.8783    -3.6012  C.ar    1  <O>11      -0.0408
   4 C3       -0.5391   -11.2290    -3.7692  C.ar    1  <O>11      -0.0600
   5 C4       -1.2224   -10.8607    -4.9311  C.ar    1  <O>11      -0.0614
   6 C5       -0.5527   -10.1366    -5.9237  C.ar    1  <O>11      -0.0568
   7 C6        0.7874    -9.7806    -5.7650  C.ar    1  <O>11      -0.0264
   8 C7        1.4920    -9.0100    -6.8090  C.3     1  <O>11      -0.0205
   9 C8        1.9846    -7.6967    -6.2229  C.3     1  <O>11      -0.0040
  10 C9        2.6831    -6.9319    -7.2586  C.ar    1  <O>11       0.0708
  11 N2        2.8286    -7.3924    -8.5291  N.ar    1  <O>11      -0.1777
  12 N3        3.4216    -6.3355    -9.1577  N.ar    1  <O>11      -0.2767
  13 C10       3.7753    -5.3349    -8.2463  C.ar    1  <O>11       0.0660
  14 C11       4.5409    -4.1540    -8.3415  C.ar    1  <O>11      -0.0356
  15 C12       4.6804    -3.3154    -7.2113  C.ar    1  <O>11      -0.0490
  16 C13       4.0782    -3.7076    -6.0057  C.ar    1  <O>11       0.0212
  17 C14       4.2071    -2.8864    -4.9248  C.ar    1  <O>11       0.1794
  18 N4        4.8801    -1.7166    -4.9418  N.ar    1  <O>11      -0.1084
  19 N5        4.6814    -1.1613    -3.7109  N.ar    1  <O>11      -0.0229
  20 N6        3.9901    -2.0357    -2.9983  N.ar    1  <O>11      -0.0464
  21 N7        3.6904    -3.1392    -3.7384  N.ar    1  <O>11      -0.2388
  22 C15       3.3577    -4.9049    -5.8961  C.ar    1  <O>11      -0.0401
  23 C16       3.2239    -5.7289    -7.0246  C.ar    1  <O>11       0.0233
  24 H1        3.3392    -9.2907    -5.1550  H       1  <O>11       0.1423
  25 H2        3.3420   -10.0924    -3.5807  H       1  <O>11       0.1423
  26 H3        0.8084    -8.8059    -7.6328  H       1  <O>11       0.0317
  27 H4        2.3419    -9.5866    -7.1746  H       1  <O>11       0.0317
  28 H5        2.6684    -7.8997    -5.3984  H       1  <O>11       0.0332
  29 H6        1.1345    -7.1214    -5.8581  H       1  <O>11       0.0332
  30 H7        3.5800    -6.2905   -10.1543  H       1  <O>11       0.1889
  31 H8        3.1924    -3.9828    -3.4945  H       1  <O>11       0.1923
  32 H9        1.3082   -11.1481    -2.7415  H       1  <O>11       0.0636
  33 H10      -1.0275   -11.7615    -3.0324  H       1  <O>11       0.0618
  34 H11      -2.2132   -11.1207    -5.0562  H       1  <O>11       0.0618
  35 H12      -1.0552    -9.8628    -6.7825  H       1  <O>11       0.0621
  36 H13       4.9975    -3.9030    -9.2324  H       1  <O>11       0.0639
  37 H14       5.2136    -2.4339    -7.2718  H       1  <O>11       0.0625
  38 H15       2.9309    -5.1773    -4.9969  H       1  <O>11       0.0632
@<TRIPOS>BOND
     1     1     2    1
     2     2     3   ar
     3     3     4   ar
     4     4     5   ar
     5     5     6   ar
     6     6     7   ar
     7     2     7   ar
     8     7     8    1
     9     8     9    1
    10     9    10    1
    11    10    11   ar
    12    11    12   ar
    13    12    13   ar
    14    13    14   ar
    15    14    15   ar
    16    15    16   ar
    17    16    17    1
    18    17    18   ar
    19    18    19   ar
    20    19    20   ar
    21    20    21   ar
    22    17    21   ar
    23    16    22   ar
    24    22    23   ar
    25    10    23   ar
    26    13    23   ar
    27     1    24    1
    28     1    25    1
    29     8    26    1
    30     8    27    1
    31     9    28    1
    32     9    29    1
    33    12    30    1
    34    21    31    1
    35     3    32    1
    36     4    33    1
    37     5    34    1
    38     6    35    1
    39    14    36    1
    40    15    37    1
    41    22    38    1
@<TRIPOS>MOLECULE
mol73_1_29
 38 41 0 0 0
SMALL
USER_CHARGES
****
VDW energy = 80.04
@<TRIPOS>ATOM
   1 N1        2.8495    -9.8143    -4.4295  N.pl3   1  <O>11      -0.3577
   2 C1        1.4617   -10.1611    -4.6036  C.ar    1  <O>11       0.0278
   3 C2        0.8050   -10.8783    -3.6012  C.ar    1  <O>11      -0.0408
   4 C3       -0.5391   -11.2290    -3.7692  C.ar    1  <O>11      -0.0600
   5 C4       -1.2224   -10.8607    -4.9311  C.ar    1  <O>11      -0.0614
   6 C5       -0.5527   -10.1366    -5.9237  C.ar    1  <O>11      -0.0568
   7 C6        0.7874    -9.7806    -5.7650  C.ar    1  <O>11      -0.0264
   8 C7        1.4920    -9.0100    -6.8090  C.3     1  <O>11      -0.0205
   9 C8        1.9846    -7.6967    -6.2229  C.3     1  <O>11      -0.0040
  10 C9        2.6831    -6.9319    -7.2586  C.ar    1  <O>11       0.0708
  11 N2        3.9873    -6.5685    -7.1392  N.ar    1  <O>11      -0.1777
  12 N3        4.2427    -5.9914    -8.3498  N.ar    1  <O>11      -0.2767
  13 C10       3.0742    -5.8612    -9.1078  C.ar    1  <O>11       0.0660
  14 C11       2.7616    -5.1999   -10.3139  C.ar    1  <O>11      -0.0356
  15 C12       1.4562    -5.2968   -10.8491  C.ar    1  <O>11      -0.0490
  16 C13       0.4904    -6.0242   -10.1362  C.ar    1  <O>11       0.0212
  17 C14      -0.7620    -6.1232   -10.6664  C.ar    1  <O>11       0.1794
  18 N4       -1.1326    -5.5619   -11.8366  N.ar    1  <O>11      -0.1084
  19 N5       -2.4129    -5.9812   -12.0551  N.ar    1  <O>11      -0.0229
  20 N6       -2.7764    -6.6852   -10.9956  N.ar    1  <O>11      -0.0464
  21 N7       -1.7558    -6.7775   -10.0984  N.ar    1  <O>11      -0.2388
  22 C15       0.7861    -6.6416    -8.9130  C.ar    1  <O>11      -0.0401
  23 C16       2.0855    -6.5406    -8.3918  C.ar    1  <O>11       0.0233
  24 H1        3.3392    -9.2907    -5.1550  H       1  <O>11       0.1423
  25 H2        3.3420   -10.0924    -3.5807  H       1  <O>11       0.1423
  26 H3        0.8084    -8.8059    -7.6328  H       1  <O>11       0.0317
  27 H4        2.3419    -9.5866    -7.1746  H       1  <O>11       0.0317
  28 H5        2.6684    -7.8997    -5.3984  H       1  <O>11       0.0332
  29 H6        1.1345    -7.1214    -5.8581  H       1  <O>11       0.0332
  30 H7        5.1616    -5.6994    -8.6511  H       1  <O>11       0.1889
  31 H8       -1.7083    -7.2274    -9.1959  H       1  <O>11       0.1923
  32 H9        1.3082   -11.1481    -2.7415  H       1  <O>11       0.0636
  33 H10      -1.0275   -11.7615    -3.0324  H       1  <O>11       0.0618
  34 H11      -2.2132   -11.1207    -5.0562  H       1  <O>11       0.0618
  35 H12      -1.0552    -9.8628    -6.7825  H       1  <O>11       0.0621
  36 H13       3.4827    -4.6474   -10.8038  H       1  <O>11       0.0639
  37 H14       1.2187    -4.8424   -11.7448  H       1  <O>11       0.0625
  38 H15       0.0575    -7.1639    -8.4019  H       1  <O>11       0.0632
@<TRIPOS>BOND
     1     1     2    1
     2     2     3   ar
     3     3     4   ar
     4     4     5   ar
     5     5     6   ar
     6     6     7   ar
     7     2     7   ar
     8     7     8    1
     9     8     9    1
    10     9    10    1
    11    10    11   ar
    12    11    12   ar
    13    12    13   ar
    14    13    14   ar
    15    14    15   ar
    16    15    16   ar
    17    16    17    1
    18    17    18   ar
    19    18    19   ar
    20    19    20   ar
    21    20    21   ar
    22    17    21   ar
    23    16    22   ar
    24    22    23   ar
    25    10    23   ar
    26    13    23   ar
    27     1    24    1
    28     1    25    1
    29     8    26    1
    30     8    27    1
    31     9    28    1
    32     9    29    1
    33    12    30    1
    34    21    31    1
    35     3    32    1
    36     4    33    1
    37     5    34    1
    38     6    35    1
    39    14    36    1
    40    15    37    1
    41    22    38    1
@<TRIPOS>MOLECULE
mol73_1_30
 38 41 0 0 0
SMALL
USER_CHARGES
****
VDW energy = 86.57
@<TRIPOS>ATOM
   1 N1        2.8495    -9.8143    -4.4295  N.pl3   1  <O>11      -0.3577
   2 C1        1.4617   -10.1611    -4.6036  C.ar    1  <O>11       0.0278
   3 C2        0.8050   -10.8783    -3.6012  C.ar    1  <O>11      -0.0408
   4 C3       -0.5391   -11.2290    -3.7692  C.ar    1  <O>11      -0.0600
   5 C4       -1.2224   -10.8607    -4.9311  C.ar    1  <O>11      -0.0614
   6 C5       -0.5527   -10.1366    -5.9237  C.ar    1  <O>11      -0.0568
   7 C6        0.7874    -9.7806    -5.7650  C.ar    1  <O>11      -0.0264
   8 C7        1.4920    -9.0100    -6.8090  C.3     1  <O>11      -0.0205
   9 C8        0.5390    -8.7270    -7.9590  C.3     1  <O>11      -0.0040
  10 C9        0.0647    -9.9932    -8.5223  C.ar    1  <O>11       0.0708
  11 N2        0.4613   -11.1991    -8.0367  N.ar    1  <O>11      -0.1777
  12 N3       -0.2957   -12.0714    -8.7646  N.ar    1  <O>11      -0.2767
  13 C10      -1.0008   -11.4112    -9.7765  C.ar    1  <O>11       0.0660
  14 C11      -1.7650   -11.8481   -10.8787  C.ar    1  <O>11      -0.0356
  15 C12      -2.3968   -10.8985   -11.7148  C.ar    1  <O>11      -0.0490
  16 C13      -2.2106    -9.5344   -11.4420  C.ar    1  <O>11       0.0212
  17 C14      -2.8343    -8.6262   -12.2456  C.ar    1  <O>11       0.1794
  18 N4       -2.1863    -7.6942   -12.9758  N.ar    1  <O>11      -0.1084
  19 N5       -3.1512    -7.0676   -13.7100  N.ar    1  <O>11      -0.0229
  20 N6       -4.3140    -7.5760   -13.3363  N.ar    1  <O>11      -0.0464
  21 N7       -4.1413    -8.5524   -12.4024  N.ar    1  <O>11      -0.2388
  22 C15      -1.4120    -9.0974   -10.3762  C.ar    1  <O>11      -0.0401
  23 C16      -0.7910   -10.0484    -9.5515  C.ar    1  <O>11       0.0233
  24 H1        3.3392    -9.2907    -5.1550  H       1  <O>11       0.1423
  25 H2        3.3420   -10.0924    -3.5807  H       1  <O>11       0.1423
  26 H3        2.3410    -9.5870    -7.1750  H       1  <O>11       0.0317
  27 H4        1.8450    -8.0680    -6.3890  H       1  <O>11       0.0317
  28 H5        1.0583    -8.1584    -8.7308  H       1  <O>11       0.0332
  29 H6       -0.3106    -8.1520    -7.5923  H       1  <O>11       0.0332
  30 H7       -0.3356   -13.0651    -8.5874  H       1  <O>11       0.1889
  31 H8       -4.8139    -9.1223   -11.9104  H       1  <O>11       0.1923
  32 H9        1.3082   -11.1481    -2.7415  H       1  <O>11       0.0636
  33 H10      -1.0275   -11.7615    -3.0324  H       1  <O>11       0.0618
  34 H11      -2.2132   -11.1207    -5.0562  H       1  <O>11       0.0618
  35 H12      -1.0552    -9.8628    -6.7825  H       1  <O>11       0.0621
  36 H13      -1.8625   -12.8568   -11.0743  H       1  <O>11       0.0639
  37 H14      -2.9823   -11.2022   -12.5085  H       1  <O>11       0.0625
  38 H15      -1.2822    -8.0889   -10.2000  H       1  <O>11       0.0632
@<TRIPOS>BOND
     1     1     2    1
     2     2     3   ar
     3     3     4   ar
     4     4     5   ar
     5     5     6   ar
     6     6     7   ar
     7     2     7   ar
     8     7     8    1
     9     8     9    1
    10     9    10    1
    11    10    11   ar
    12    11    12   ar
    13    12    13   ar
    14    13    14   ar
    15    14    15   ar
    16    15    16   ar
    17    16    17    1
    18    17    18   ar
    19    18    19   ar
    20    19    20   ar
    21    20    21   ar
    22    17    21   ar
    23    16    22   ar
    24    22    23   ar
    25    10    23   ar
    26    13    23   ar
    27     1    24    1
    28     1    25    1
    29     8    26    1
    30     8    27    1
    31     9    28    1
    32     9    29    1
    33    12    30    1
    34    21    31    1
    35     3    32    1
    36     4    33    1
    37     5    34    1
    38     6    35    1
    39    14    36    1
    40    15    37    1
    41    22    38    1
