@<TRIPOS>MOLECULE
mol77_1_1
 46 49 0 0 0
SMALL
USER_CHARGES
****
VDW energy = 13.91
@<TRIPOS>ATOM
   1 C1        4.6343    -1.1079    -4.1833  C.3     1  <O>11      -0.0349
   2 C2        3.5757    -0.3543    -3.5287  C.ar    1  <O>11       0.0129
   3 C3        2.3924     0.0545    -4.1114  C.ar    1  <O>11       0.1274
   4 O1        1.6328     0.6942    -3.1846  O.2     1  <O>11      -0.3624
   5 N1        2.3060     0.7440    -1.9842  N.ar    1  <O>11      -0.0815
   6 C4        3.4827     0.1342    -2.1909  C.ar    1  <O>11       0.1034
   7 C5        4.6000    -0.0770    -1.2830  C.3     1  <O>11       0.0578
   8 N2        4.4225    -1.3455    -0.5805  N.am    1  <O>11      -0.3056
   9 C6        5.3547    -1.7598     0.3318  C.2     1  <O>11       0.2472
  10 O2        6.3361    -1.0685     0.5594  O.2     1  <O>11      -0.2701
  11 C7        5.1761    -3.0254     1.0314  C.ar    1  <O>11       0.0721
  12 C8        6.2774    -3.8652     1.2700  C.ar    1  <O>11      -0.0433
  13 C9        6.1024    -5.0863     1.9305  C.ar    1  <O>11      -0.0406
  14 C10       7.2660    -5.9623     2.1723  C.3     1  <O>11       0.0171
  15 C11       7.8825    -6.3392     0.8743  C.ar    1  <O>11       0.0736
  16 N3        8.8902    -5.5404     0.3204  N.ar    1  <O>11      -0.1750
  17 N4        9.3881    -5.8105    -0.9083  N.ar    1  <O>11      -0.2425
  18 C12       8.9031    -6.8734    -1.5929  C.ar    1  <O>11       0.2725
  19 O3        9.3909    -7.0433    -2.9042  O.2     1  <O>11      -0.2658
  20 C13       7.9709    -7.7806    -1.0722  C.ar    1  <O>11       0.0496
  21 C14       7.5073    -8.9232    -1.7625  C.ar    1  <O>11      -0.0487
  22 C15       6.5514    -9.7691    -1.1984  C.ar    1  <O>11      -0.0610
  23 C16       6.0370    -9.4855     0.0619  C.ar    1  <O>11      -0.0611
  24 C17       6.4777    -8.3579     0.7567  C.ar    1  <O>11      -0.0521
  25 C18       7.4500    -7.4947     0.2020  C.ar    1  <O>11       0.0106
  26 C19       4.8329    -5.4775     2.3636  C.ar    1  <O>11      -0.0555
  27 C20       3.7365    -4.6381     2.1315  C.ar    1  <O>11      -0.0254
  28 C21       3.9010    -3.4173     1.4748  C.ar    1  <O>11       0.1355
  29 F1        2.8291    -2.5904     1.2550  F       1  <O>11      -0.2047
  30 H1        5.4443    -1.2860    -3.4760  H       1  <O>11       0.0279
  31 H2        5.0124    -0.5398    -5.0333  H       1  <O>11       0.0279
  32 H3        4.2391    -2.0624    -4.5311  H       1  <O>11       0.0279
  33 H4        4.6389     0.7360    -0.5584  H       1  <O>11       0.0528
  34 H5        5.5297    -0.1031    -1.8510  H       1  <O>11       0.0528
  35 H6        3.6024    -1.9222    -0.7710  H       1  <O>11       0.1494
  36 H7        6.9428    -6.8611     2.6963  H       1  <O>11       0.0377
  37 H8        7.9995    -5.4317     2.7808  H       1  <O>11       0.0377
  38 H9       10.1080    -5.2276    -1.3081  H       1  <O>11       0.1921
  39 H10       2.1268    -0.1015    -5.0964  H       1  <O>11       0.1060
  40 H11       7.2185    -3.5804     0.9569  H       1  <O>11       0.0629
  41 H12       7.8822    -9.1359    -2.7001  H       1  <O>11       0.0625
  42 H13       6.2275   -10.6019    -1.7146  H       1  <O>11       0.0618
  43 H14       5.3299   -10.1081     0.4832  H       1  <O>11       0.0618
  44 H15       6.0877    -8.1512     1.6895  H       1  <O>11       0.0624
  45 H16       4.7043    -6.3782     2.8507  H       1  <O>11       0.0621
  46 H17       2.7974    -4.9249     2.4492  H       1  <O>11       0.0646
@<TRIPOS>BOND
     1     1     2    1
     2     2     3   ar
     3     3     4   ar
     4     4     5   ar
     5     5     6   ar
     6     2     6   ar
     7     6     7    1
     8     7     8    1
     9     8     9   am
    10     9    10    2
    11     9    11    1
    12    11    12   ar
    13    12    13   ar
    14    13    14    1
    15    14    15    1
    16    15    16   ar
    17    16    17   ar
    18    17    18   ar
    19    18    19    2
    20    18    20   ar
    21    20    21   ar
    22    21    22   ar
    23    22    23   ar
    24    23    24   ar
    25    24    25   ar
    26    15    25   ar
    27    20    25   ar
    28    13    26   ar
    29    26    27   ar
    30    27    28   ar
    31    11    28   ar
    32    28    29    1
    33     1    30    1
    34     1    31    1
    35     1    32    1
    36     7    33    1
    37     7    34    1
    38     8    35    1
    39    14    36    1
    40    14    37    1
    41    17    38    1
    42     3    39    1
    43    12    40    1
    44    21    41    1
    45    22    42    1
    46    23    43    1
    47    24    44    1
    48    26    45    1
    49    27    46    1
@<TRIPOS>MOLECULE
mol77_1_2
 46 49 0 0 0
SMALL
USER_CHARGES
****
VDW energy = 15.49
@<TRIPOS>ATOM
   1 C1        4.6343    -1.1079    -4.1833  C.3     1  <O>11      -0.0349
   2 C2        3.5757    -0.3543    -3.5287  C.ar    1  <O>11       0.0129
   3 C3        2.3924     0.0545    -4.1114  C.ar    1  <O>11       0.1274
   4 O1        1.6328     0.6942    -3.1846  O.2     1  <O>11      -0.3624
   5 N1        2.3060     0.7440    -1.9842  N.ar    1  <O>11      -0.0815
   6 C4        3.4827     0.1342    -2.1909  C.ar    1  <O>11       0.1034
   7 C5        4.6000    -0.0770    -1.2830  C.3     1  <O>11       0.0578
   8 N2        4.4225    -1.3455    -0.5805  N.am    1  <O>11      -0.3056
   9 C6        5.3547    -1.7598     0.3318  C.2     1  <O>11       0.2472
  10 O2        6.3361    -1.0685     0.5594  O.2     1  <O>11      -0.2701
  11 C7        5.1761    -3.0254     1.0314  C.ar    1  <O>11       0.0721
  12 C8        6.2774    -3.8652     1.2700  C.ar    1  <O>11      -0.0433
  13 C9        6.1024    -5.0863     1.9305  C.ar    1  <O>11      -0.0406
  14 C10       7.2660    -5.9623     2.1723  C.3     1  <O>11       0.0171
  15 C11       7.4365    -6.8902     1.0248  C.ar    1  <O>11       0.0736
  16 N3        8.2344    -6.5174    -0.0636  N.ar    1  <O>11      -0.1750
  17 N4        8.3162    -7.3042    -1.1613  N.ar    1  <O>11      -0.2425
  18 C12       7.6203    -8.4656    -1.1884  C.ar    1  <O>11       0.2725
  19 O3        7.6684    -9.1909    -2.3959  O.2     1  <O>11      -0.2658
  20 C13       6.8815    -8.9609    -0.1059  C.ar    1  <O>11       0.0496
  21 C14       6.2028   -10.2004    -0.1115  C.ar    1  <O>11      -0.0487
  22 C15       5.4562   -10.6197     0.9904  C.ar    1  <O>11      -0.0610
  23 C16       5.3690    -9.8061     2.1146  C.ar    1  <O>11      -0.0611
  24 C17       6.0271    -8.5754     2.1367  C.ar    1  <O>11      -0.0521
  25 C18       6.7926    -8.1390     1.0313  C.ar    1  <O>11       0.0106
  26 C19       4.8329    -5.4775     2.3636  C.ar    1  <O>11      -0.0555
  27 C20       3.7365    -4.6381     2.1315  C.ar    1  <O>11      -0.0254
  28 C21       3.9010    -3.4173     1.4748  C.ar    1  <O>11       0.1355
  29 F1        2.8291    -2.5904     1.2550  F       1  <O>11      -0.2047
  30 H1        5.4443    -1.2860    -3.4760  H       1  <O>11       0.0279
  31 H2        5.0124    -0.5398    -5.0333  H       1  <O>11       0.0279
  32 H3        4.2391    -2.0624    -4.5311  H       1  <O>11       0.0279
  33 H4        4.6389     0.7360    -0.5584  H       1  <O>11       0.0528
  34 H5        5.5297    -0.1031    -1.8510  H       1  <O>11       0.0528
  35 H6        3.6024    -1.9222    -0.7710  H       1  <O>11       0.1494
  36 H7        7.1065    -6.5367     3.0841  H       1  <O>11       0.0377
  37 H8        8.1635    -5.3519     2.2806  H       1  <O>11       0.0377
  38 H9        8.8852    -7.0283    -1.9474  H       1  <O>11       0.1921
  39 H10       2.1268    -0.1015    -5.0964  H       1  <O>11       0.1060
  40 H11       7.2185    -3.5804     0.9569  H       1  <O>11       0.0629
  41 H12       6.2602   -10.8061    -0.9451  H       1  <O>11       0.0625
  42 H13       4.9707   -11.5301     0.9710  H       1  <O>11       0.0618
  43 H14       4.8182   -10.1120     2.9320  H       1  <O>11       0.0618
  44 H15       5.9538    -7.9748     2.9727  H       1  <O>11       0.0624
  45 H16       4.7043    -6.3782     2.8507  H       1  <O>11       0.0621
  46 H17       2.7974    -4.9249     2.4492  H       1  <O>11       0.0646
@<TRIPOS>BOND
     1     1     2    1
     2     2     3   ar
     3     3     4   ar
     4     4     5   ar
     5     5     6   ar
     6     2     6   ar
     7     6     7    1
     8     7     8    1
     9     8     9   am
    10     9    10    2
    11     9    11    1
    12    11    12   ar
    13    12    13   ar
    14    13    14    1
    15    14    15    1
    16    15    16   ar
    17    16    17   ar
    18    17    18   ar
    19    18    19    2
    20    18    20   ar
    21    20    21   ar
    22    21    22   ar
    23    22    23   ar
    24    23    24   ar
    25    24    25   ar
    26    15    25   ar
    27    20    25   ar
    28    13    26   ar
    29    26    27   ar
    30    27    28   ar
    31    11    28   ar
    32    28    29    1
    33     1    30    1
    34     1    31    1
    35     1    32    1
    36     7    33    1
    37     7    34    1
    38     8    35    1
    39    14    36    1
    40    14    37    1
    41    17    38    1
    42     3    39    1
    43    12    40    1
    44    21    41    1
    45    22    42    1
    46    23    43    1
    47    24    44    1
    48    26    45    1
    49    27    46    1
@<TRIPOS>MOLECULE
mol77_1_3
 46 49 0 0 0
SMALL
USER_CHARGES
****
VDW energy = 19.27
@<TRIPOS>ATOM
   1 C1        4.6343    -1.1079    -4.1833  C.3     1  <O>11      -0.0349
   2 C2        3.5757    -0.3543    -3.5287  C.ar    1  <O>11       0.0129
   3 C3        2.3924     0.0545    -4.1114  C.ar    1  <O>11       0.1274
   4 O1        1.6328     0.6942    -3.1846  O.2     1  <O>11      -0.3624
   5 N1        2.3060     0.7440    -1.9842  N.ar    1  <O>11      -0.0815
   6 C4        3.4827     0.1342    -2.1909  C.ar    1  <O>11       0.1034
   7 C5        4.6000    -0.0770    -1.2830  C.3     1  <O>11       0.0578
   8 N2        4.4225    -1.3455    -0.5805  N.am    1  <O>11      -0.3056
   9 C6        5.3547    -1.7598     0.3318  C.2     1  <O>11       0.2472
  10 O2        6.3361    -1.0685     0.5594  O.2     1  <O>11      -0.2701
  11 C7        5.1761    -3.0254     1.0314  C.ar    1  <O>11       0.0721
  12 C8        4.2276    -3.9582     0.5784  C.ar    1  <O>11      -0.0433
  13 C9        4.0479    -5.1676     1.2588  C.ar    1  <O>11      -0.0406
  14 C10       3.0458    -6.1384     0.7760  C.3     1  <O>11       0.0171
  15 C11       3.6800    -7.0652    -0.1965  C.ar    1  <O>11       0.0736
  16 N3        5.0567    -6.9891    -0.4399  N.ar    1  <O>11      -0.1750
  17 N4        5.6318    -7.7529    -1.3971  N.ar    1  <O>11      -0.2425
  18 C12       4.8560    -8.6016    -2.1124  C.ar    1  <O>11       0.2725
  19 O3        5.4955    -9.2958    -3.1590  O.2     1  <O>11      -0.2658
  20 C13       3.4933    -8.8132    -1.8650  C.ar    1  <O>11       0.0496
  21 C14       2.6952    -9.7412    -2.5714  C.ar    1  <O>11      -0.0487
  22 C15       1.3339    -9.8788    -2.2968  C.ar    1  <O>11      -0.0610
  23 C16       0.7443    -9.0881    -1.3168  C.ar    1  <O>11      -0.0611
  24 C17       1.5148    -8.1612    -0.6127  C.ar    1  <O>11      -0.0521
  25 C18       2.8961    -8.0141    -0.8744  C.ar    1  <O>11       0.0106
  26 C19       4.8141    -5.4602     2.3899  C.ar    1  <O>11      -0.0555
  27 C20       5.7636    -4.5338     2.8379  C.ar    1  <O>11      -0.0254
  28 C21       5.9513    -3.3251     2.1651  C.ar    1  <O>11       0.1355
  29 F1        6.8874    -2.4209     2.5979  F       1  <O>11      -0.2047
  30 H1        5.4443    -1.2860    -3.4760  H       1  <O>11       0.0279
  31 H2        5.0124    -0.5398    -5.0333  H       1  <O>11       0.0279
  32 H3        4.2391    -2.0624    -4.5311  H       1  <O>11       0.0279
  33 H4        4.6389     0.7360    -0.5584  H       1  <O>11       0.0528
  34 H5        5.5297    -0.1031    -1.8510  H       1  <O>11       0.0528
  35 H6        3.6024    -1.9222    -0.7710  H       1  <O>11       0.1494
  36 H7        2.2273    -5.6070     0.2917  H       1  <O>11       0.0377
  37 H8        2.6578    -6.7097     1.6203  H       1  <O>11       0.0377
  38 H9        6.6227    -7.6890    -1.5759  H       1  <O>11       0.1921
  39 H10       2.1268    -0.1015    -5.0964  H       1  <O>11       0.1060
  40 H11       3.6615    -3.7504    -0.2590  H       1  <O>11       0.0629
  41 H12       3.1265   -10.3273    -3.3031  H       1  <O>11       0.0625
  42 H13       0.7669   -10.5649    -2.8192  H       1  <O>11       0.0618
  43 H14      -0.2620    -9.1864    -1.1101  H       1  <O>11       0.0618
  44 H15       1.0692    -7.5744     0.1098  H       1  <O>11       0.0624
  45 H16       4.6813    -6.3524     2.8914  H       1  <O>11       0.0621
  46 H17       6.3302    -4.7466     3.6737  H       1  <O>11       0.0646
@<TRIPOS>BOND
     1     1     2    1
     2     2     3   ar
     3     3     4   ar
     4     4     5   ar
     5     5     6   ar
     6     2     6   ar
     7     6     7    1
     8     7     8    1
     9     8     9   am
    10     9    10    2
    11     9    11    1
    12    11    12   ar
    13    12    13   ar
    14    13    14    1
    15    14    15    1
    16    15    16   ar
    17    16    17   ar
    18    17    18   ar
    19    18    19    2
    20    18    20   ar
    21    20    21   ar
    22    21    22   ar
    23    22    23   ar
    24    23    24   ar
    25    24    25   ar
    26    15    25   ar
    27    20    25   ar
    28    13    26   ar
    29    26    27   ar
    30    27    28   ar
    31    11    28   ar
    32    28    29    1
    33     1    30    1
    34     1    31    1
    35     1    32    1
    36     7    33    1
    37     7    34    1
    38     8    35    1
    39    14    36    1
    40    14    37    1
    41    17    38    1
    42     3    39    1
    43    12    40    1
    44    21    41    1
    45    22    42    1
    46    23    43    1
    47    24    44    1
    48    26    45    1
    49    27    46    1
@<TRIPOS>MOLECULE
mol77_1_4
 46 49 0 0 0
SMALL
USER_CHARGES
****
VDW energy = 21.37
@<TRIPOS>ATOM
   1 C1        4.6343    -1.1079    -4.1833  C.3     1  <O>11      -0.0349
   2 C2        3.5757    -0.3543    -3.5287  C.ar    1  <O>11       0.0129
   3 C3        2.3924     0.0545    -4.1114  C.ar    1  <O>11       0.1274
   4 O1        1.6328     0.6942    -3.1846  O.2     1  <O>11      -0.3624
   5 N1        2.3060     0.7440    -1.9842  N.ar    1  <O>11      -0.0815
   6 C4        3.4827     0.1342    -2.1909  C.ar    1  <O>11       0.1034
   7 C5        4.6000    -0.0770    -1.2830  C.3     1  <O>11       0.0578
   8 N2        4.8411    -1.5101    -1.1339  N.am    1  <O>11      -0.3056
   9 C6        5.8498    -1.9544    -0.3228  C.2     1  <O>11       0.2472
  10 O2        6.5494    -1.1525     0.2775  O.2     1  <O>11      -0.2701
  11 C7        6.0889    -3.3842    -0.1753  C.ar    1  <O>11       0.0721
  12 C8        5.5012    -4.2971    -1.0678  C.ar    1  <O>11      -0.0433
  13 C9        5.7211    -5.6707    -0.9174  C.ar    1  <O>11      -0.0406
  14 C10       5.0956    -6.6206    -1.8586  C.3     1  <O>11       0.0171
  15 C11       3.7639    -7.0285    -1.3416  C.ar    1  <O>11       0.0736
  16 N3        3.2526    -6.4356    -0.1809  N.ar    1  <O>11      -0.1750
  17 N4        2.0913    -6.8687     0.3616  N.ar    1  <O>11      -0.2425
  18 C12       1.4237    -7.8809    -0.2412  C.ar    1  <O>11       0.2725
  19 O3        0.2746    -8.3515     0.4254  O.2     1  <O>11      -0.2658
  20 C13       1.8112    -8.4595    -1.4570  C.ar    1  <O>11       0.0496
  21 C14       1.0843    -9.4756    -2.1175  C.ar    1  <O>11      -0.0487
  22 C15       1.5444   -10.0328    -3.3113  C.ar    1  <O>11      -0.0610
  23 C16       2.7414    -9.5899    -3.8632  C.ar    1  <O>11      -0.0611
  24 C17       3.4769    -8.5917    -3.2221  C.ar    1  <O>11      -0.0521
  25 C18       3.0214    -8.0126    -2.0157  C.ar    1  <O>11       0.0106
  26 C19       6.5314    -6.1453     0.1172  C.ar    1  <O>11      -0.0555
  27 C20       7.1220    -5.2358     1.0028  C.ar    1  <O>11      -0.0254
  28 C21       6.9099    -3.8634     0.8601  C.ar    1  <O>11       0.1355
  29 F1        7.4953    -2.9711     1.7217  F       1  <O>11      -0.2047
  30 H1        5.4443    -1.2860    -3.4760  H       1  <O>11       0.0279
  31 H2        5.0124    -0.5398    -5.0333  H       1  <O>11       0.0279
  32 H3        4.2391    -2.0624    -4.5311  H       1  <O>11       0.0279
  33 H4        4.3649     0.3539    -0.3101  H       1  <O>11       0.0528
  34 H5        5.4919     0.4015    -1.6871  H       1  <O>11       0.0528
  35 H6        4.2562    -2.1793    -1.6353  H       1  <O>11       0.1494
  36 H7        5.7299    -7.5001    -1.9642  H       1  <O>11       0.0377
  37 H8        4.9749    -6.1417    -2.8312  H       1  <O>11       0.0377
  38 H9        1.7303    -6.4449     1.2031  H       1  <O>11       0.1921
  39 H10       2.1268    -0.1015    -5.0964  H       1  <O>11       0.1060
  40 H11       4.9054    -3.9530    -1.8369  H       1  <O>11       0.0629
  41 H12       0.1977    -9.8113    -1.7099  H       1  <O>11       0.0625
  42 H13       0.9984   -10.7707    -3.7828  H       1  <O>11       0.0618
  43 H14       3.0857    -9.9989    -4.7459  H       1  <O>11       0.0618
  44 H15       4.3668    -8.2716    -3.6351  H       1  <O>11       0.0624
  45 H16       6.6933    -7.1586     0.2278  H       1  <O>11       0.0621
  46 H17       7.7200    -5.5834     1.7687  H       1  <O>11       0.0646
@<TRIPOS>BOND
     1     1     2    1
     2     2     3   ar
     3     3     4   ar
     4     4     5   ar
     5     5     6   ar
     6     2     6   ar
     7     6     7    1
     8     7     8    1
     9     8     9   am
    10     9    10    2
    11     9    11    1
    12    11    12   ar
    13    12    13   ar
    14    13    14    1
    15    14    15    1
    16    15    16   ar
    17    16    17   ar
    18    17    18   ar
    19    18    19    2
    20    18    20   ar
    21    20    21   ar
    22    21    22   ar
    23    22    23   ar
    24    23    24   ar
    25    24    25   ar
    26    15    25   ar
    27    20    25   ar
    28    13    26   ar
    29    26    27   ar
    30    27    28   ar
    31    11    28   ar
    32    28    29    1
    33     1    30    1
    34     1    31    1
    35     1    32    1
    36     7    33    1
    37     7    34    1
    38     8    35    1
    39    14    36    1
    40    14    37    1
    41    17    38    1
    42     3    39    1
    43    12    40    1
    44    21    41    1
    45    22    42    1
    46    23    43    1
    47    24    44    1
    48    26    45    1
    49    27    46    1
@<TRIPOS>MOLECULE
mol77_1_5
 46 49 0 0 0
SMALL
USER_CHARGES
****
VDW energy = 23.51
@<TRIPOS>ATOM
   1 C1        4.6343    -1.1079    -4.1833  C.3     1  <O>11      -0.0349
   2 C2        3.5757    -0.3543    -3.5287  C.ar    1  <O>11       0.0129
   3 C3        2.3924     0.0545    -4.1114  C.ar    1  <O>11       0.1274
   4 O1        1.6328     0.6942    -3.1846  O.2     1  <O>11      -0.3624
   5 N1        2.3060     0.7440    -1.9842  N.ar    1  <O>11      -0.0815
   6 C4        3.4827     0.1342    -2.1909  C.ar    1  <O>11       0.1034
   7 C5        4.6000    -0.0770    -1.2830  C.3     1  <O>11       0.0578
   8 N2        4.4225    -1.3455    -0.5805  N.am    1  <O>11      -0.3056
   9 C6        5.3547    -1.7598     0.3318  C.2     1  <O>11       0.2472
  10 O2        6.3361    -1.0685     0.5594  O.2     1  <O>11      -0.2701
  11 C7        5.1761    -3.0254     1.0314  C.ar    1  <O>11       0.0721
  12 C8        4.2276    -3.9582     0.5784  C.ar    1  <O>11      -0.0433
  13 C9        4.0479    -5.1676     1.2588  C.ar    1  <O>11      -0.0406
  14 C10       3.0458    -6.1384     0.7760  C.3     1  <O>11       0.0171
  15 C11       1.6989    -5.5119     0.7919  C.ar    1  <O>11       0.0736
  16 N3        1.5603    -4.1599     1.1281  N.ar    1  <O>11      -0.1750
  17 N4        0.3342    -3.6009     1.2495  N.ar    1  <O>11      -0.2425
  18 C12      -0.7603    -4.3679     1.0314  C.ar    1  <O>11       0.2725
  19 O3       -2.0066    -3.7544     1.2695  O.2     1  <O>11      -0.2658
  20 C13      -0.7095    -5.6978     0.5936  C.ar    1  <O>11       0.0496
  21 C14      -1.8503    -6.4818     0.3090  C.ar    1  <O>11      -0.0487
  22 C15      -1.7297    -7.8129    -0.0921  C.ar    1  <O>11      -0.0610
  23 C16      -0.4686    -8.3865    -0.2101  C.ar    1  <O>11      -0.0611
  24 C17       0.6699    -7.6301     0.0729  C.ar    1  <O>11      -0.0521
  25 C18       0.5652    -6.2787     0.4742  C.ar    1  <O>11       0.0106
  26 C19       4.8141    -5.4602     2.3899  C.ar    1  <O>11      -0.0555
  27 C20       5.7636    -4.5338     2.8379  C.ar    1  <O>11      -0.0254
  28 C21       5.9513    -3.3251     2.1651  C.ar    1  <O>11       0.1355
  29 F1        6.8874    -2.4209     2.5979  F       1  <O>11      -0.2047
  30 H1        5.4443    -1.2860    -3.4760  H       1  <O>11       0.0279
  31 H2        5.0124    -0.5398    -5.0333  H       1  <O>11       0.0279
  32 H3        4.2391    -2.0624    -4.5311  H       1  <O>11       0.0279
  33 H4        4.6389     0.7360    -0.5584  H       1  <O>11       0.0528
  34 H5        5.5297    -0.1031    -1.8510  H       1  <O>11       0.0528
  35 H6        3.6024    -1.9222    -0.7710  H       1  <O>11       0.1494
  36 H7        3.0469    -7.0153     1.4226  H       1  <O>11       0.0377
  37 H8        3.2931    -6.4390    -0.2429  H       1  <O>11       0.0377
  38 H9        0.2378    -2.6284     1.5005  H       1  <O>11       0.1921
  39 H10       2.1268    -0.1015    -5.0964  H       1  <O>11       0.1060
  40 H11       3.6615    -3.7504    -0.2590  H       1  <O>11       0.0629
  41 H12      -2.7889    -6.0626     0.3995  H       1  <O>11       0.0625
  42 H13      -2.5734    -8.3695    -0.3005  H       1  <O>11       0.0618
  43 H14      -0.3744    -9.3705    -0.5065  H       1  <O>11       0.0618
  44 H15       1.6024    -8.0641    -0.0121  H       1  <O>11       0.0624
  45 H16       4.6813    -6.3524     2.8914  H       1  <O>11       0.0621
  46 H17       6.3302    -4.7466     3.6737  H       1  <O>11       0.0646
@<TRIPOS>BOND
     1     1     2    1
     2     2     3   ar
     3     3     4   ar
     4     4     5   ar
     5     5     6   ar
     6     2     6   ar
     7     6     7    1
     8     7     8    1
     9     8     9   am
    10     9    10    2
    11     9    11    1
    12    11    12   ar
    13    12    13   ar
    14    13    14    1
    15    14    15    1
    16    15    16   ar
    17    16    17   ar
    18    17    18   ar
    19    18    19    2
    20    18    20   ar
    21    20    21   ar
    22    21    22   ar
    23    22    23   ar
    24    23    24   ar
    25    24    25   ar
    26    15    25   ar
    27    20    25   ar
    28    13    26   ar
    29    26    27   ar
    30    27    28   ar
    31    11    28   ar
    32    28    29    1
    33     1    30    1
    34     1    31    1
    35     1    32    1
    36     7    33    1
    37     7    34    1
    38     8    35    1
    39    14    36    1
    40    14    37    1
    41    17    38    1
    42     3    39    1
    43    12    40    1
    44    21    41    1
    45    22    42    1
    46    23    43    1
    47    24    44    1
    48    26    45    1
    49    27    46    1
@<TRIPOS>MOLECULE
mol77_1_6
 46 49 0 0 0
SMALL
USER_CHARGES
****
VDW energy = 27.94
@<TRIPOS>ATOM
   1 C1        4.6343    -1.1079    -4.1833  C.3     1  <O>11      -0.0349
   2 C2        3.5757    -0.3543    -3.5287  C.ar    1  <O>11       0.0129
   3 C3        2.3924     0.0545    -4.1114  C.ar    1  <O>11       0.1274
   4 O1        1.6328     0.6942    -3.1846  O.2     1  <O>11      -0.3624
   5 N1        2.3060     0.7440    -1.9842  N.ar    1  <O>11      -0.0815
   6 C4        3.4827     0.1342    -2.1909  C.ar    1  <O>11       0.1034
   7 C5        4.6000    -0.0770    -1.2830  C.3     1  <O>11       0.0578
   8 N2        4.8411    -1.5101    -1.1339  N.am    1  <O>11      -0.3056
   9 C6        3.7888    -2.3673    -0.9586  C.2     1  <O>11       0.2472
  10 O2        2.6468    -1.9344    -0.9269  O.2     1  <O>11      -0.2701
  11 C7        4.0313    -3.7964    -0.8099  C.ar    1  <O>11       0.0721
  12 C8        5.3280    -4.2724    -0.5509  C.ar    1  <O>11      -0.0433
  13 C9        5.5617    -5.6459    -0.4213  C.ar    1  <O>11      -0.0406
  14 C10       6.9287    -6.1347    -0.1530  C.3     1  <O>11       0.0171
  15 C11       7.6271    -6.3887    -1.4393  C.ar    1  <O>11       0.0736
  16 N3        7.0045    -6.0613    -2.6499  N.ar    1  <O>11      -0.1750
  17 N4        7.5807    -6.3815    -3.8314  N.ar    1  <O>11      -0.2425
  18 C12       8.7765    -7.0169    -3.8264  C.ar    1  <O>11       0.2725
  19 O3        9.2764    -7.4104    -5.0840  O.2     1  <O>11      -0.2658
  20 C13       9.5132    -7.2896    -2.6663  C.ar    1  <O>11       0.0496
  21 C14      10.7878    -7.8998    -2.6629  C.ar    1  <O>11      -0.0487
  22 C15      11.4539    -8.1738    -1.4677  C.ar    1  <O>11      -0.0610
  23 C16      10.8565    -7.8492    -0.2548  C.ar    1  <O>11      -0.0611
  24 C17       9.5950    -7.2518    -0.2374  C.ar    1  <O>11      -0.0521
  25 C18       8.9099    -6.9619    -1.4394  C.ar    1  <O>11       0.0106
  26 C19       4.5071    -6.5545    -0.5419  C.ar    1  <O>11      -0.0555
  27 C20       3.2141    -6.0802    -0.7938  C.ar    1  <O>11      -0.0254
  28 C21       2.9705    -4.7118    -0.9233  C.ar    1  <O>11       0.1355
  29 F1        1.7026    -4.2456    -1.1611  F       1  <O>11      -0.2047
  30 H1        5.4443    -1.2860    -3.4760  H       1  <O>11       0.0279
  31 H2        5.0124    -0.5398    -5.0333  H       1  <O>11       0.0279
  32 H3        4.2391    -2.0624    -4.5311  H       1  <O>11       0.0279
  33 H4        4.3649     0.3539    -0.3101  H       1  <O>11       0.0528
  34 H5        5.4919     0.4015    -1.6871  H       1  <O>11       0.0528
  35 H6        5.7953    -1.8710    -1.1607  H       1  <O>11       0.1494
  36 H7        6.8790    -7.0584     0.4227  H       1  <O>11       0.0377
  37 H8        7.4782    -5.3828     0.4148  H       1  <O>11       0.0377
  38 H9        7.1250    -6.1518    -4.7017  H       1  <O>11       0.1921
  39 H10       2.1268    -0.1015    -5.0964  H       1  <O>11       0.1060
  40 H11       6.1106    -3.6065    -0.4561  H       1  <O>11       0.0629
  41 H12      11.2338    -8.1472    -3.5601  H       1  <O>11       0.0625
  42 H13      12.3864    -8.6156    -1.4839  H       1  <O>11       0.0618
  43 H14      11.3452    -8.0498     0.6317  H       1  <O>11       0.0618
  44 H15       9.1558    -7.0183     0.6668  H       1  <O>11       0.0624
  45 H16       4.6800    -7.5674    -0.4462  H       1  <O>11       0.0621
  46 H17       2.4333    -6.7489    -0.8846  H       1  <O>11       0.0646
@<TRIPOS>BOND
     1     1     2    1
     2     2     3   ar
     3     3     4   ar
     4     4     5   ar
     5     5     6   ar
     6     2     6   ar
     7     6     7    1
     8     7     8    1
     9     8     9   am
    10     9    10    2
    11     9    11    1
    12    11    12   ar
    13    12    13   ar
    14    13    14    1
    15    14    15    1
    16    15    16   ar
    17    16    17   ar
    18    17    18   ar
    19    18    19    2
    20    18    20   ar
    21    20    21   ar
    22    21    22   ar
    23    22    23   ar
    24    23    24   ar
    25    24    25   ar
    26    15    25   ar
    27    20    25   ar
    28    13    26   ar
    29    26    27   ar
    30    27    28   ar
    31    11    28   ar
    32    28    29    1
    33     1    30    1
    34     1    31    1
    35     1    32    1
    36     7    33    1
    37     7    34    1
    38     8    35    1
    39    14    36    1
    40    14    37    1
    41    17    38    1
    42     3    39    1
    43    12    40    1
    44    21    41    1
    45    22    42    1
    46    23    43    1
    47    24    44    1
    48    26    45    1
    49    27    46    1
@<TRIPOS>MOLECULE
mol77_1_7
 46 49 0 0 0
SMALL
USER_CHARGES
****
VDW energy = 28.54
@<TRIPOS>ATOM
   1 C1        4.6343    -1.1079    -4.1833  C.3     1  <O>11      -0.0349
   2 C2        3.5757    -0.3543    -3.5287  C.ar    1  <O>11       0.0129
   3 C3        2.3924     0.0545    -4.1114  C.ar    1  <O>11       0.1274
   4 O1        1.6328     0.6942    -3.1846  O.2     1  <O>11      -0.3624
   5 N1        2.3060     0.7440    -1.9842  N.ar    1  <O>11      -0.0815
   6 C4        3.4827     0.1342    -2.1909  C.ar    1  <O>11       0.1034
   7 C5        4.6000    -0.0770    -1.2830  C.3     1  <O>11       0.0578
   8 N2        4.4225    -1.3455    -0.5805  N.am    1  <O>11      -0.3056
   9 C6        3.1975    -1.6812    -0.0712  C.2     1  <O>11       0.2472
  10 O2        2.2511    -0.9199    -0.2040  O.2     1  <O>11      -0.2701
  11 C7        3.0224    -2.9468     0.6293  C.ar    1  <O>11       0.0721
  12 C8        1.8538    -3.7048     0.4425  C.ar    1  <O>11      -0.0433
  13 C9        1.6812    -4.9137     1.1256  C.ar    1  <O>11      -0.0406
  14 C10       0.4478    -5.6998     0.9245  C.3     1  <O>11       0.0171
  15 C11      -0.5765    -5.2794     1.9149  C.ar    1  <O>11       0.0736
  16 N3       -0.3175    -4.2070     2.7769  N.ar    1  <O>11      -0.1750
  17 N4       -1.1947    -3.8784     3.7532  N.ar    1  <O>11      -0.2425
  18 C12      -2.3348    -4.5981     3.8792  C.ar    1  <O>11       0.2725
  19 O3       -3.1589    -4.2703     4.9745  O.2     1  <O>11      -0.2658
  20 C13      -2.7180    -5.6180     2.9983  C.ar    1  <O>11       0.0496
  21 C14      -3.9346    -6.3306     3.0934  C.ar    1  <O>11      -0.0487
  22 C15      -4.2403    -7.3594     2.2014  C.ar    1  <O>11      -0.0610
  23 C16      -3.3341    -7.6989     1.2029  C.ar    1  <O>11      -0.0611
  24 C17      -2.1243    -7.0108     1.0969  C.ar    1  <O>11      -0.0521
  25 C18      -1.8024    -5.9621     1.9884  C.ar    1  <O>11       0.0106
  26 C19       2.6716    -5.3798     1.9940  C.ar    1  <O>11      -0.0555
  27 C20       3.8387    -4.6279     2.1756  C.ar    1  <O>11      -0.0254
  28 C21       4.0209    -3.4214     1.4975  C.ar    1  <O>11       0.1355
  29 F1        5.1677    -2.6886     1.6679  F       1  <O>11      -0.2047
  30 H1        5.4443    -1.2860    -3.4760  H       1  <O>11       0.0279
  31 H2        5.0124    -0.5398    -5.0333  H       1  <O>11       0.0279
  32 H3        4.2391    -2.0624    -4.5311  H       1  <O>11       0.0279
  33 H4        4.6389     0.7360    -0.5584  H       1  <O>11       0.0528
  34 H5        5.5297    -0.1031    -1.8510  H       1  <O>11       0.0528
  35 H6        5.2134    -1.9810    -0.4702  H       1  <O>11       0.1494
  36 H7        0.6658    -6.7593     1.0539  H       1  <O>11       0.0377
  37 H8        0.0684    -5.5281    -0.0836  H       1  <O>11       0.0377
  38 H9       -1.0007    -3.1105     4.3781  H       1  <O>11       0.1921
  39 H10       2.1268    -0.1015    -5.0964  H       1  <O>11       0.1060
  40 H11       1.1203    -3.3687    -0.2009  H       1  <O>11       0.0629
  41 H12      -4.6088    -6.0860     3.8354  H       1  <O>11       0.0625
  42 H13      -5.1356    -7.8663     2.2825  H       1  <O>11       0.0618
  43 H14      -3.5558    -8.4589     0.5409  H       1  <O>11       0.0618
  44 H15      -1.4546    -7.2717     0.3563  H       1  <O>11       0.0624
  45 H16       2.5439    -6.2715     2.4977  H       1  <O>11       0.0621
  46 H17       4.5715    -4.9691     2.8172  H       1  <O>11       0.0646
@<TRIPOS>BOND
     1     1     2    1
     2     2     3   ar
     3     3     4   ar
     4     4     5   ar
     5     5     6   ar
     6     2     6   ar
     7     6     7    1
     8     7     8    1
     9     8     9   am
    10     9    10    2
    11     9    11    1
    12    11    12   ar
    13    12    13   ar
    14    13    14    1
    15    14    15    1
    16    15    16   ar
    17    16    17   ar
    18    17    18   ar
    19    18    19    2
    20    18    20   ar
    21    20    21   ar
    22    21    22   ar
    23    22    23   ar
    24    23    24   ar
    25    24    25   ar
    26    15    25   ar
    27    20    25   ar
    28    13    26   ar
    29    26    27   ar
    30    27    28   ar
    31    11    28   ar
    32    28    29    1
    33     1    30    1
    34     1    31    1
    35     1    32    1
    36     7    33    1
    37     7    34    1
    38     8    35    1
    39    14    36    1
    40    14    37    1
    41    17    38    1
    42     3    39    1
    43    12    40    1
    44    21    41    1
    45    22    42    1
    46    23    43    1
    47    24    44    1
    48    26    45    1
    49    27    46    1
@<TRIPOS>MOLECULE
mol77_1_8
 46 49 0 0 0
SMALL
USER_CHARGES
****
VDW energy = 28.91
@<TRIPOS>ATOM
   1 C1        4.6343    -1.1079    -4.1833  C.3     1  <O>11      -0.0349
   2 C2        3.5757    -0.3543    -3.5287  C.ar    1  <O>11       0.0129
   3 C3        2.3924     0.0545    -4.1114  C.ar    1  <O>11       0.1274
   4 O1        1.6328     0.6942    -3.1846  O.2     1  <O>11      -0.3624
   5 N1        2.3060     0.7440    -1.9842  N.ar    1  <O>11      -0.0815
   6 C4        3.4827     0.1342    -2.1909  C.ar    1  <O>11       0.1034
   7 C5        4.6000    -0.0770    -1.2830  C.3     1  <O>11       0.0578
   8 N2        4.4225    -1.3455    -0.5805  N.am    1  <O>11      -0.3056
   9 C6        3.1975    -1.6812    -0.0712  C.2     1  <O>11       0.2472
  10 O2        2.2511    -0.9199    -0.2040  O.2     1  <O>11      -0.2701
  11 C7        3.0224    -2.9468     0.6293  C.ar    1  <O>11       0.0721
  12 C8        2.2202    -3.0145     1.7812  C.ar    1  <O>11      -0.0433
  13 C9        2.0633    -4.2278     2.4604  C.ar    1  <O>11      -0.0406
  14 C10       1.2213    -4.2863     3.6717  C.3     1  <O>11       0.0171
  15 C11       1.7666    -3.3644     4.7011  C.ar    1  <O>11       0.0736
  16 N3        1.3363    -2.0328     4.7460  N.ar    1  <O>11      -0.1750
  17 N4        1.8986    -1.1542     5.6077  N.ar    1  <O>11      -0.2425
  18 C12       2.8801    -1.5848     6.4353  C.ar    1  <O>11       0.2725
  19 O3        3.4922    -0.6014     7.2380  O.2     1  <O>11      -0.2658
  20 C13       3.2981    -2.9190     6.5260  C.ar    1  <O>11       0.0496
  21 C14       4.2810    -3.3810     7.4302  C.ar    1  <O>11      -0.0487
  22 C15       4.6755    -4.7195     7.4459  C.ar    1  <O>11      -0.0610
  23 C16       4.1003    -5.6187     6.5549  C.ar    1  <O>11      -0.0611
  24 C17       3.1325    -5.1801     5.6498  C.ar    1  <O>11      -0.0521
  25 C18       2.7173    -3.8291     5.6255  C.ar    1  <O>11       0.0106
  26 C19       2.6977    -5.3826     1.9955  C.ar    1  <O>11      -0.0555
  27 C20       3.4920    -5.3168     0.8443  C.ar    1  <O>11      -0.0254
  28 C21       3.6535    -4.1115     0.1589  C.ar    1  <O>11       0.1355
  29 F1        4.4240    -4.0479    -0.9740  F       1  <O>11      -0.2047
  30 H1        5.4443    -1.2860    -3.4760  H       1  <O>11       0.0279
  31 H2        5.0124    -0.5398    -5.0333  H       1  <O>11       0.0279
  32 H3        4.2391    -2.0624    -4.5311  H       1  <O>11       0.0279
  33 H4        4.6389     0.7360    -0.5584  H       1  <O>11       0.0528
  34 H5        5.5297    -0.1031    -1.8510  H       1  <O>11       0.0528
  35 H6        5.2134    -1.9810    -0.4702  H       1  <O>11       0.1494
  36 H7        1.2138    -5.3036     4.0616  H       1  <O>11       0.0377
  37 H8        0.2030    -3.9867     3.4206  H       1  <O>11       0.0377
  38 H9        1.5921    -0.1933     5.6312  H       1  <O>11       0.1921
  39 H10       2.1268    -0.1015    -5.0964  H       1  <O>11       0.1060
  40 H11       1.7452    -2.1664     2.1275  H       1  <O>11       0.0629
  41 H12       4.7146    -2.7169     8.0905  H       1  <O>11       0.0625
  42 H13       5.3914    -5.0406     8.1162  H       1  <O>11       0.0618
  43 H14       4.3888    -6.6096     6.5627  H       1  <O>11       0.0618
  44 H15       2.7137    -5.8523     4.9882  H       1  <O>11       0.0624
  45 H16       2.5817    -6.2773     2.4967  H       1  <O>11       0.0621
  46 H17       3.9627    -6.1679     0.4991  H       1  <O>11       0.0646
@<TRIPOS>BOND
     1     1     2    1
     2     2     3   ar
     3     3     4   ar
     4     4     5   ar
     5     5     6   ar
     6     2     6   ar
     7     6     7    1
     8     7     8    1
     9     8     9   am
    10     9    10    2
    11     9    11    1
    12    11    12   ar
    13    12    13   ar
    14    13    14    1
    15    14    15    1
    16    15    16   ar
    17    16    17   ar
    18    17    18   ar
    19    18    19    2
    20    18    20   ar
    21    20    21   ar
    22    21    22   ar
    23    22    23   ar
    24    23    24   ar
    25    24    25   ar
    26    15    25   ar
    27    20    25   ar
    28    13    26   ar
    29    26    27   ar
    30    27    28   ar
    31    11    28   ar
    32    28    29    1
    33     1    30    1
    34     1    31    1
    35     1    32    1
    36     7    33    1
    37     7    34    1
    38     8    35    1
    39    14    36    1
    40    14    37    1
    41    17    38    1
    42     3    39    1
    43    12    40    1
    44    21    41    1
    45    22    42    1
    46    23    43    1
    47    24    44    1
    48    26    45    1
    49    27    46    1
@<TRIPOS>MOLECULE
mol77_1_9
 46 49 0 0 0
SMALL
USER_CHARGES
****
VDW energy = 30.56
@<TRIPOS>ATOM
   1 C1        4.6343    -1.1079    -4.1833  C.3     1  <O>11      -0.0349
   2 C2        3.5757    -0.3543    -3.5287  C.ar    1  <O>11       0.0129
   3 C3        2.3924     0.0545    -4.1114  C.ar    1  <O>11       0.1274
   4 O1        1.6328     0.6942    -3.1846  O.2     1  <O>11      -0.3624
   5 N1        2.3060     0.7440    -1.9842  N.ar    1  <O>11      -0.0815
   6 C4        3.4827     0.1342    -2.1909  C.ar    1  <O>11       0.1034
   7 C5        4.6000    -0.0770    -1.2830  C.3     1  <O>11       0.0578
   8 N2        4.8411    -1.5101    -1.1339  N.am    1  <O>11      -0.3056
   9 C6        3.7888    -2.3673    -0.9586  C.2     1  <O>11       0.2472
  10 O2        2.6468    -1.9344    -0.9269  O.2     1  <O>11      -0.2701
  11 C7        4.0313    -3.7964    -0.8099  C.ar    1  <O>11       0.0721
  12 C8        5.3280    -4.2724    -0.5509  C.ar    1  <O>11      -0.0433
  13 C9        5.5617    -5.6459    -0.4213  C.ar    1  <O>11      -0.0406
  14 C10       6.9287    -6.1347    -0.1530  C.3     1  <O>11       0.0171
  15 C11       7.6271    -6.3887    -1.4393  C.ar    1  <O>11       0.0736
  16 N3        8.3609    -5.3652    -2.0509  N.ar    1  <O>11      -0.1750
  17 N4        8.9150    -5.5474    -3.2717  N.ar    1  <O>11      -0.2425
  18 C12       8.7569    -6.7409    -3.8916  C.ar    1  <O>11       0.2725
  19 O3        9.2722    -6.8348    -5.2000  O.2     1  <O>11      -0.2658
  20 C13       8.1266    -7.8482    -3.3088  C.ar    1  <O>11       0.0496
  21 C14       8.0121    -9.1121    -3.9305  C.ar    1  <O>11      -0.0487
  22 C15       7.3413   -10.1652    -3.3072  C.ar    1  <O>11      -0.0610
  23 C16       6.7676    -9.9730    -2.0553  C.ar    1  <O>11      -0.0611
  24 C17       6.8645    -8.7299    -1.4279  C.ar    1  <O>11      -0.0521
  25 C18       7.5460    -7.6549    -2.0430  C.ar    1  <O>11       0.0106
  26 C19       4.5071    -6.5545    -0.5419  C.ar    1  <O>11      -0.0555
  27 C20       3.2141    -6.0802    -0.7938  C.ar    1  <O>11      -0.0254
  28 C21       2.9705    -4.7118    -0.9233  C.ar    1  <O>11       0.1355
  29 F1        1.7026    -4.2456    -1.1611  F       1  <O>11      -0.2047
  30 H1        5.4443    -1.2860    -3.4760  H       1  <O>11       0.0279
  31 H2        5.0124    -0.5398    -5.0333  H       1  <O>11       0.0279
  32 H3        4.2391    -2.0624    -4.5311  H       1  <O>11       0.0279
  33 H4        4.3649     0.3539    -0.3101  H       1  <O>11       0.0528
  34 H5        5.4919     0.4015    -1.6871  H       1  <O>11       0.0528
  35 H6        5.7953    -1.8710    -1.1607  H       1  <O>11       0.1494
  36 H7        6.8790    -7.0584     0.4227  H       1  <O>11       0.0377
  37 H8        7.4782    -5.3828     0.4148  H       1  <O>11       0.0377
  38 H9        9.4358    -4.8046    -3.7132  H       1  <O>11       0.1921
  39 H10       2.1268    -0.1015    -5.0964  H       1  <O>11       0.1060
  40 H11       6.1106    -3.6065    -0.4561  H       1  <O>11       0.0629
  41 H12       8.4319    -9.2589    -4.8617  H       1  <O>11       0.0625
  42 H13       7.2713   -11.0830    -3.7737  H       1  <O>11       0.0618
  43 H14       6.2706   -10.7488    -1.5904  H       1  <O>11       0.0618
  44 H15       6.4320    -8.5934    -0.5010  H       1  <O>11       0.0624
  45 H16       4.6800    -7.5674    -0.4462  H       1  <O>11       0.0621
  46 H17       2.4333    -6.7489    -0.8846  H       1  <O>11       0.0646
@<TRIPOS>BOND
     1     1     2    1
     2     2     3   ar
     3     3     4   ar
     4     4     5   ar
     5     5     6   ar
     6     2     6   ar
     7     6     7    1
     8     7     8    1
     9     8     9   am
    10     9    10    2
    11     9    11    1
    12    11    12   ar
    13    12    13   ar
    14    13    14    1
    15    14    15    1
    16    15    16   ar
    17    16    17   ar
    18    17    18   ar
    19    18    19    2
    20    18    20   ar
    21    20    21   ar
    22    21    22   ar
    23    22    23   ar
    24    23    24   ar
    25    24    25   ar
    26    15    25   ar
    27    20    25   ar
    28    13    26   ar
    29    26    27   ar
    30    27    28   ar
    31    11    28   ar
    32    28    29    1
    33     1    30    1
    34     1    31    1
    35     1    32    1
    36     7    33    1
    37     7    34    1
    38     8    35    1
    39    14    36    1
    40    14    37    1
    41    17    38    1
    42     3    39    1
    43    12    40    1
    44    21    41    1
    45    22    42    1
    46    23    43    1
    47    24    44    1
    48    26    45    1
    49    27    46    1
@<TRIPOS>MOLECULE
mol77_1_10
 46 49 0 0 0
SMALL
USER_CHARGES
****
VDW energy = 30.95
@<TRIPOS>ATOM
   1 C1        4.6343    -1.1079    -4.1833  C.3     1  <O>11      -0.0349
   2 C2        3.5757    -0.3543    -3.5287  C.ar    1  <O>11       0.0129
   3 C3        2.3924     0.0545    -4.1114  C.ar    1  <O>11       0.1274
   4 O1        1.6328     0.6942    -3.1846  O.2     1  <O>11      -0.3624
   5 N1        2.3060     0.7440    -1.9842  N.ar    1  <O>11      -0.0815
   6 C4        3.4827     0.1342    -2.1909  C.ar    1  <O>11       0.1034
   7 C5        4.6000    -0.0770    -1.2830  C.3     1  <O>11       0.0578
   8 N2        4.4225    -1.3455    -0.5805  N.am    1  <O>11      -0.3056
   9 C6        3.1975    -1.6812    -0.0712  C.2     1  <O>11       0.2472
  10 O2        2.2511    -0.9199    -0.2040  O.2     1  <O>11      -0.2701
  11 C7        3.0224    -2.9468     0.6293  C.ar    1  <O>11       0.0721
  12 C8        1.8538    -3.7048     0.4425  C.ar    1  <O>11      -0.0433
  13 C9        1.6812    -4.9137     1.1256  C.ar    1  <O>11      -0.0406
  14 C10       0.4478    -5.6998     0.9245  C.3     1  <O>11       0.0171
  15 C11      -0.5765    -5.2794     1.9149  C.ar    1  <O>11       0.0736
  16 N3       -1.4630    -4.2406     1.6063  N.ar    1  <O>11      -0.1750
  17 N4       -2.3313    -3.7756     2.5339  N.ar    1  <O>11      -0.2425
  18 C12      -2.3373    -4.3374     3.7660  C.ar    1  <O>11       0.2725
  19 O3       -3.1937    -3.7445     4.7153  O.2     1  <O>11      -0.2658
  20 C13      -1.5573    -5.4444     4.1252  C.ar    1  <O>11       0.0496
  21 C14      -1.6047    -6.0689     5.3920  C.ar    1  <O>11      -0.0487
  22 C15      -0.7753    -7.1492     5.6960  C.ar    1  <O>11      -0.0610
  23 C16       0.1205    -7.6209     4.7428  C.ar    1  <O>11      -0.0611
  24 C17       0.1866    -7.0131     3.4880  C.ar    1  <O>11      -0.0521
  25 C18      -0.6511    -5.9221     3.1622  C.ar    1  <O>11       0.0106
  26 C19       2.6716    -5.3798     1.9940  C.ar    1  <O>11      -0.0555
  27 C20       3.8387    -4.6279     2.1756  C.ar    1  <O>11      -0.0254
  28 C21       4.0209    -3.4214     1.4975  C.ar    1  <O>11       0.1355
  29 F1        5.1677    -2.6886     1.6679  F       1  <O>11      -0.2047
  30 H1        5.4443    -1.2860    -3.4760  H       1  <O>11       0.0279
  31 H2        5.0124    -0.5398    -5.0333  H       1  <O>11       0.0279
  32 H3        4.2391    -2.0624    -4.5311  H       1  <O>11       0.0279
  33 H4        4.6389     0.7360    -0.5584  H       1  <O>11       0.0528
  34 H5        5.5297    -0.1031    -1.8510  H       1  <O>11       0.0528
  35 H6        5.2134    -1.9810    -0.4702  H       1  <O>11       0.1494
  36 H7        0.6658    -6.7593     1.0539  H       1  <O>11       0.0377
  37 H8        0.0684    -5.5281    -0.0836  H       1  <O>11       0.0377
  38 H9       -2.9627    -3.0209     2.3108  H       1  <O>11       0.1921
  39 H10       2.1268    -0.1015    -5.0964  H       1  <O>11       0.1060
  40 H11       1.1203    -3.3687    -0.2009  H       1  <O>11       0.0629
  41 H12      -2.2643    -5.7199     6.1048  H       1  <O>11       0.0625
  42 H13      -0.8265    -7.5963     6.6247  H       1  <O>11       0.0618
  43 H14       0.7358    -8.4195     4.9629  H       1  <O>11       0.0618
  44 H15       0.8574    -7.3656     2.7874  H       1  <O>11       0.0624
  45 H16       2.5439    -6.2715     2.4977  H       1  <O>11       0.0621
  46 H17       4.5715    -4.9691     2.8172  H       1  <O>11       0.0646
@<TRIPOS>BOND
     1     1     2    1
     2     2     3   ar
     3     3     4   ar
     4     4     5   ar
     5     5     6   ar
     6     2     6   ar
     7     6     7    1
     8     7     8    1
     9     8     9   am
    10     9    10    2
    11     9    11    1
    12    11    12   ar
    13    12    13   ar
    14    13    14    1
    15    14    15    1
    16    15    16   ar
    17    16    17   ar
    18    17    18   ar
    19    18    19    2
    20    18    20   ar
    21    20    21   ar
    22    21    22   ar
    23    22    23   ar
    24    23    24   ar
    25    24    25   ar
    26    15    25   ar
    27    20    25   ar
    28    13    26   ar
    29    26    27   ar
    30    27    28   ar
    31    11    28   ar
    32    28    29    1
    33     1    30    1
    34     1    31    1
    35     1    32    1
    36     7    33    1
    37     7    34    1
    38     8    35    1
    39    14    36    1
    40    14    37    1
    41    17    38    1
    42     3    39    1
    43    12    40    1
    44    21    41    1
    45    22    42    1
    46    23    43    1
    47    24    44    1
    48    26    45    1
    49    27    46    1
@<TRIPOS>MOLECULE
mol77_1_11
 46 49 0 0 0
SMALL
USER_CHARGES
****
VDW energy = 31.73
@<TRIPOS>ATOM
   1 C1        4.6343    -1.1079    -4.1833  C.3     1  <O>11      -0.0349
   2 C2        3.5757    -0.3543    -3.5287  C.ar    1  <O>11       0.0129
   3 C3        2.3924     0.0545    -4.1114  C.ar    1  <O>11       0.1274
   4 O1        1.6328     0.6942    -3.1846  O.2     1  <O>11      -0.3624
   5 N1        2.3060     0.7440    -1.9842  N.ar    1  <O>11      -0.0815
   6 C4        3.4827     0.1342    -2.1909  C.ar    1  <O>11       0.1034
   7 C5        4.6000    -0.0770    -1.2830  C.3     1  <O>11       0.0578
   8 N2        4.4225    -1.3455    -0.5805  N.am    1  <O>11      -0.3056
   9 C6        3.1975    -1.6812    -0.0712  C.2     1  <O>11       0.2472
  10 O2        2.2511    -0.9199    -0.2040  O.2     1  <O>11      -0.2701
  11 C7        3.0224    -2.9468     0.6293  C.ar    1  <O>11       0.0721
  12 C8        2.2202    -3.0145     1.7812  C.ar    1  <O>11      -0.0433
  13 C9        2.0633    -4.2278     2.4604  C.ar    1  <O>11      -0.0406
  14 C10       1.2213    -4.2863     3.6717  C.3     1  <O>11       0.0171
  15 C11       1.7666    -3.3644     4.7011  C.ar    1  <O>11       0.0736
  16 N3        2.9182    -2.6157     4.4300  N.ar    1  <O>11      -0.1750
  17 N4        3.4873    -1.8520     5.3910  N.ar    1  <O>11      -0.2425
  18 C12       2.9200    -1.8148     6.6200  C.ar    1  <O>11       0.2725
  19 O3        3.6140    -1.0809     7.6030  O.2     1  <O>11      -0.2658
  20 C13       1.7147    -2.4507     6.9454  C.ar    1  <O>11       0.0496
  21 C14       1.0906    -2.3651     8.2104  C.ar    1  <O>11      -0.0487
  22 C15      -0.0943    -3.0515     8.4788  C.ar    1  <O>11      -0.0610
  23 C16      -0.6735    -3.8405     7.4911  C.ar    1  <O>11      -0.0611
  24 C17      -0.0686    -3.9428     6.2373  C.ar    1  <O>11      -0.0521
  25 C18       1.1283    -3.2488     5.9474  C.ar    1  <O>11       0.0106
  26 C19       2.6977    -5.3826     1.9955  C.ar    1  <O>11      -0.0555
  27 C20       3.4920    -5.3168     0.8443  C.ar    1  <O>11      -0.0254
  28 C21       3.6535    -4.1115     0.1589  C.ar    1  <O>11       0.1355
  29 F1        4.4240    -4.0479    -0.9740  F       1  <O>11      -0.2047
  30 H1        5.4443    -1.2860    -3.4760  H       1  <O>11       0.0279
  31 H2        5.0124    -0.5398    -5.0333  H       1  <O>11       0.0279
  32 H3        4.2391    -2.0624    -4.5311  H       1  <O>11       0.0279
  33 H4        4.6389     0.7360    -0.5584  H       1  <O>11       0.0528
  34 H5        5.5297    -0.1031    -1.8510  H       1  <O>11       0.0528
  35 H6        5.2134    -1.9810    -0.4702  H       1  <O>11       0.1494
  36 H7        1.2138    -5.3036     4.0616  H       1  <O>11       0.0377
  37 H8        0.2030    -3.9867     3.4206  H       1  <O>11       0.0377
  38 H9        4.3222    -1.3206     5.1947  H       1  <O>11       0.1921
  39 H10       2.1268    -0.1015    -5.0964  H       1  <O>11       0.1060
  40 H11       1.7452    -2.1664     2.1275  H       1  <O>11       0.0629
  41 H12       1.5186    -1.7847     8.9486  H       1  <O>11       0.0625
  42 H13      -0.5391    -2.9739     9.4068  H       1  <O>11       0.0618
  43 H14      -1.5498    -4.3500     7.6849  H       1  <O>11       0.0618
  44 H15      -0.5017    -4.5342     5.5109  H       1  <O>11       0.0624
  45 H16       2.5817    -6.2773     2.4967  H       1  <O>11       0.0621
  46 H17       3.9627    -6.1679     0.4991  H       1  <O>11       0.0646
@<TRIPOS>BOND
     1     1     2    1
     2     2     3   ar
     3     3     4   ar
     4     4     5   ar
     5     5     6   ar
     6     2     6   ar
     7     6     7    1
     8     7     8    1
     9     8     9   am
    10     9    10    2
    11     9    11    1
    12    11    12   ar
    13    12    13   ar
    14    13    14    1
    15    14    15    1
    16    15    16   ar
    17    16    17   ar
    18    17    18   ar
    19    18    19    2
    20    18    20   ar
    21    20    21   ar
    22    21    22   ar
    23    22    23   ar
    24    23    24   ar
    25    24    25   ar
    26    15    25   ar
    27    20    25   ar
    28    13    26   ar
    29    26    27   ar
    30    27    28   ar
    31    11    28   ar
    32    28    29    1
    33     1    30    1
    34     1    31    1
    35     1    32    1
    36     7    33    1
    37     7    34    1
    38     8    35    1
    39    14    36    1
    40    14    37    1
    41    17    38    1
    42     3    39    1
    43    12    40    1
    44    21    41    1
    45    22    42    1
    46    23    43    1
    47    24    44    1
    48    26    45    1
    49    27    46    1
@<TRIPOS>MOLECULE
mol77_1_12
 46 49 0 0 0
SMALL
USER_CHARGES
****
VDW energy = 34.97
@<TRIPOS>ATOM
   1 C1        4.6343    -1.1079    -4.1833  C.3     1  <O>11      -0.0349
   2 C2        3.5757    -0.3543    -3.5287  C.ar    1  <O>11       0.0129
   3 C3        2.3924     0.0545    -4.1114  C.ar    1  <O>11       0.1274
   4 O1        1.6328     0.6942    -3.1846  O.2     1  <O>11      -0.3624
   5 N1        2.3060     0.7440    -1.9842  N.ar    1  <O>11      -0.0815
   6 C4        3.4827     0.1342    -2.1909  C.ar    1  <O>11       0.1034
   7 C5        4.6000    -0.0770    -1.2830  C.3     1  <O>11       0.0578
   8 N2        4.8411    -1.5101    -1.1339  N.am    1  <O>11      -0.3056
   9 C6        3.7888    -2.3673    -0.9586  C.2     1  <O>11       0.2472
  10 O2        2.6468    -1.9344    -0.9269  O.2     1  <O>11      -0.2701
  11 C7        4.0313    -3.7964    -0.8099  C.ar    1  <O>11       0.0721
  12 C8        5.3280    -4.2724    -0.5509  C.ar    1  <O>11      -0.0433
  13 C9        5.5617    -5.6459    -0.4213  C.ar    1  <O>11      -0.0406
  14 C10       6.9287    -6.1347    -0.1530  C.3     1  <O>11       0.0171
  15 C11       6.9168    -7.6173    -0.0587  C.ar    1  <O>11       0.0736
  16 N3        7.1127    -8.3928    -1.2078  N.ar    1  <O>11      -0.1750
  17 N4        7.0008    -9.7402    -1.1587  N.ar    1  <O>11      -0.2425
  18 C12       6.7049   -10.3306     0.0235  C.ar    1  <O>11       0.2725
  19 O3        6.5050   -11.7253    -0.0110  O.2     1  <O>11      -0.2658
  20 C13       6.5938    -9.6397     1.2373  C.ar    1  <O>11       0.0496
  21 C14       6.3430   -10.2606     2.4817  C.ar    1  <O>11      -0.0487
  22 C15       6.2107    -9.5089     3.6500  C.ar    1  <O>11      -0.0610
  23 C16       6.3200    -8.1239     3.5954  C.ar    1  <O>11      -0.0611
  24 C17       6.5611    -7.4917     2.3744  C.ar    1  <O>11      -0.0521
  25 C18       6.7040    -8.2391     1.1831  C.ar    1  <O>11       0.0106
  26 C19       4.5071    -6.5545    -0.5419  C.ar    1  <O>11      -0.0555
  27 C20       3.2141    -6.0802    -0.7938  C.ar    1  <O>11      -0.0254
  28 C21       2.9705    -4.7118    -0.9233  C.ar    1  <O>11       0.1355
  29 F1        1.7026    -4.2456    -1.1611  F       1  <O>11      -0.2047
  30 H1        5.4443    -1.2860    -3.4760  H       1  <O>11       0.0279
  31 H2        5.0124    -0.5398    -5.0333  H       1  <O>11       0.0279
  32 H3        4.2391    -2.0624    -4.5311  H       1  <O>11       0.0279
  33 H4        4.3649     0.3539    -0.3101  H       1  <O>11       0.0528
  34 H5        5.4919     0.4015    -1.6871  H       1  <O>11       0.0528
  35 H6        5.7953    -1.8710    -1.1607  H       1  <O>11       0.1494
  36 H7        7.2890    -5.7134     0.7849  H       1  <O>11       0.0377
  37 H8        7.5894    -5.8290    -0.9653  H       1  <O>11       0.0377
  38 H9        7.1341   -10.2954    -1.9905  H       1  <O>11       0.1921
  39 H10       2.1268    -0.1015    -5.0964  H       1  <O>11       0.1060
  40 H11       6.1106    -3.6065    -0.4561  H       1  <O>11       0.0629
  41 H12       6.2562   -11.2879     2.5274  H       1  <O>11       0.0625
  42 H13       6.0324    -9.9793     4.5511  H       1  <O>11       0.0618
  43 H14       6.2230    -7.5637     4.4567  H       1  <O>11       0.0618
  44 H15       6.6362    -6.4630     2.3409  H       1  <O>11       0.0624
  45 H16       4.6800    -7.5674    -0.4462  H       1  <O>11       0.0621
  46 H17       2.4333    -6.7489    -0.8846  H       1  <O>11       0.0646
@<TRIPOS>BOND
     1     1     2    1
     2     2     3   ar
     3     3     4   ar
     4     4     5   ar
     5     5     6   ar
     6     2     6   ar
     7     6     7    1
     8     7     8    1
     9     8     9   am
    10     9    10    2
    11     9    11    1
    12    11    12   ar
    13    12    13   ar
    14    13    14    1
    15    14    15    1
    16    15    16   ar
    17    16    17   ar
    18    17    18   ar
    19    18    19    2
    20    18    20   ar
    21    20    21   ar
    22    21    22   ar
    23    22    23   ar
    24    23    24   ar
    25    24    25   ar
    26    15    25   ar
    27    20    25   ar
    28    13    26   ar
    29    26    27   ar
    30    27    28   ar
    31    11    28   ar
    32    28    29    1
    33     1    30    1
    34     1    31    1
    35     1    32    1
    36     7    33    1
    37     7    34    1
    38     8    35    1
    39    14    36    1
    40    14    37    1
    41    17    38    1
    42     3    39    1
    43    12    40    1
    44    21    41    1
    45    22    42    1
    46    23    43    1
    47    24    44    1
    48    26    45    1
    49    27    46    1
@<TRIPOS>MOLECULE
mol77_1_13
 46 49 0 0 0
SMALL
USER_CHARGES
****
VDW energy = 35.78
@<TRIPOS>ATOM
   1 C1        4.6343    -1.1079    -4.1833  C.3     1  <O>11      -0.0349
   2 C2        3.5757    -0.3543    -3.5287  C.ar    1  <O>11       0.0129
   3 C3        2.3924     0.0545    -4.1114  C.ar    1  <O>11       0.1274
   4 O1        1.6328     0.6942    -3.1846  O.2     1  <O>11      -0.3624
   5 N1        2.3060     0.7440    -1.9842  N.ar    1  <O>11      -0.0815
   6 C4        3.4827     0.1342    -2.1909  C.ar    1  <O>11       0.1034
   7 C5        4.6000    -0.0770    -1.2830  C.3     1  <O>11       0.0578
   8 N2        4.4225    -1.3455    -0.5805  N.am    1  <O>11      -0.3056
   9 C6        3.1975    -1.6812    -0.0712  C.2     1  <O>11       0.2472
  10 O2        2.2511    -0.9199    -0.2040  O.2     1  <O>11      -0.2701
  11 C7        3.0224    -2.9468     0.6293  C.ar    1  <O>11       0.0721
  12 C8        4.1418    -3.6880     1.0447  C.ar    1  <O>11      -0.0433
  13 C9        3.9725    -4.9095     1.7058  C.ar    1  <O>11      -0.0406
  14 C10       5.1558    -5.6814     2.1343  C.3     1  <O>11       0.0171
  15 C11       5.5439    -5.2738     3.5091  C.ar    1  <O>11       0.0736
  16 N3        4.7500    -4.3656     4.2198  N.ar    1  <O>11      -0.1750
  17 N4        5.1433    -3.9040     5.4293  N.ar    1  <O>11      -0.2425
  18 C12       6.3149    -4.3416     5.9485  C.ar    1  <O>11       0.2725
  19 O3        6.7160    -3.7501     7.1632  O.2     1  <O>11      -0.2658
  20 C13       7.1172    -5.3233     5.3521  C.ar    1  <O>11       0.0496
  21 C14       8.3102    -5.8237     5.9207  C.ar    1  <O>11      -0.0487
  22 C15       9.0809    -6.7792     5.2571  C.ar    1  <O>11      -0.0610
  23 C16       8.6774    -7.2471     4.0114  C.ar    1  <O>11      -0.0611
  24 C17       7.5054    -6.7601     3.4305  C.ar    1  <O>11      -0.0521
  25 C18       6.7102    -5.7970     4.0925  C.ar    1  <O>11       0.0106
  26 C19       2.6895    -5.3991     1.9637  C.ar    1  <O>11      -0.0555
  27 C20       1.5740    -4.6579     1.5555  C.ar    1  <O>11      -0.0254
  28 C21       1.7325    -3.4375     0.8966  C.ar    1  <O>11       0.1355
  29 F1        0.6403    -2.7064     0.5043  F       1  <O>11      -0.2047
  30 H1        5.4443    -1.2860    -3.4760  H       1  <O>11       0.0279
  31 H2        5.0124    -0.5398    -5.0333  H       1  <O>11       0.0279
  32 H3        4.2391    -2.0624    -4.5311  H       1  <O>11       0.0279
  33 H4        4.6389     0.7360    -0.5584  H       1  <O>11       0.0528
  34 H5        5.5297    -0.1031    -1.8510  H       1  <O>11       0.0528
  35 H6        5.2134    -1.9810    -0.4702  H       1  <O>11       0.1494
  36 H7        5.9826    -5.4903     1.4510  H       1  <O>11       0.0377
  37 H8        4.9173    -6.7457     2.1261  H       1  <O>11       0.0377
  38 H9        4.5730    -3.2429     5.9348  H       1  <O>11       0.1921
  39 H10       2.1268    -0.1015    -5.0964  H       1  <O>11       0.1060
  40 H11       5.0922    -3.3300     0.8615  H       1  <O>11       0.0629
  41 H12       8.6169    -5.4765     6.8429  H       1  <O>11       0.0625
  42 H13       9.9470    -7.1372     5.6892  H       1  <O>11       0.0618
  43 H14       9.2440    -7.9538     3.5168  H       1  <O>11       0.0618
  44 H15       7.2149    -7.1085     2.5036  H       1  <O>11       0.0624
  45 H16       2.5650    -6.3000     2.4514  H       1  <O>11       0.0621
  46 H17       0.6251    -5.0175     1.7435  H       1  <O>11       0.0646
@<TRIPOS>BOND
     1     1     2    1
     2     2     3   ar
     3     3     4   ar
     4     4     5   ar
     5     5     6   ar
     6     2     6   ar
     7     6     7    1
     8     7     8    1
     9     8     9   am
    10     9    10    2
    11     9    11    1
    12    11    12   ar
    13    12    13   ar
    14    13    14    1
    15    14    15    1
    16    15    16   ar
    17    16    17   ar
    18    17    18   ar
    19    18    19    2
    20    18    20   ar
    21    20    21   ar
    22    21    22   ar
    23    22    23   ar
    24    23    24   ar
    25    24    25   ar
    26    15    25   ar
    27    20    25   ar
    28    13    26   ar
    29    26    27   ar
    30    27    28   ar
    31    11    28   ar
    32    28    29    1
    33     1    30    1
    34     1    31    1
    35     1    32    1
    36     7    33    1
    37     7    34    1
    38     8    35    1
    39    14    36    1
    40    14    37    1
    41    17    38    1
    42     3    39    1
    43    12    40    1
    44    21    41    1
    45    22    42    1
    46    23    43    1
    47    24    44    1
    48    26    45    1
    49    27    46    1
@<TRIPOS>MOLECULE
mol77_1_14
 46 49 0 0 0
SMALL
USER_CHARGES
****
VDW energy = 35.96
@<TRIPOS>ATOM
   1 C1        4.6343    -1.1079    -4.1833  C.3     1  <O>11      -0.0349
   2 C2        3.5757    -0.3543    -3.5287  C.ar    1  <O>11       0.0129
   3 C3        2.3924     0.0545    -4.1114  C.ar    1  <O>11       0.1274
   4 O1        1.6328     0.6942    -3.1846  O.2     1  <O>11      -0.3624
   5 N1        2.3060     0.7440    -1.9842  N.ar    1  <O>11      -0.0815
   6 C4        3.4827     0.1342    -2.1909  C.ar    1  <O>11       0.1034
   7 C5        4.6000    -0.0770    -1.2830  C.3     1  <O>11       0.0578
   8 N2        4.4225    -1.3455    -0.5805  N.am    1  <O>11      -0.3056
   9 C6        3.1975    -1.6812    -0.0712  C.2     1  <O>11       0.2472
  10 O2        2.2511    -0.9199    -0.2040  O.2     1  <O>11      -0.2701
  11 C7        3.0224    -2.9468     0.6293  C.ar    1  <O>11       0.0721
  12 C8        4.1418    -3.6880     1.0447  C.ar    1  <O>11      -0.0433
  13 C9        3.9725    -4.9095     1.7058  C.ar    1  <O>11      -0.0406
  14 C10       5.1558    -5.6814     2.1343  C.3     1  <O>11       0.0171
  15 C11       5.5644    -6.6087     1.0479  C.ar    1  <O>11       0.0736
  16 N3        4.9077    -6.5707    -0.1880  N.ar    1  <O>11      -0.1750
  17 N4        5.1956    -7.4765    -1.1509  N.ar    1  <O>11      -0.2425
  18 C12       6.1375    -8.4177    -0.9047  C.ar    1  <O>11       0.2725
  19 O3        6.3211    -9.3906    -1.9078  O.2     1  <O>11      -0.2658
  20 C13       6.9114    -8.4641     0.2623  C.ar    1  <O>11       0.0496
  21 C14       7.9351    -9.4098     0.4964  C.ar    1  <O>11      -0.0487
  22 C15       8.6467    -9.4212     1.6968  C.ar    1  <O>11      -0.0610
  23 C16       8.3444    -8.4929     2.6869  C.ar    1  <O>11      -0.0611
  24 C17       7.3321    -7.5550     2.4769  C.ar    1  <O>11      -0.0521
  25 C18       6.6064    -7.5260     1.2642  C.ar    1  <O>11       0.0106
  26 C19       2.6895    -5.3991     1.9637  C.ar    1  <O>11      -0.0555
  27 C20       1.5740    -4.6579     1.5555  C.ar    1  <O>11      -0.0254
  28 C21       1.7325    -3.4375     0.8966  C.ar    1  <O>11       0.1355
  29 F1        0.6403    -2.7064     0.5043  F       1  <O>11      -0.2047
  30 H1        5.4443    -1.2860    -3.4760  H       1  <O>11       0.0279
  31 H2        5.0124    -0.5398    -5.0333  H       1  <O>11       0.0279
  32 H3        4.2391    -2.0624    -4.5311  H       1  <O>11       0.0279
  33 H4        4.6389     0.7360    -0.5584  H       1  <O>11       0.0528
  34 H5        5.5297    -0.1031    -1.8510  H       1  <O>11       0.0528
  35 H6        5.2134    -1.9810    -0.4702  H       1  <O>11       0.1494
  36 H7        4.9132    -6.2536     3.0291  H       1  <O>11       0.0377
  37 H8        5.9761    -4.9966     2.3532  H       1  <O>11       0.0377
  38 H9        4.7142    -7.4516    -2.0372  H       1  <O>11       0.1921
  39 H10       2.1268    -0.1015    -5.0964  H       1  <O>11       0.1060
  40 H11       5.0922    -3.3300     0.8615  H       1  <O>11       0.0629
  41 H12       8.1604   -10.1040    -0.2331  H       1  <O>11       0.0625
  42 H13       9.3945   -10.1159     1.8491  H       1  <O>11       0.0618
  43 H14       8.8680    -8.4973     3.5763  H       1  <O>11       0.0618
  44 H15       7.1101    -6.8723     3.2183  H       1  <O>11       0.0624
  45 H16       2.5650    -6.3000     2.4514  H       1  <O>11       0.0621
  46 H17       0.6251    -5.0175     1.7435  H       1  <O>11       0.0646
@<TRIPOS>BOND
     1     1     2    1
     2     2     3   ar
     3     3     4   ar
     4     4     5   ar
     5     5     6   ar
     6     2     6   ar
     7     6     7    1
     8     7     8    1
     9     8     9   am
    10     9    10    2
    11     9    11    1
    12    11    12   ar
    13    12    13   ar
    14    13    14    1
    15    14    15    1
    16    15    16   ar
    17    16    17   ar
    18    17    18   ar
    19    18    19    2
    20    18    20   ar
    21    20    21   ar
    22    21    22   ar
    23    22    23   ar
    24    23    24   ar
    25    24    25   ar
    26    15    25   ar
    27    20    25   ar
    28    13    26   ar
    29    26    27   ar
    30    27    28   ar
    31    11    28   ar
    32    28    29    1
    33     1    30    1
    34     1    31    1
    35     1    32    1
    36     7    33    1
    37     7    34    1
    38     8    35    1
    39    14    36    1
    40    14    37    1
    41    17    38    1
    42     3    39    1
    43    12    40    1
    44    21    41    1
    45    22    42    1
    46    23    43    1
    47    24    44    1
    48    26    45    1
    49    27    46    1
@<TRIPOS>MOLECULE
mol77_1_15
 46 49 0 0 0
SMALL
USER_CHARGES
****
VDW energy = 36.74
@<TRIPOS>ATOM
   1 C1        4.6343    -1.1079    -4.1833  C.3     1  <O>11      -0.0349
   2 C2        3.5757    -0.3543    -3.5287  C.ar    1  <O>11       0.0129
   3 C3        2.3924     0.0545    -4.1114  C.ar    1  <O>11       0.1274
   4 O1        1.6328     0.6942    -3.1846  O.2     1  <O>11      -0.3624
   5 N1        2.3060     0.7440    -1.9842  N.ar    1  <O>11      -0.0815
   6 C4        3.4827     0.1342    -2.1909  C.ar    1  <O>11       0.1034
   7 C5        4.6000    -0.0770    -1.2830  C.3     1  <O>11       0.0578
   8 N2        4.4225    -1.3455    -0.5805  N.am    1  <O>11      -0.3056
   9 C6        3.1975    -1.6812    -0.0712  C.2     1  <O>11       0.2472
  10 O2        2.2511    -0.9199    -0.2040  O.2     1  <O>11      -0.2701
  11 C7        3.0224    -2.9468     0.6293  C.ar    1  <O>11       0.0721
  12 C8        4.1418    -3.6880     1.0447  C.ar    1  <O>11      -0.0433
  13 C9        3.9725    -4.9095     1.7058  C.ar    1  <O>11      -0.0406
  14 C10       5.1558    -5.6814     2.1343  C.3     1  <O>11       0.0171
  15 C11       5.9816    -6.0246     0.9480  C.ar    1  <O>11       0.0736
  16 N3        6.9908    -5.1526     0.5223  N.ar    1  <O>11      -0.1750
  17 N4        7.6810    -5.3982    -0.6152  N.ar    1  <O>11      -0.2425
  18 C12       7.3871    -6.5079    -1.3334  C.ar    1  <O>11       0.2725
  19 O3        8.0711    -6.6558    -2.5567  O.2     1  <O>11      -0.2658
  20 C13       6.4659    -7.4821    -0.9269  C.ar    1  <O>11       0.0496
  21 C14       6.2004    -8.6696    -1.6456  C.ar    1  <O>11      -0.0487
  22 C15       5.2445    -9.5840    -1.2012  C.ar    1  <O>11      -0.0610
  23 C16       4.5324    -9.3259    -0.0351  C.ar    1  <O>11      -0.0611
  24 C17       4.7758    -8.1552     0.6851  C.ar    1  <O>11      -0.0521
  25 C18       5.7452    -7.2220     0.2519  C.ar    1  <O>11       0.0106
  26 C19       2.6895    -5.3991     1.9637  C.ar    1  <O>11      -0.0555
  27 C20       1.5740    -4.6579     1.5555  C.ar    1  <O>11      -0.0254
  28 C21       1.7325    -3.4375     0.8966  C.ar    1  <O>11       0.1355
  29 F1        0.6403    -2.7064     0.5043  F       1  <O>11      -0.2047
  30 H1        5.4443    -1.2860    -3.4760  H       1  <O>11       0.0279
  31 H2        5.0124    -0.5398    -5.0333  H       1  <O>11       0.0279
  32 H3        4.2391    -2.0624    -4.5311  H       1  <O>11       0.0279
  33 H4        4.6389     0.7360    -0.5584  H       1  <O>11       0.0528
  34 H5        5.5297    -0.1031    -1.8510  H       1  <O>11       0.0528
  35 H6        5.2134    -1.9810    -0.4702  H       1  <O>11       0.1494
  36 H7        4.8340    -6.5963     2.6306  H       1  <O>11       0.0377
  37 H8        5.7486    -5.0824     2.8268  H       1  <O>11       0.0377
  38 H9        8.4017    -4.7630    -0.9236  H       1  <O>11       0.1921
  39 H10       2.1268    -0.1015    -5.0964  H       1  <O>11       0.1060
  40 H11       5.0922    -3.3300     0.8615  H       1  <O>11       0.0629
  41 H12       6.7226    -8.8640    -2.5142  H       1  <O>11       0.0625
  42 H13       5.0667   -10.4486    -1.7360  H       1  <O>11       0.0618
  43 H14       3.8245    -9.9991     0.2975  H       1  <O>11       0.0618
  44 H15       4.2399    -7.9681     1.5469  H       1  <O>11       0.0624
  45 H16       2.5650    -6.3000     2.4514  H       1  <O>11       0.0621
  46 H17       0.6251    -5.0175     1.7435  H       1  <O>11       0.0646
@<TRIPOS>BOND
     1     1     2    1
     2     2     3   ar
     3     3     4   ar
     4     4     5   ar
     5     5     6   ar
     6     2     6   ar
     7     6     7    1
     8     7     8    1
     9     8     9   am
    10     9    10    2
    11     9    11    1
    12    11    12   ar
    13    12    13   ar
    14    13    14    1
    15    14    15    1
    16    15    16   ar
    17    16    17   ar
    18    17    18   ar
    19    18    19    2
    20    18    20   ar
    21    20    21   ar
    22    21    22   ar
    23    22    23   ar
    24    23    24   ar
    25    24    25   ar
    26    15    25   ar
    27    20    25   ar
    28    13    26   ar
    29    26    27   ar
    30    27    28   ar
    31    11    28   ar
    32    28    29    1
    33     1    30    1
    34     1    31    1
    35     1    32    1
    36     7    33    1
    37     7    34    1
    38     8    35    1
    39    14    36    1
    40    14    37    1
    41    17    38    1
    42     3    39    1
    43    12    40    1
    44    21    41    1
    45    22    42    1
    46    23    43    1
    47    24    44    1
    48    26    45    1
    49    27    46    1
@<TRIPOS>MOLECULE
mol77_1_16
 46 49 0 0 0
SMALL
USER_CHARGES
****
VDW energy = 37.29
@<TRIPOS>ATOM
   1 C1        4.6343    -1.1079    -4.1833  C.3     1  <O>11      -0.0349
   2 C2        3.5757    -0.3543    -3.5287  C.ar    1  <O>11       0.0129
   3 C3        2.3924     0.0545    -4.1114  C.ar    1  <O>11       0.1274
   4 O1        1.6328     0.6942    -3.1846  O.2     1  <O>11      -0.3624
   5 N1        2.3060     0.7440    -1.9842  N.ar    1  <O>11      -0.0815
   6 C4        3.4827     0.1342    -2.1909  C.ar    1  <O>11       0.1034
   7 C5        4.6000    -0.0770    -1.2830  C.3     1  <O>11       0.0578
   8 N2        4.2840     0.5030     0.0200  N.am    1  <O>11      -0.3056
   9 C6        3.7079     1.7420     0.0970  C.2     1  <O>11       0.2472
  10 O2        3.4572     2.3638    -0.9244  O.2     1  <O>11      -0.2701
  11 C7        3.3935     2.3189     1.3975  C.ar    1  <O>11       0.0721
  12 C8        4.3408     3.1097     2.0701  C.ar    1  <O>11      -0.0433
  13 C9        4.0425     3.6524     3.3248  C.ar    1  <O>11      -0.0406
  14 C10       5.0468     4.4784     4.0238  C.3     1  <O>11       0.0171
  15 C11       4.8720     5.9032     3.6412  C.ar    1  <O>11       0.0736
  16 N3        3.8021     6.2809     2.8208  N.ar    1  <O>11      -0.1750
  17 N4        3.6879     7.5541     2.3777  N.ar    1  <O>11      -0.2425
  18 C12       4.6210     8.4630     2.7478  C.ar    1  <O>11       0.2725
  19 O3        4.5014     9.7451     2.1748  O.2     1  <O>11      -0.2658
  20 C13       5.6629     8.1942     3.6450  C.ar    1  <O>11       0.0496
  21 C14       6.6030     9.1564     4.0781  C.ar    1  <O>11      -0.0487
  22 C15       7.6380     8.8136     4.9490  C.ar    1  <O>11      -0.0610
  23 C16       7.7565     7.5029     5.3978  C.ar    1  <O>11      -0.0611
  24 C17       6.8414     6.5368     4.9762  C.ar    1  <O>11      -0.0521
  25 C18       5.7837     6.8691     4.0993  C.ar    1  <O>11       0.0106
  26 C19       2.7985     3.4179     3.9162  C.ar    1  <O>11      -0.0555
  27 C20       1.8522     2.6352     3.2436  C.ar    1  <O>11      -0.0254
  28 C21       2.1398     2.0906     1.9909  C.ar    1  <O>11       0.1355
  29 F1        1.2101     1.3313     1.3273  F       1  <O>11      -0.2047
  30 H1        5.4443    -1.2860    -3.4760  H       1  <O>11       0.0279
  31 H2        5.0124    -0.5398    -5.0333  H       1  <O>11       0.0279
  32 H3        4.2391    -2.0624    -4.5311  H       1  <O>11       0.0279
  33 H4        5.4920     0.4020    -1.6860  H       1  <O>11       0.0528
  34 H5        4.7800    -1.1460    -1.1710  H       1  <O>11       0.0528
  35 H6        4.4934    -0.0171     0.8727  H       1  <O>11       0.1494
  36 H7        6.0473     4.1475     3.7472  H       1  <O>11       0.0377
  37 H8        4.9157     4.3745     5.1017  H       1  <O>11       0.0377
  38 H9        2.9204     7.8208     1.7795  H       1  <O>11       0.1921
  39 H10       2.1268    -0.1015    -5.0964  H       1  <O>11       0.1060
  40 H11       5.2599     3.2906     1.6370  H       1  <O>11       0.0629
  41 H12       6.5226    10.1296     3.7444  H       1  <O>11       0.0625
  42 H13       8.3130     9.5301     5.2588  H       1  <O>11       0.0618
  43 H14       8.5202     7.2446     6.0420  H       1  <O>11       0.0618
  44 H15       6.9387     5.5650     5.3096  H       1  <O>11       0.0624
  45 H16       2.5789     3.8184     4.8416  H       1  <O>11       0.0621
  46 H17       0.9329     2.4593     3.6784  H       1  <O>11       0.0646
@<TRIPOS>BOND
     1     1     2    1
     2     2     3   ar
     3     3     4   ar
     4     4     5   ar
     5     5     6   ar
     6     2     6   ar
     7     6     7    1
     8     7     8    1
     9     8     9   am
    10     9    10    2
    11     9    11    1
    12    11    12   ar
    13    12    13   ar
    14    13    14    1
    15    14    15    1
    16    15    16   ar
    17    16    17   ar
    18    17    18   ar
    19    18    19    2
    20    18    20   ar
    21    20    21   ar
    22    21    22   ar
    23    22    23   ar
    24    23    24   ar
    25    24    25   ar
    26    15    25   ar
    27    20    25   ar
    28    13    26   ar
    29    26    27   ar
    30    27    28   ar
    31    11    28   ar
    32    28    29    1
    33     1    30    1
    34     1    31    1
    35     1    32    1
    36     7    33    1
    37     7    34    1
    38     8    35    1
    39    14    36    1
    40    14    37    1
    41    17    38    1
    42     3    39    1
    43    12    40    1
    44    21    41    1
    45    22    42    1
    46    23    43    1
    47    24    44    1
    48    26    45    1
    49    27    46    1
@<TRIPOS>MOLECULE
mol77_1_17
 46 49 0 0 0
SMALL
USER_CHARGES
****
VDW energy = 38.70
@<TRIPOS>ATOM
   1 C1        4.6343    -1.1079    -4.1833  C.3     1  <O>11      -0.0349
   2 C2        3.5757    -0.3543    -3.5287  C.ar    1  <O>11       0.0129
   3 C3        2.3924     0.0545    -4.1114  C.ar    1  <O>11       0.1274
   4 O1        1.6328     0.6942    -3.1846  O.2     1  <O>11      -0.3624
   5 N1        2.3060     0.7440    -1.9842  N.ar    1  <O>11      -0.0815
   6 C4        3.4827     0.1342    -2.1909  C.ar    1  <O>11       0.1034
   7 C5        4.6000    -0.0770    -1.2830  C.3     1  <O>11       0.0578
   8 N2        4.4225    -1.3455    -0.5805  N.am    1  <O>11      -0.3056
   9 C6        3.1975    -1.6812    -0.0712  C.2     1  <O>11       0.2472
  10 O2        2.2511    -0.9199    -0.2040  O.2     1  <O>11      -0.2701
  11 C7        3.0224    -2.9468     0.6293  C.ar    1  <O>11       0.0721
  12 C8        4.1418    -3.6880     1.0447  C.ar    1  <O>11      -0.0433
  13 C9        3.9725    -4.9095     1.7058  C.ar    1  <O>11      -0.0406
  14 C10       5.1558    -5.6814     2.1343  C.3     1  <O>11       0.0171
  15 C11       5.5644    -6.6087     1.0479  C.ar    1  <O>11       0.0736
  16 N3        6.4783    -6.1866     0.0749  N.ar    1  <O>11      -0.1750
  17 N4        6.7808    -6.9799    -0.9785  N.ar    1  <O>11      -0.2425
  18 C12       6.1921    -8.1957    -1.0737  C.ar    1  <O>11       0.2725
  19 O3        6.4723    -8.9322    -2.2422  O.2     1  <O>11      -0.2658
  20 C13       5.3472    -8.7350    -0.0947  C.ar    1  <O>11       0.0496
  21 C14       4.7786   -10.0269    -0.1641  C.ar    1  <O>11      -0.0487
  22 C15       3.9171   -10.4908     0.8310  C.ar    1  <O>11      -0.0610
  23 C16       3.6033    -9.6709     1.9092  C.ar    1  <O>11      -0.0611
  24 C17       4.1499    -8.3892     1.9920  C.ar    1  <O>11      -0.0521
  25 C18       5.0291    -7.9067     0.9959  C.ar    1  <O>11       0.0106
  26 C19       2.6895    -5.3991     1.9637  C.ar    1  <O>11      -0.0555
  27 C20       1.5740    -4.6579     1.5555  C.ar    1  <O>11      -0.0254
  28 C21       1.7325    -3.4375     0.8966  C.ar    1  <O>11       0.1355
  29 F1        0.6403    -2.7064     0.5043  F       1  <O>11      -0.2047
  30 H1        5.4443    -1.2860    -3.4760  H       1  <O>11       0.0279
  31 H2        5.0124    -0.5398    -5.0333  H       1  <O>11       0.0279
  32 H3        4.2391    -2.0624    -4.5311  H       1  <O>11       0.0279
  33 H4        4.6389     0.7360    -0.5584  H       1  <O>11       0.0528
  34 H5        5.5297    -0.1031    -1.8510  H       1  <O>11       0.0528
  35 H6        5.2134    -1.9810    -0.4702  H       1  <O>11       0.1494
  36 H7        4.9132    -6.2536     3.0291  H       1  <O>11       0.0377
  37 H8        5.9761    -4.9966     2.3532  H       1  <O>11       0.0377
  38 H9        7.4332    -6.6690    -1.6825  H       1  <O>11       0.1921
  39 H10       2.1268    -0.1015    -5.0964  H       1  <O>11       0.1060
  40 H11       5.0922    -3.3300     0.8615  H       1  <O>11       0.0629
  41 H12       5.0044   -10.6379    -0.9645  H       1  <O>11       0.0625
  42 H13       3.5145   -11.4389     0.7668  H       1  <O>11       0.0618
  43 H14       2.9667   -10.0096     2.6475  H       1  <O>11       0.0618
  44 H15       3.9085    -7.7846     2.7927  H       1  <O>11       0.0624
  45 H16       2.5650    -6.3000     2.4514  H       1  <O>11       0.0621
  46 H17       0.6251    -5.0175     1.7435  H       1  <O>11       0.0646
@<TRIPOS>BOND
     1     1     2    1
     2     2     3   ar
     3     3     4   ar
     4     4     5   ar
     5     5     6   ar
     6     2     6   ar
     7     6     7    1
     8     7     8    1
     9     8     9   am
    10     9    10    2
    11     9    11    1
    12    11    12   ar
    13    12    13   ar
    14    13    14    1
    15    14    15    1
    16    15    16   ar
    17    16    17   ar
    18    17    18   ar
    19    18    19    2
    20    18    20   ar
    21    20    21   ar
    22    21    22   ar
    23    22    23   ar
    24    23    24   ar
    25    24    25   ar
    26    15    25   ar
    27    20    25   ar
    28    13    26   ar
    29    26    27   ar
    30    27    28   ar
    31    11    28   ar
    32    28    29    1
    33     1    30    1
    34     1    31    1
    35     1    32    1
    36     7    33    1
    37     7    34    1
    38     8    35    1
    39    14    36    1
    40    14    37    1
    41    17    38    1
    42     3    39    1
    43    12    40    1
    44    21    41    1
    45    22    42    1
    46    23    43    1
    47    24    44    1
    48    26    45    1
    49    27    46    1
@<TRIPOS>MOLECULE
mol77_1_18
 46 49 0 0 0
SMALL
USER_CHARGES
****
VDW energy = 39.84
@<TRIPOS>ATOM
   1 C1        4.6343    -1.1079    -4.1833  C.3     1  <O>11      -0.0349
   2 C2        3.5757    -0.3543    -3.5287  C.ar    1  <O>11       0.0129
   3 C3        2.3924     0.0545    -4.1114  C.ar    1  <O>11       0.1274
   4 O1        1.6328     0.6942    -3.1846  O.2     1  <O>11      -0.3624
   5 N1        2.3060     0.7440    -1.9842  N.ar    1  <O>11      -0.0815
   6 C4        3.4827     0.1342    -2.1909  C.ar    1  <O>11       0.1034
   7 C5        4.6000    -0.0770    -1.2830  C.3     1  <O>11       0.0578
   8 N2        4.2840     0.5030     0.0200  N.am    1  <O>11      -0.3056
   9 C6        3.7079     1.7420     0.0970  C.2     1  <O>11       0.2472
  10 O2        3.4572     2.3638    -0.9244  O.2     1  <O>11      -0.2701
  11 C7        3.3935     2.3189     1.3975  C.ar    1  <O>11       0.0721
  12 C8        4.3408     3.1097     2.0701  C.ar    1  <O>11      -0.0433
  13 C9        4.0425     3.6524     3.3248  C.ar    1  <O>11      -0.0406
  14 C10       5.0468     4.4784     4.0238  C.3     1  <O>11       0.0171
  15 C11       5.3850     5.6608     3.1904  C.ar    1  <O>11       0.0736
  16 N3        4.6950     5.8943     1.9948  N.ar    1  <O>11      -0.1750
  17 N4        5.0601     6.9051     1.1730  N.ar    1  <O>11      -0.2425
  18 C12       6.1000     7.6961     1.5290  C.ar    1  <O>11       0.2725
  19 O3        6.4935     8.6671     0.5863  O.2     1  <O>11      -0.2658
  20 C13       6.7773     7.5955     2.7513  C.ar    1  <O>11       0.0496
  21 C14       7.8241     8.4572     3.1497  C.ar    1  <O>11      -0.0487
  22 C15       8.4800     8.2808     4.3688  C.ar    1  <O>11      -0.0610
  23 C16       8.1066     7.2374     5.2085  C.ar    1  <O>11      -0.0611
  24 C17       7.0792     6.3717     4.8296  C.ar    1  <O>11      -0.0521
  25 C18       6.4006     6.5406     3.6011  C.ar    1  <O>11       0.0106
  26 C19       2.7985     3.4179     3.9162  C.ar    1  <O>11      -0.0555
  27 C20       1.8522     2.6352     3.2436  C.ar    1  <O>11      -0.0254
  28 C21       2.1398     2.0906     1.9909  C.ar    1  <O>11       0.1355
  29 F1        1.2101     1.3313     1.3273  F       1  <O>11      -0.2047
  30 H1        5.4443    -1.2860    -3.4760  H       1  <O>11       0.0279
  31 H2        5.0124    -0.5398    -5.0333  H       1  <O>11       0.0279
  32 H3        4.2391    -2.0624    -4.5311  H       1  <O>11       0.0279
  33 H4        5.4920     0.4020    -1.6860  H       1  <O>11       0.0528
  34 H5        4.7800    -1.1460    -1.1710  H       1  <O>11       0.0528
  35 H6        4.4934    -0.0171     0.8727  H       1  <O>11       0.1494
  36 H7        5.9455     3.8882     4.1998  H       1  <O>11       0.0377
  37 H8        4.6402     4.8133     4.9790  H       1  <O>11       0.0377
  38 H9        4.5662     7.0651     0.3079  H       1  <O>11       0.1921
  39 H10       2.1268    -0.1015    -5.0964  H       1  <O>11       0.1060
  40 H11       5.2599     3.2906     1.6370  H       1  <O>11       0.0629
  41 H12       8.1085     9.2305     2.5283  H       1  <O>11       0.0625
  42 H13       9.2392     8.9225     4.6461  H       1  <O>11       0.0618
  43 H14       8.5886     7.1030     6.1111  H       1  <O>11       0.0618
  44 H15       6.8109     5.5966     5.4558  H       1  <O>11       0.0624
  45 H16       2.5789     3.8184     4.8416  H       1  <O>11       0.0621
  46 H17       0.9329     2.4593     3.6784  H       1  <O>11       0.0646
@<TRIPOS>BOND
     1     1     2    1
     2     2     3   ar
     3     3     4   ar
     4     4     5   ar
     5     5     6   ar
     6     2     6   ar
     7     6     7    1
     8     7     8    1
     9     8     9   am
    10     9    10    2
    11     9    11    1
    12    11    12   ar
    13    12    13   ar
    14    13    14    1
    15    14    15    1
    16    15    16   ar
    17    16    17   ar
    18    17    18   ar
    19    18    19    2
    20    18    20   ar
    21    20    21   ar
    22    21    22   ar
    23    22    23   ar
    24    23    24   ar
    25    24    25   ar
    26    15    25   ar
    27    20    25   ar
    28    13    26   ar
    29    26    27   ar
    30    27    28   ar
    31    11    28   ar
    32    28    29    1
    33     1    30    1
    34     1    31    1
    35     1    32    1
    36     7    33    1
    37     7    34    1
    38     8    35    1
    39    14    36    1
    40    14    37    1
    41    17    38    1
    42     3    39    1
    43    12    40    1
    44    21    41    1
    45    22    42    1
    46    23    43    1
    47    24    44    1
    48    26    45    1
    49    27    46    1
@<TRIPOS>MOLECULE
mol77_1_19
 46 49 0 0 0
SMALL
USER_CHARGES
****
VDW energy = 39.88
@<TRIPOS>ATOM
   1 C1        4.6343    -1.1079    -4.1833  C.3     1  <O>11      -0.0349
   2 C2        3.5757    -0.3543    -3.5287  C.ar    1  <O>11       0.0129
   3 C3        2.3924     0.0545    -4.1114  C.ar    1  <O>11       0.1274
   4 O1        1.6328     0.6942    -3.1846  O.2     1  <O>11      -0.3624
   5 N1        2.3060     0.7440    -1.9842  N.ar    1  <O>11      -0.0815
   6 C4        3.4827     0.1342    -2.1909  C.ar    1  <O>11       0.1034
   7 C5        4.6000    -0.0770    -1.2830  C.3     1  <O>11       0.0578
   8 N2        4.4225    -1.3455    -0.5805  N.am    1  <O>11      -0.3056
   9 C6        3.1975    -1.6812    -0.0712  C.2     1  <O>11       0.2472
  10 O2        2.2511    -0.9199    -0.2040  O.2     1  <O>11      -0.2701
  11 C7        3.0224    -2.9468     0.6293  C.ar    1  <O>11       0.0721
  12 C8        4.1418    -3.6880     1.0447  C.ar    1  <O>11      -0.0433
  13 C9        3.9725    -4.9095     1.7058  C.ar    1  <O>11      -0.0406
  14 C10       5.1558    -5.6814     2.1343  C.3     1  <O>11       0.0171
  15 C11       5.9816    -6.0246     0.9480  C.ar    1  <O>11       0.0736
  16 N3        5.6333    -5.5283    -0.3140  N.ar    1  <O>11      -0.1750
  17 N4        6.3114    -5.9149    -1.4191  N.ar    1  <O>11      -0.2425
  18 C12       7.3409    -6.7843    -1.2856  C.ar    1  <O>11       0.2725
  19 O3        7.9425    -7.2238    -2.4820  O.2     1  <O>11      -0.2658
  20 C13       7.8183    -7.2488    -0.0530  C.ar    1  <O>11       0.0496
  21 C14       8.9294    -8.1099     0.0922  C.ar    1  <O>11      -0.0487
  22 C15       9.3328    -8.5623     1.3492  C.ar    1  <O>11      -0.0610
  23 C16       8.6302    -8.1682     2.4825  C.ar    1  <O>11      -0.0611
  24 C17       7.5261    -7.3232     2.3589  C.ar    1  <O>11      -0.0521
  25 C18       7.1085    -6.8510     1.0936  C.ar    1  <O>11       0.0106
  26 C19       2.6895    -5.3991     1.9637  C.ar    1  <O>11      -0.0555
  27 C20       1.5740    -4.6579     1.5555  C.ar    1  <O>11      -0.0254
  28 C21       1.7325    -3.4375     0.8966  C.ar    1  <O>11       0.1355
  29 F1        0.6403    -2.7064     0.5043  F       1  <O>11      -0.2047
  30 H1        5.4443    -1.2860    -3.4760  H       1  <O>11       0.0279
  31 H2        5.0124    -0.5398    -5.0333  H       1  <O>11       0.0279
  32 H3        4.2391    -2.0624    -4.5311  H       1  <O>11       0.0279
  33 H4        4.6389     0.7360    -0.5584  H       1  <O>11       0.0528
  34 H5        5.5297    -0.1031    -1.8510  H       1  <O>11       0.0528
  35 H6        5.2134    -1.9810    -0.4702  H       1  <O>11       0.1494
  36 H7        4.8340    -6.5963     2.6306  H       1  <O>11       0.0377
  37 H8        5.7486    -5.0824     2.8268  H       1  <O>11       0.0377
  38 H9        6.0521    -5.5620    -2.3280  H       1  <O>11       0.1921
  39 H10       2.1268    -0.1015    -5.0964  H       1  <O>11       0.1060
  40 H11       5.0922    -3.3300     0.8615  H       1  <O>11       0.0629
  41 H12       9.4517    -8.4093    -0.7460  H       1  <O>11       0.0625
  42 H13      10.1495    -9.1870     1.4373  H       1  <O>11       0.0618
  43 H14       8.9248    -8.5001     3.4142  H       1  <O>11       0.0618
  44 H15       7.0066    -7.0390     3.2040  H       1  <O>11       0.0624
  45 H16       2.5650    -6.3000     2.4514  H       1  <O>11       0.0621
  46 H17       0.6251    -5.0175     1.7435  H       1  <O>11       0.0646
@<TRIPOS>BOND
     1     1     2    1
     2     2     3   ar
     3     3     4   ar
     4     4     5   ar
     5     5     6   ar
     6     2     6   ar
     7     6     7    1
     8     7     8    1
     9     8     9   am
    10     9    10    2
    11     9    11    1
    12    11    12   ar
    13    12    13   ar
    14    13    14    1
    15    14    15    1
    16    15    16   ar
    17    16    17   ar
    18    17    18   ar
    19    18    19    2
    20    18    20   ar
    21    20    21   ar
    22    21    22   ar
    23    22    23   ar
    24    23    24   ar
    25    24    25   ar
    26    15    25   ar
    27    20    25   ar
    28    13    26   ar
    29    26    27   ar
    30    27    28   ar
    31    11    28   ar
    32    28    29    1
    33     1    30    1
    34     1    31    1
    35     1    32    1
    36     7    33    1
    37     7    34    1
    38     8    35    1
    39    14    36    1
    40    14    37    1
    41    17    38    1
    42     3    39    1
    43    12    40    1
    44    21    41    1
    45    22    42    1
    46    23    43    1
    47    24    44    1
    48    26    45    1
    49    27    46    1
@<TRIPOS>MOLECULE
mol77_1_20
 46 49 0 0 0
SMALL
USER_CHARGES
****
VDW energy = 41.66
@<TRIPOS>ATOM
   1 C1        4.6343    -1.1079    -4.1833  C.3     1  <O>11      -0.0349
   2 C2        3.5757    -0.3543    -3.5287  C.ar    1  <O>11       0.0129
   3 C3        2.3924     0.0545    -4.1114  C.ar    1  <O>11       0.1274
   4 O1        1.6328     0.6942    -3.1846  O.2     1  <O>11      -0.3624
   5 N1        2.3060     0.7440    -1.9842  N.ar    1  <O>11      -0.0815
   6 C4        3.4827     0.1342    -2.1909  C.ar    1  <O>11       0.1034
   7 C5        4.6000    -0.0770    -1.2830  C.3     1  <O>11       0.0578
   8 N2        4.4225    -1.3455    -0.5805  N.am    1  <O>11      -0.3056
   9 C6        3.1975    -1.6812    -0.0712  C.2     1  <O>11       0.2472
  10 O2        2.2511    -0.9199    -0.2040  O.2     1  <O>11      -0.2701
  11 C7        3.0224    -2.9468     0.6293  C.ar    1  <O>11       0.0721
  12 C8        4.1418    -3.6880     1.0447  C.ar    1  <O>11      -0.0433
  13 C9        3.9725    -4.9095     1.7058  C.ar    1  <O>11      -0.0406
  14 C10       5.1558    -5.6814     2.1343  C.3     1  <O>11       0.0171
  15 C11       5.9638    -4.8686     3.0795  C.ar    1  <O>11       0.0736
  16 N3        5.7086    -4.9354     4.4545  N.ar    1  <O>11      -0.1750
  17 N4        6.3629    -4.1252     5.3183  N.ar    1  <O>11      -0.2425
  18 C12       7.2778    -3.2525     4.8333  C.ar    1  <O>11       0.2725
  19 O3        7.8520    -2.3697     5.7698  O.2     1  <O>11      -0.2658
  20 C13       7.6656    -3.1920     3.4884  C.ar    1  <O>11       0.0496
  21 C14       8.6621    -2.3226     2.9901  C.ar    1  <O>11      -0.0487
  22 C15       8.9774    -2.2893     1.6311  C.ar    1  <O>11      -0.0610
  23 C16       8.2990    -3.1187     0.7449  C.ar    1  <O>11      -0.0611
  24 C17       7.3069    -3.9797     1.2171  C.ar    1  <O>11      -0.0521
  25 C18       6.9802    -4.0301     2.5915  C.ar    1  <O>11       0.0106
  26 C19       2.6895    -5.3991     1.9637  C.ar    1  <O>11      -0.0555
  27 C20       1.5740    -4.6579     1.5555  C.ar    1  <O>11      -0.0254
  28 C21       1.7325    -3.4375     0.8966  C.ar    1  <O>11       0.1355
  29 F1        0.6403    -2.7064     0.5043  F       1  <O>11      -0.2047
  30 H1        5.4443    -1.2860    -3.4760  H       1  <O>11       0.0279
  31 H2        5.0124    -0.5398    -5.0333  H       1  <O>11       0.0279
  32 H3        4.2391    -2.0624    -4.5311  H       1  <O>11       0.0279
  33 H4        4.6389     0.7360    -0.5584  H       1  <O>11       0.0528
  34 H5        5.5297    -0.1031    -1.8510  H       1  <O>11       0.0528
  35 H6        5.2134    -1.9810    -0.4702  H       1  <O>11       0.1494
  36 H7        5.7601    -5.9352     1.2640  H       1  <O>11       0.0377
  37 H8        4.8317    -6.5973     2.6302  H       1  <O>11       0.0377
  38 H9        6.1702    -4.1699     6.3076  H       1  <O>11       0.1921
  39 H10       2.1268    -0.1015    -5.0964  H       1  <O>11       0.1060
  40 H11       5.0922    -3.3300     0.8615  H       1  <O>11       0.0629
  41 H12       9.1655    -1.7015     3.6426  H       1  <O>11       0.0625
  42 H13       9.7113    -1.6516     1.2851  H       1  <O>11       0.0618
  43 H14       8.5287    -3.0977    -0.2610  H       1  <O>11       0.0618
  44 H15       6.8043    -4.5887     0.5527  H       1  <O>11       0.0624
  45 H16       2.5650    -6.3000     2.4514  H       1  <O>11       0.0621
  46 H17       0.6251    -5.0175     1.7435  H       1  <O>11       0.0646
@<TRIPOS>BOND
     1     1     2    1
     2     2     3   ar
     3     3     4   ar
     4     4     5   ar
     5     5     6   ar
     6     2     6   ar
     7     6     7    1
     8     7     8    1
     9     8     9   am
    10     9    10    2
    11     9    11    1
    12    11    12   ar
    13    12    13   ar
    14    13    14    1
    15    14    15    1
    16    15    16   ar
    17    16    17   ar
    18    17    18   ar
    19    18    19    2
    20    18    20   ar
    21    20    21   ar
    22    21    22   ar
    23    22    23   ar
    24    23    24   ar
    25    24    25   ar
    26    15    25   ar
    27    20    25   ar
    28    13    26   ar
    29    26    27   ar
    30    27    28   ar
    31    11    28   ar
    32    28    29    1
    33     1    30    1
    34     1    31    1
    35     1    32    1
    36     7    33    1
    37     7    34    1
    38     8    35    1
    39    14    36    1
    40    14    37    1
    41    17    38    1
    42     3    39    1
    43    12    40    1
    44    21    41    1
    45    22    42    1
    46    23    43    1
    47    24    44    1
    48    26    45    1
    49    27    46    1
@<TRIPOS>MOLECULE
mol77_1_21
 46 49 0 0 0
SMALL
USER_CHARGES
****
VDW energy = 42.50
@<TRIPOS>ATOM
   1 C1        4.6343    -1.1079    -4.1833  C.3     1  <O>11      -0.0349
   2 C2        3.5757    -0.3543    -3.5287  C.ar    1  <O>11       0.0129
   3 C3        2.3924     0.0545    -4.1114  C.ar    1  <O>11       0.1274
   4 O1        1.6328     0.6942    -3.1846  O.2     1  <O>11      -0.3624
   5 N1        2.3060     0.7440    -1.9842  N.ar    1  <O>11      -0.0815
   6 C4        3.4827     0.1342    -2.1909  C.ar    1  <O>11       0.1034
   7 C5        4.6000    -0.0770    -1.2830  C.3     1  <O>11       0.0578
   8 N2        4.2840     0.5030     0.0200  N.am    1  <O>11      -0.3056
   9 C6        3.7079     1.7420     0.0970  C.2     1  <O>11       0.2472
  10 O2        3.4572     2.3638    -0.9244  O.2     1  <O>11      -0.2701
  11 C7        3.3935     2.3189     1.3975  C.ar    1  <O>11       0.0721
  12 C8        4.3408     3.1097     2.0701  C.ar    1  <O>11      -0.0433
  13 C9        4.0425     3.6524     3.3248  C.ar    1  <O>11      -0.0406
  14 C10       5.0468     4.4784     4.0238  C.3     1  <O>11       0.0171
  15 C11       4.6985     4.5707     5.4650  C.ar    1  <O>11       0.0736
  16 N3        3.8777     5.6092     5.9211  N.ar    1  <O>11      -0.1750
  17 N4        3.6365     5.7688     7.2428  N.ar    1  <O>11      -0.2425
  18 C12       4.1945     4.9014     8.1203  C.ar    1  <O>11       0.2725
  19 O3        3.9864     5.1790     9.4863  O.2     1  <O>11      -0.2658
  20 C13       4.9426     3.7786     7.7426  C.ar    1  <O>11       0.0496
  21 C14       5.4764     2.8396     8.6539  C.ar    1  <O>11      -0.0487
  22 C15       6.2420     1.7597     8.2123  C.ar    1  <O>11      -0.0610
  23 C16       6.4933     1.6017     6.8539  C.ar    1  <O>11      -0.0611
  24 C17       5.9801     2.5224     5.9388  C.ar    1  <O>11      -0.0521
  25 C18       5.1975     3.6180     6.3693  C.ar    1  <O>11       0.0106
  26 C19       2.7985     3.4179     3.9162  C.ar    1  <O>11      -0.0555
  27 C20       1.8522     2.6352     3.2436  C.ar    1  <O>11      -0.0254
  28 C21       2.1398     2.0906     1.9909  C.ar    1  <O>11       0.1355
  29 F1        1.2101     1.3313     1.3273  F       1  <O>11      -0.2047
  30 H1        5.4443    -1.2860    -3.4760  H       1  <O>11       0.0279
  31 H2        5.0124    -0.5398    -5.0333  H       1  <O>11       0.0279
  32 H3        4.2391    -2.0624    -4.5311  H       1  <O>11       0.0279
  33 H4        5.4920     0.4020    -1.6860  H       1  <O>11       0.0528
  34 H5        4.7800    -1.1460    -1.1710  H       1  <O>11       0.0528
  35 H6        4.4934    -0.0171     0.8727  H       1  <O>11       0.1494
  36 H7        5.0639     5.4772     3.5889  H       1  <O>11       0.0377
  37 H8        6.0310     4.0201     3.9180  H       1  <O>11       0.0377
  38 H9        3.0515     6.5235     7.5687  H       1  <O>11       0.1921
  39 H10       2.1268    -0.1015    -5.0964  H       1  <O>11       0.1060
  40 H11       5.2599     3.2906     1.6370  H       1  <O>11       0.0629
  41 H12       5.2969     2.9546     9.6636  H       1  <O>11       0.0625
  42 H13       6.6201     1.0808     8.8914  H       1  <O>11       0.0618
  43 H14       7.0589     0.8046     6.5226  H       1  <O>11       0.0618
  44 H15       6.1750     2.4014     4.9327  H       1  <O>11       0.0624
  45 H16       2.5789     3.8184     4.8416  H       1  <O>11       0.0621
  46 H17       0.9329     2.4593     3.6784  H       1  <O>11       0.0646
@<TRIPOS>BOND
     1     1     2    1
     2     2     3   ar
     3     3     4   ar
     4     4     5   ar
     5     5     6   ar
     6     2     6   ar
     7     6     7    1
     8     7     8    1
     9     8     9   am
    10     9    10    2
    11     9    11    1
    12    11    12   ar
    13    12    13   ar
    14    13    14    1
    15    14    15    1
    16    15    16   ar
    17    16    17   ar
    18    17    18   ar
    19    18    19    2
    20    18    20   ar
    21    20    21   ar
    22    21    22   ar
    23    22    23   ar
    24    23    24   ar
    25    24    25   ar
    26    15    25   ar
    27    20    25   ar
    28    13    26   ar
    29    26    27   ar
    30    27    28   ar
    31    11    28   ar
    32    28    29    1
    33     1    30    1
    34     1    31    1
    35     1    32    1
    36     7    33    1
    37     7    34    1
    38     8    35    1
    39    14    36    1
    40    14    37    1
    41    17    38    1
    42     3    39    1
    43    12    40    1
    44    21    41    1
    45    22    42    1
    46    23    43    1
    47    24    44    1
    48    26    45    1
    49    27    46    1
@<TRIPOS>MOLECULE
mol77_1_22
 46 49 0 0 0
SMALL
USER_CHARGES
****
VDW energy = 43.04
@<TRIPOS>ATOM
   1 C1        4.6343    -1.1079    -4.1833  C.3     1  <O>11      -0.0349
   2 C2        3.5757    -0.3543    -3.5287  C.ar    1  <O>11       0.0129
   3 C3        2.3924     0.0545    -4.1114  C.ar    1  <O>11       0.1274
   4 O1        1.6328     0.6942    -3.1846  O.2     1  <O>11      -0.3624
   5 N1        2.3060     0.7440    -1.9842  N.ar    1  <O>11      -0.0815
   6 C4        3.4827     0.1342    -2.1909  C.ar    1  <O>11       0.1034
   7 C5        4.6000    -0.0770    -1.2830  C.3     1  <O>11       0.0578
   8 N2        4.4225    -1.3455    -0.5805  N.am    1  <O>11      -0.3056
   9 C6        3.1975    -1.6812    -0.0712  C.2     1  <O>11       0.2472
  10 O2        2.2511    -0.9199    -0.2040  O.2     1  <O>11      -0.2701
  11 C7        3.0224    -2.9468     0.6293  C.ar    1  <O>11       0.0721
  12 C8        4.1418    -3.6880     1.0447  C.ar    1  <O>11      -0.0433
  13 C9        3.9725    -4.9095     1.7058  C.ar    1  <O>11      -0.0406
  14 C10       5.1558    -5.6814     2.1343  C.3     1  <O>11       0.0171
  15 C11       4.7171    -6.9305     2.8081  C.ar    1  <O>11       0.0736
  16 N3        4.5147    -8.0957     2.0586  N.ar    1  <O>11      -0.1750
  17 N4        4.0154    -9.2115     2.6383  N.ar    1  <O>11      -0.2425
  18 C12       3.7220    -9.1882     3.9601  C.ar    1  <O>11       0.2725
  19 O3        3.1141   -10.3474     4.4824  O.2     1  <O>11      -0.2658
  20 C13       3.9883    -8.1003     4.8018  C.ar    1  <O>11       0.0496
  21 C14       3.7370    -8.0951     6.1925  C.ar    1  <O>11      -0.0487
  22 C15       3.9951    -6.9644     6.9686  C.ar    1  <O>11      -0.0610
  23 C16       4.5024    -5.8170     6.3689  C.ar    1  <O>11      -0.0611
  24 C17       4.7510    -5.8006     4.9954  C.ar    1  <O>11      -0.0521
  25 C18       4.5011    -6.9396     4.1964  C.ar    1  <O>11       0.0106
  26 C19       2.6895    -5.3991     1.9637  C.ar    1  <O>11      -0.0555
  27 C20       1.5740    -4.6579     1.5555  C.ar    1  <O>11      -0.0254
  28 C21       1.7325    -3.4375     0.8966  C.ar    1  <O>11       0.1355
  29 F1        0.6403    -2.7064     0.5043  F       1  <O>11      -0.2047
  30 H1        5.4443    -1.2860    -3.4760  H       1  <O>11       0.0279
  31 H2        5.0124    -0.5398    -5.0333  H       1  <O>11       0.0279
  32 H3        4.2391    -2.0624    -4.5311  H       1  <O>11       0.0279
  33 H4        4.6389     0.7360    -0.5584  H       1  <O>11       0.0528
  34 H5        5.5297    -0.1031    -1.8510  H       1  <O>11       0.0528
  35 H6        5.2134    -1.9810    -0.4702  H       1  <O>11       0.1494
  36 H7        5.7497    -5.0844     2.8255  H       1  <O>11       0.0377
  37 H8        5.7599    -5.9338     1.2619  H       1  <O>11       0.0377
  38 H9        3.8626   -10.0467     2.0933  H       1  <O>11       0.1921
  39 H10       2.1268    -0.1015    -5.0964  H       1  <O>11       0.1060
  40 H11       5.0922    -3.3300     0.8615  H       1  <O>11       0.0629
  41 H12       3.3561    -8.9423     6.6420  H       1  <O>11       0.0625
  42 H13       3.8101    -6.9797     7.9837  H       1  <O>11       0.0618
  43 H14       4.6949    -4.9784     6.9387  H       1  <O>11       0.0618
  44 H15       5.1229    -4.9438     4.5566  H       1  <O>11       0.0624
  45 H16       2.5650    -6.3000     2.4514  H       1  <O>11       0.0621
  46 H17       0.6251    -5.0175     1.7435  H       1  <O>11       0.0646
@<TRIPOS>BOND
     1     1     2    1
     2     2     3   ar
     3     3     4   ar
     4     4     5   ar
     5     5     6   ar
     6     2     6   ar
     7     6     7    1
     8     7     8    1
     9     8     9   am
    10     9    10    2
    11     9    11    1
    12    11    12   ar
    13    12    13   ar
    14    13    14    1
    15    14    15    1
    16    15    16   ar
    17    16    17   ar
    18    17    18   ar
    19    18    19    2
    20    18    20   ar
    21    20    21   ar
    22    21    22   ar
    23    22    23   ar
    24    23    24   ar
    25    24    25   ar
    26    15    25   ar
    27    20    25   ar
    28    13    26   ar
    29    26    27   ar
    30    27    28   ar
    31    11    28   ar
    32    28    29    1
    33     1    30    1
    34     1    31    1
    35     1    32    1
    36     7    33    1
    37     7    34    1
    38     8    35    1
    39    14    36    1
    40    14    37    1
    41    17    38    1
    42     3    39    1
    43    12    40    1
    44    21    41    1
    45    22    42    1
    46    23    43    1
    47    24    44    1
    48    26    45    1
    49    27    46    1
@<TRIPOS>MOLECULE
mol77_1_23
 46 49 0 0 0
SMALL
USER_CHARGES
****
VDW energy = 44.36
@<TRIPOS>ATOM
   1 C1        4.6343    -1.1079    -4.1833  C.3     1  <O>11      -0.0349
   2 C2        3.5757    -0.3543    -3.5287  C.ar    1  <O>11       0.0129
   3 C3        2.3924     0.0545    -4.1114  C.ar    1  <O>11       0.1274
   4 O1        1.6328     0.6942    -3.1846  O.2     1  <O>11      -0.3624
   5 N1        2.3060     0.7440    -1.9842  N.ar    1  <O>11      -0.0815
   6 C4        3.4827     0.1342    -2.1909  C.ar    1  <O>11       0.1034
   7 C5        4.6000    -0.0770    -1.2830  C.3     1  <O>11       0.0578
   8 N2        5.5241     1.0504    -1.3788  N.am    1  <O>11      -0.3056
   9 C6        5.8674     1.5527    -2.6046  C.2     1  <O>11       0.2472
  10 O2        5.4008     1.0585    -3.6199  O.2     1  <O>11      -0.2701
  11 C7        6.7893     2.6772    -2.6982  C.ar    1  <O>11       0.0721
  12 C8        7.5533     3.0623    -1.5832  C.ar    1  <O>11      -0.0433
  13 C9        8.4287     4.1504    -1.6706  C.ar    1  <O>11      -0.0406
  14 C10       9.2234     4.5484    -0.4918  C.3     1  <O>11       0.0171
  15 C11       8.3112     4.9079     0.6243  C.ar    1  <O>11       0.0736
  16 N3        7.8898     3.9248     1.5276  N.ar    1  <O>11      -0.1750
  17 N4        6.9783     4.2122     2.4853  N.ar    1  <O>11      -0.2425
  18 C12       6.4848     5.4708     2.5637  C.ar    1  <O>11       0.2725
  19 O3        5.4681     5.6815     3.5167  O.2     1  <O>11      -0.2658
  20 C13       6.9263     6.5357     1.7674  C.ar    1  <O>11       0.0496
  21 C14       6.4548     7.8625     1.8872  C.ar    1  <O>11      -0.0487
  22 C15       6.9131     8.8710     1.0384  C.ar    1  <O>11      -0.0610
  23 C16       7.8452     8.5712     0.0512  C.ar    1  <O>11      -0.0611
  24 C17       8.3180     7.2651    -0.0870  C.ar    1  <O>11      -0.0521
  25 C18       7.8687     6.2336     0.7687  C.ar    1  <O>11       0.0106
  26 C19       8.5550     4.8586    -2.8684  C.ar    1  <O>11      -0.0555
  27 C20       7.7986     4.4713    -3.9812  C.ar    1  <O>11      -0.0254
  28 C21       6.9237     3.3863    -3.9045  C.ar    1  <O>11       0.1355
  29 F1        6.1891     3.0005    -4.9966  F       1  <O>11      -0.2047
  30 H1        5.4443    -1.2860    -3.4760  H       1  <O>11       0.0279
  31 H2        5.0124    -0.5398    -5.0333  H       1  <O>11       0.0279
  32 H3        4.2391    -2.0624    -4.5311  H       1  <O>11       0.0279
  33 H4        5.1201    -0.9957    -1.5534  H       1  <O>11       0.0528
  34 H5        4.2281    -0.1564    -0.2617  H       1  <O>11       0.0528
  35 H6        5.9132     1.4628    -0.5303  H       1  <O>11       0.1494
  36 H7        9.8453     5.4065    -0.7443  H       1  <O>11       0.0377
  37 H8        9.8597     3.7171    -0.1855  H       1  <O>11       0.0377
  38 H9        6.6703     3.4991     3.1291  H       1  <O>11       0.1921
  39 H10       2.1268    -0.1015    -5.0964  H       1  <O>11       0.1060
  40 H11       7.4683     2.5408    -0.6968  H       1  <O>11       0.0629
  41 H12       5.7594     8.0896     2.6151  H       1  <O>11       0.0625
  42 H13       6.5615     9.8356     1.1431  H       1  <O>11       0.0618
  43 H14       8.1872     9.3136    -0.5788  H       1  <O>11       0.0618
  44 H15       9.0061     7.0493    -0.8252  H       1  <O>11       0.0624
  45 H16       9.2008     5.6610    -2.9324  H       1  <O>11       0.0621
  46 H17       7.8889     4.9931    -4.8670  H       1  <O>11       0.0646
@<TRIPOS>BOND
     1     1     2    1
     2     2     3   ar
     3     3     4   ar
     4     4     5   ar
     5     5     6   ar
     6     2     6   ar
     7     6     7    1
     8     7     8    1
     9     8     9   am
    10     9    10    2
    11     9    11    1
    12    11    12   ar
    13    12    13   ar
    14    13    14    1
    15    14    15    1
    16    15    16   ar
    17    16    17   ar
    18    17    18   ar
    19    18    19    2
    20    18    20   ar
    21    20    21   ar
    22    21    22   ar
    23    22    23   ar
    24    23    24   ar
    25    24    25   ar
    26    15    25   ar
    27    20    25   ar
    28    13    26   ar
    29    26    27   ar
    30    27    28   ar
    31    11    28   ar
    32    28    29    1
    33     1    30    1
    34     1    31    1
    35     1    32    1
    36     7    33    1
    37     7    34    1
    38     8    35    1
    39    14    36    1
    40    14    37    1
    41    17    38    1
    42     3    39    1
    43    12    40    1
    44    21    41    1
    45    22    42    1
    46    23    43    1
    47    24    44    1
    48    26    45    1
    49    27    46    1
@<TRIPOS>MOLECULE
mol77_1_24
 46 49 0 0 0
SMALL
USER_CHARGES
****
VDW energy = 44.48
@<TRIPOS>ATOM
   1 C1        4.6343    -1.1079    -4.1833  C.3     1  <O>11      -0.0349
   2 C2        3.5757    -0.3543    -3.5287  C.ar    1  <O>11       0.0129
   3 C3        2.3924     0.0545    -4.1114  C.ar    1  <O>11       0.1274
   4 O1        1.6328     0.6942    -3.1846  O.2     1  <O>11      -0.3624
   5 N1        2.3060     0.7440    -1.9842  N.ar    1  <O>11      -0.0815
   6 C4        3.4827     0.1342    -2.1909  C.ar    1  <O>11       0.1034
   7 C5        4.6000    -0.0770    -1.2830  C.3     1  <O>11       0.0578
   8 N2        4.4225    -1.3455    -0.5805  N.am    1  <O>11      -0.3056
   9 C6        3.1975    -1.6812    -0.0712  C.2     1  <O>11       0.2472
  10 O2        2.2511    -0.9199    -0.2040  O.2     1  <O>11      -0.2701
  11 C7        3.0224    -2.9468     0.6293  C.ar    1  <O>11       0.0721
  12 C8        4.1418    -3.6880     1.0447  C.ar    1  <O>11      -0.0433
  13 C9        3.9725    -4.9095     1.7058  C.ar    1  <O>11      -0.0406
  14 C10       5.1558    -5.6814     2.1343  C.3     1  <O>11       0.0171
  15 C11       5.9816    -6.0246     0.9480  C.ar    1  <O>11       0.0736
  16 N3        5.7499    -7.2198     0.2566  N.ar    1  <O>11      -0.1750
  17 N4        6.5591    -7.5974    -0.7598  N.ar    1  <O>11      -0.2425
  18 C12       7.5940    -6.7956    -1.1061  C.ar    1  <O>11       0.2725
  19 O3        8.4567    -7.2906    -2.1047  O.2     1  <O>11      -0.2658
  20 C13       7.8354    -5.5388    -0.5358  C.ar    1  <O>11       0.0496
  21 C14       8.8797    -4.6751    -0.9361  C.ar    1  <O>11      -0.0487
  22 C15       9.0853    -3.4488    -0.3026  C.ar    1  <O>11      -0.0610
  23 C16       8.2559    -3.0663     0.7458  C.ar    1  <O>11      -0.0611
  24 C17       7.2228    -3.9088     1.1599  C.ar    1  <O>11      -0.0521
  25 C18       6.9974    -5.1511     0.5244  C.ar    1  <O>11       0.0106
  26 C19       2.6895    -5.3991     1.9637  C.ar    1  <O>11      -0.0555
  27 C20       1.5740    -4.6579     1.5555  C.ar    1  <O>11      -0.0254
  28 C21       1.7325    -3.4375     0.8966  C.ar    1  <O>11       0.1355
  29 F1        0.6403    -2.7064     0.5043  F       1  <O>11      -0.2047
  30 H1        5.4443    -1.2860    -3.4760  H       1  <O>11       0.0279
  31 H2        5.0124    -0.5398    -5.0333  H       1  <O>11       0.0279
  32 H3        4.2391    -2.0624    -4.5311  H       1  <O>11       0.0279
  33 H4        4.6389     0.7360    -0.5584  H       1  <O>11       0.0528
  34 H5        5.5297    -0.1031    -1.8510  H       1  <O>11       0.0528
  35 H6        5.2134    -1.9810    -0.4702  H       1  <O>11       0.1494
  36 H7        4.8340    -6.5963     2.6306  H       1  <O>11       0.0377
  37 H8        5.7486    -5.0824     2.8268  H       1  <O>11       0.0377
  38 H9        6.3945    -8.4636    -1.2502  H       1  <O>11       0.1921
  39 H10       2.1268    -0.1015    -5.0964  H       1  <O>11       0.1060
  40 H11       5.0922    -3.3300     0.8615  H       1  <O>11       0.0629
  41 H12       9.5012    -4.9560    -1.7106  H       1  <O>11       0.0625
  42 H13       9.8500    -2.8282    -0.6110  H       1  <O>11       0.0618
  43 H14       8.4039    -2.1603     1.2174  H       1  <O>11       0.0618
  44 H15       6.6144    -3.6202     1.9419  H       1  <O>11       0.0624
  45 H16       2.5650    -6.3000     2.4514  H       1  <O>11       0.0621
  46 H17       0.6251    -5.0175     1.7435  H       1  <O>11       0.0646
@<TRIPOS>BOND
     1     1     2    1
     2     2     3   ar
     3     3     4   ar
     4     4     5   ar
     5     5     6   ar
     6     2     6   ar
     7     6     7    1
     8     7     8    1
     9     8     9   am
    10     9    10    2
    11     9    11    1
    12    11    12   ar
    13    12    13   ar
    14    13    14    1
    15    14    15    1
    16    15    16   ar
    17    16    17   ar
    18    17    18   ar
    19    18    19    2
    20    18    20   ar
    21    20    21   ar
    22    21    22   ar
    23    22    23   ar
    24    23    24   ar
    25    24    25   ar
    26    15    25   ar
    27    20    25   ar
    28    13    26   ar
    29    26    27   ar
    30    27    28   ar
    31    11    28   ar
    32    28    29    1
    33     1    30    1
    34     1    31    1
    35     1    32    1
    36     7    33    1
    37     7    34    1
    38     8    35    1
    39    14    36    1
    40    14    37    1
    41    17    38    1
    42     3    39    1
    43    12    40    1
    44    21    41    1
    45    22    42    1
    46    23    43    1
    47    24    44    1
    48    26    45    1
    49    27    46    1
@<TRIPOS>MOLECULE
mol77_1_25
 46 49 0 0 0
SMALL
USER_CHARGES
****
VDW energy = 45.53
@<TRIPOS>ATOM
   1 C1        4.6343    -1.1079    -4.1833  C.3     1  <O>11      -0.0349
   2 C2        3.5757    -0.3543    -3.5287  C.ar    1  <O>11       0.0129
   3 C3        2.3924     0.0545    -4.1114  C.ar    1  <O>11       0.1274
   4 O1        1.6328     0.6942    -3.1846  O.2     1  <O>11      -0.3624
   5 N1        2.3060     0.7440    -1.9842  N.ar    1  <O>11      -0.0815
   6 C4        3.4827     0.1342    -2.1909  C.ar    1  <O>11       0.1034
   7 C5        4.6000    -0.0770    -1.2830  C.3     1  <O>11       0.0578
   8 N2        4.2838     0.5026     0.0201  N.am    1  <O>11      -0.3056
   9 C6        3.7074     1.7414     0.0974  C.2     1  <O>11       0.2472
  10 O2        3.4566     2.3634    -0.9238  O.2     1  <O>11      -0.2701
  11 C7        3.3928     2.3179     1.3981  C.ar    1  <O>11       0.0721
  12 C8        3.9323     1.7604     2.5700  C.ar    1  <O>11      -0.0433
  13 C9        3.6191     2.3070     3.8194  C.ar    1  <O>11      -0.0406
  14 C10       4.1887     1.7107     5.0440  C.3     1  <O>11       0.0171
  15 C11       3.2762     0.6549     5.5535  C.ar    1  <O>11       0.0736
  16 N3        2.1370     0.3015     4.8204  N.ar    1  <O>11      -0.1750
  17 N4        1.2414    -0.5814     5.3193  N.ar    1  <O>11      -0.2425
  18 C12       1.4681    -1.1272     6.5377  C.ar    1  <O>11       0.2725
  19 O3        0.4516    -1.9621     7.0436  O.2     1  <O>11      -0.2658
  20 C13       2.6291    -0.9068     7.2903  C.ar    1  <O>11       0.0496
  21 C14       2.8942    -1.5211     8.5351  C.ar    1  <O>11      -0.0487
  22 C15       4.0573    -1.2316     9.2498  C.ar    1  <O>11      -0.0610
  23 C16       4.9729    -0.3191     8.7375  C.ar    1  <O>11      -0.0611
  24 C17       4.7256     0.3028     7.5126  C.ar    1  <O>11      -0.0521
  25 C18       3.5555     0.0157     6.7732  C.ar    1  <O>11       0.0106
  26 C19       2.7728     3.4149     3.9116  C.ar    1  <O>11      -0.0555
  27 C20       2.2400     3.9744     2.7438  C.ar    1  <O>11      -0.0254
  28 C21       2.5477     3.4372     1.4926  C.ar    1  <O>11       0.1355
  29 F1        2.0335     3.9901     0.3476  F       1  <O>11      -0.2047
  30 H1        5.4443    -1.2860    -3.4760  H       1  <O>11       0.0279
  31 H2        5.0124    -0.5398    -5.0333  H       1  <O>11       0.0279
  32 H3        4.2391    -2.0624    -4.5311  H       1  <O>11       0.0279
  33 H4        5.4919     0.4023    -1.6858  H       1  <O>11       0.0528
  34 H5        4.7802    -1.1460    -1.1713  H       1  <O>11       0.0528
  35 H6        4.4933    -0.0177     0.8727  H       1  <O>11       0.1494
  36 H7        4.3110     2.4831     5.8026  H       1  <O>11       0.0377
  37 H8        5.1600     1.2701     4.8153  H       1  <O>11       0.0377
  38 H9        0.4170    -0.8271     4.7921  H       1  <O>11       0.1921
  39 H10       2.1268    -0.1015    -5.0964  H       1  <O>11       0.1060
  40 H11       4.5618     0.9450     2.5088  H       1  <O>11       0.0629
  41 H12       2.2159    -2.1955     8.9223  H       1  <O>11       0.0625
  42 H13       4.2372    -1.6930    10.1553  H       1  <O>11       0.0618
  43 H14       5.8345    -0.1019     9.2624  H       1  <O>11       0.0618
  44 H15       5.4074     0.9826     7.1410  H       1  <O>11       0.0624
  45 H16       2.5420     3.8177     4.8333  H       1  <O>11       0.0621
  46 H17       1.6137     4.7920     2.8088  H       1  <O>11       0.0646
@<TRIPOS>BOND
     1     1     2    1
     2     2     3   ar
     3     3     4   ar
     4     4     5   ar
     5     5     6   ar
     6     2     6   ar
     7     6     7    1
     8     7     8    1
     9     8     9   am
    10     9    10    2
    11     9    11    1
    12    11    12   ar
    13    12    13   ar
    14    13    14    1
    15    14    15    1
    16    15    16   ar
    17    16    17   ar
    18    17    18   ar
    19    18    19    2
    20    18    20   ar
    21    20    21   ar
    22    21    22   ar
    23    22    23   ar
    24    23    24   ar
    25    24    25   ar
    26    15    25   ar
    27    20    25   ar
    28    13    26   ar
    29    26    27   ar
    30    27    28   ar
    31    11    28   ar
    32    28    29    1
    33     1    30    1
    34     1    31    1
    35     1    32    1
    36     7    33    1
    37     7    34    1
    38     8    35    1
    39    14    36    1
    40    14    37    1
    41    17    38    1
    42     3    39    1
    43    12    40    1
    44    21    41    1
    45    22    42    1
    46    23    43    1
    47    24    44    1
    48    26    45    1
    49    27    46    1
@<TRIPOS>MOLECULE
mol77_1_26
 46 49 0 0 0
SMALL
USER_CHARGES
****
VDW energy = 48.24
@<TRIPOS>ATOM
   1 C1        4.6343    -1.1079    -4.1833  C.3     1  <O>11      -0.0349
   2 C2        3.5757    -0.3543    -3.5287  C.ar    1  <O>11       0.0129
   3 C3        2.3924     0.0545    -4.1114  C.ar    1  <O>11       0.1274
   4 O1        1.6328     0.6942    -3.1846  O.2     1  <O>11      -0.3624
   5 N1        2.3060     0.7440    -1.9842  N.ar    1  <O>11      -0.0815
   6 C4        3.4827     0.1342    -2.1909  C.ar    1  <O>11       0.1034
   7 C5        4.6000    -0.0770    -1.2830  C.3     1  <O>11       0.0578
   8 N2        4.2840     0.5030     0.0200  N.am    1  <O>11      -0.3056
   9 C6        3.7079     1.7420     0.0970  C.2     1  <O>11       0.2472
  10 O2        3.4572     2.3638    -0.9244  O.2     1  <O>11      -0.2701
  11 C7        3.3935     2.3189     1.3975  C.ar    1  <O>11       0.0721
  12 C8        2.1402     2.0896     1.9907  C.ar    1  <O>11      -0.0433
  13 C9        1.8348     2.6549     3.2337  C.ar    1  <O>11      -0.0406
  14 C10       0.5136     2.4103     3.8454  C.3     1  <O>11       0.0171
  15 C11       0.2586     3.4252     4.8999  C.ar    1  <O>11       0.0736
  16 N3        0.0415     3.0203     6.2225  N.ar    1  <O>11      -0.1750
  17 N4       -0.2954     3.9214     7.1739  N.ar    1  <O>11      -0.2425
  18 C12      -0.4107     5.2259     6.8295  C.ar    1  <O>11       0.2725
  19 O3       -0.8595     6.0985     7.8412  O.2     1  <O>11      -0.2658
  20 C13      -0.1126     5.7286     5.5562  C.ar    1  <O>11       0.0496
  21 C14      -0.1758     7.0974     5.2106  C.ar    1  <O>11      -0.0487
  22 C15       0.1024     7.5280     3.9127  C.ar    1  <O>11      -0.0610
  23 C16       0.4423     6.5989     2.9356  C.ar    1  <O>11      -0.0611
  24 C17       0.5037     5.2417     3.2560  C.ar    1  <O>11      -0.0521
  25 C18       0.2310     4.7901     4.5674  C.ar    1  <O>11       0.0106
  26 C19       2.7753     3.4464     3.8979  C.ar    1  <O>11      -0.0555
  27 C20       4.0263     3.6699     3.3101  C.ar    1  <O>11      -0.0254
  28 C21       4.3410     3.1092     2.0711  C.ar    1  <O>11       0.1355
  29 F1        5.5694     3.3202     1.4987  F       1  <O>11      -0.2047
  30 H1        5.4443    -1.2860    -3.4760  H       1  <O>11       0.0279
  31 H2        5.0124    -0.5398    -5.0333  H       1  <O>11       0.0279
  32 H3        4.2391    -2.0624    -4.5311  H       1  <O>11       0.0279
  33 H4        5.4920     0.4020    -1.6860  H       1  <O>11       0.0528
  34 H5        4.7800    -1.1460    -1.1710  H       1  <O>11       0.0528
  35 H6        4.4934    -0.0171     0.8727  H       1  <O>11       0.1494
  36 H7        0.4950     1.4144     4.2868  H       1  <O>11       0.0377
  37 H8       -0.2599     2.4820     3.0797  H       1  <O>11       0.0377
  38 H9       -0.4597     3.6249     8.1242  H       1  <O>11       0.1921
  39 H10       2.1268    -0.1015    -5.0964  H       1  <O>11       0.1060
  40 H11       1.4426     1.5023     1.5077  H       1  <O>11       0.0629
  41 H12      -0.4321     7.7908     5.9307  H       1  <O>11       0.0625
  42 H13       0.0561     8.5321     3.6789  H       1  <O>11       0.0618
  43 H14       0.6490     6.9125     1.9743  H       1  <O>11       0.0618
  44 H15       0.7518     4.5576     2.5243  H       1  <O>11       0.0624
  45 H16       2.5496     3.8631     4.8147  H       1  <O>11       0.0621
  46 H17       4.7226     4.2551     3.7978  H       1  <O>11       0.0646
@<TRIPOS>BOND
     1     1     2    1
     2     2     3   ar
     3     3     4   ar
     4     4     5   ar
     5     5     6   ar
     6     2     6   ar
     7     6     7    1
     8     7     8    1
     9     8     9   am
    10     9    10    2
    11     9    11    1
    12    11    12   ar
    13    12    13   ar
    14    13    14    1
    15    14    15    1
    16    15    16   ar
    17    16    17   ar
    18    17    18   ar
    19    18    19    2
    20    18    20   ar
    21    20    21   ar
    22    21    22   ar
    23    22    23   ar
    24    23    24   ar
    25    24    25   ar
    26    15    25   ar
    27    20    25   ar
    28    13    26   ar
    29    26    27   ar
    30    27    28   ar
    31    11    28   ar
    32    28    29    1
    33     1    30    1
    34     1    31    1
    35     1    32    1
    36     7    33    1
    37     7    34    1
    38     8    35    1
    39    14    36    1
    40    14    37    1
    41    17    38    1
    42     3    39    1
    43    12    40    1
    44    21    41    1
    45    22    42    1
    46    23    43    1
    47    24    44    1
    48    26    45    1
    49    27    46    1
@<TRIPOS>MOLECULE
mol77_1_27
 46 49 0 0 0
SMALL
USER_CHARGES
****
VDW energy = 48.50
@<TRIPOS>ATOM
   1 C1        4.6343    -1.1079    -4.1833  C.3     1  <O>11      -0.0349
   2 C2        3.5757    -0.3543    -3.5287  C.ar    1  <O>11       0.0129
   3 C3        2.3924     0.0545    -4.1114  C.ar    1  <O>11       0.1274
   4 O1        1.6328     0.6942    -3.1846  O.2     1  <O>11      -0.3624
   5 N1        2.3060     0.7440    -1.9842  N.ar    1  <O>11      -0.0815
   6 C4        3.4827     0.1342    -2.1909  C.ar    1  <O>11       0.1034
   7 C5        4.6000    -0.0770    -1.2830  C.3     1  <O>11       0.0578
   8 N2        4.2838     0.5026     0.0201  N.am    1  <O>11      -0.3056
   9 C6        3.7074     1.7414     0.0974  C.2     1  <O>11       0.2472
  10 O2        3.4566     2.3634    -0.9238  O.2     1  <O>11      -0.2701
  11 C7        3.3928     2.3179     1.3981  C.ar    1  <O>11       0.0721
  12 C8        3.9323     1.7604     2.5700  C.ar    1  <O>11      -0.0433
  13 C9        3.6191     2.3070     3.8194  C.ar    1  <O>11      -0.0406
  14 C10       4.1887     1.7107     5.0440  C.3     1  <O>11       0.0171
  15 C11       3.2762     0.6549     5.5535  C.ar    1  <O>11       0.0736
  16 N3        3.4240    -0.6673     5.1176  N.ar    1  <O>11      -0.1750
  17 N4        2.5381    -1.6200     5.4895  N.ar    1  <O>11      -0.2425
  18 C12       1.5086    -1.2771     6.2996  C.ar    1  <O>11       0.2725
  19 O3        0.5669    -2.2901     6.5704  O.2     1  <O>11      -0.2658
  20 C13       1.3451    -0.0041     6.8615  C.ar    1  <O>11       0.0496
  21 C14       0.3045     0.3399     7.7535  C.ar    1  <O>11      -0.0487
  22 C15       0.1799     1.6376     8.2515  C.ar    1  <O>11      -0.0610
  23 C16       1.0882     2.6160     7.8626  C.ar    1  <O>11      -0.0611
  24 C17       2.1191     2.2971     6.9772  C.ar    1  <O>11      -0.0521
  25 C18       2.2629     0.9859     6.4688  C.ar    1  <O>11       0.0106
  26 C19       2.7728     3.4149     3.9116  C.ar    1  <O>11      -0.0555
  27 C20       2.2400     3.9744     2.7438  C.ar    1  <O>11      -0.0254
  28 C21       2.5477     3.4372     1.4926  C.ar    1  <O>11       0.1355
  29 F1        2.0335     3.9901     0.3476  F       1  <O>11      -0.2047
  30 H1        5.4443    -1.2860    -3.4760  H       1  <O>11       0.0279
  31 H2        5.0124    -0.5398    -5.0333  H       1  <O>11       0.0279
  32 H3        4.2391    -2.0624    -4.5311  H       1  <O>11       0.0279
  33 H4        5.4919     0.4023    -1.6858  H       1  <O>11       0.0528
  34 H5        4.7802    -1.1460    -1.1713  H       1  <O>11       0.0528
  35 H6        4.4933    -0.0177     0.8727  H       1  <O>11       0.1494
  36 H7        4.3110     2.4831     5.8026  H       1  <O>11       0.0377
  37 H8        5.1600     1.2701     4.8153  H       1  <O>11       0.0377
  38 H9        2.6427    -2.5700     5.1664  H       1  <O>11       0.1921
  39 H10       2.1268    -0.1015    -5.0964  H       1  <O>11       0.1060
  40 H11       4.5618     0.9450     2.5088  H       1  <O>11       0.0629
  41 H12      -0.3752    -0.3811     8.0418  H       1  <O>11       0.0625
  42 H13      -0.5834     1.8702     8.9059  H       1  <O>11       0.0618
  43 H14       1.0002     3.5770     8.2282  H       1  <O>11       0.0618
  44 H15       2.7864     3.0297     6.6893  H       1  <O>11       0.0624
  45 H16       2.5420     3.8177     4.8333  H       1  <O>11       0.0621
  46 H17       1.6137     4.7920     2.8088  H       1  <O>11       0.0646
@<TRIPOS>BOND
     1     1     2    1
     2     2     3   ar
     3     3     4   ar
     4     4     5   ar
     5     5     6   ar
     6     2     6   ar
     7     6     7    1
     8     7     8    1
     9     8     9   am
    10     9    10    2
    11     9    11    1
    12    11    12   ar
    13    12    13   ar
    14    13    14    1
    15    14    15    1
    16    15    16   ar
    17    16    17   ar
    18    17    18   ar
    19    18    19    2
    20    18    20   ar
    21    20    21   ar
    22    21    22   ar
    23    22    23   ar
    24    23    24   ar
    25    24    25   ar
    26    15    25   ar
    27    20    25   ar
    28    13    26   ar
    29    26    27   ar
    30    27    28   ar
    31    11    28   ar
    32    28    29    1
    33     1    30    1
    34     1    31    1
    35     1    32    1
    36     7    33    1
    37     7    34    1
    38     8    35    1
    39    14    36    1
    40    14    37    1
    41    17    38    1
    42     3    39    1
    43    12    40    1
    44    21    41    1
    45    22    42    1
    46    23    43    1
    47    24    44    1
    48    26    45    1
    49    27    46    1
@<TRIPOS>MOLECULE
mol77_1_28
 46 49 0 0 0
SMALL
USER_CHARGES
****
VDW energy = 50.75
@<TRIPOS>ATOM
   1 C1        4.6343    -1.1079    -4.1833  C.3     1  <O>11      -0.0349
   2 C2        3.5757    -0.3543    -3.5287  C.ar    1  <O>11       0.0129
   3 C3        2.3924     0.0545    -4.1114  C.ar    1  <O>11       0.1274
   4 O1        1.6328     0.6942    -3.1846  O.2     1  <O>11      -0.3624
   5 N1        2.3060     0.7440    -1.9842  N.ar    1  <O>11      -0.0815
   6 C4        3.4827     0.1342    -2.1909  C.ar    1  <O>11       0.1034
   7 C5        4.6000    -0.0770    -1.2830  C.3     1  <O>11       0.0578
   8 N2        4.2840     0.5030     0.0200  N.am    1  <O>11      -0.3056
   9 C6        3.7079     1.7420     0.0970  C.2     1  <O>11       0.2472
  10 O2        3.4572     2.3638    -0.9244  O.2     1  <O>11      -0.2701
  11 C7        3.3935     2.3189     1.3975  C.ar    1  <O>11       0.0721
  12 C8        3.9330     1.7616     2.5695  C.ar    1  <O>11      -0.0433
  13 C9        3.6199     2.3086     3.8188  C.ar    1  <O>11      -0.0406
  14 C10       4.1894     1.7125     5.0435  C.3     1  <O>11       0.0171
  15 C11       3.4027     2.1546     6.2236  C.ar    1  <O>11       0.0736
  16 N3        3.7656     3.3199     6.9096  N.ar    1  <O>11      -0.1750
  17 N4        3.1259     3.6795     8.0463  N.ar    1  <O>11      -0.2425
  18 C12       2.1201     2.8986     8.5073  C.ar    1  <O>11       0.2725
  19 O3        1.5606     3.2726     9.7456  O.2     1  <O>11      -0.2658
  20 C13       1.6280     1.7752     7.8301  C.ar    1  <O>11       0.0496
  21 C14       0.5402     0.9932     8.2798  C.ar    1  <O>11      -0.0487
  22 C15       0.1210    -0.1348     7.5732  C.ar    1  <O>11      -0.0610
  23 C16       0.7844    -0.5054     6.4087  C.ar    1  <O>11      -0.0611
  24 C17       1.8652     0.2507     5.9519  C.ar    1  <O>11      -0.0521
  25 C18       2.2981     1.3996     6.6526  C.ar    1  <O>11       0.0106
  26 C19       2.7738     3.4167     3.9107  C.ar    1  <O>11      -0.0555
  27 C20       2.2411     3.9760     2.7429  C.ar    1  <O>11      -0.0254
  28 C21       2.5486     3.4384     1.4918  C.ar    1  <O>11       0.1355
  29 F1        2.0345     3.9911     0.3466  F       1  <O>11      -0.2047
  30 H1        5.4443    -1.2860    -3.4760  H       1  <O>11       0.0279
  31 H2        5.0124    -0.5398    -5.0333  H       1  <O>11       0.0279
  32 H3        4.2391    -2.0624    -4.5311  H       1  <O>11       0.0279
  33 H4        5.4920     0.4020    -1.6860  H       1  <O>11       0.0528
  34 H5        4.7800    -1.1460    -1.1710  H       1  <O>11       0.0528
  35 H6        4.4934    -0.0171     0.8727  H       1  <O>11       0.1494
  36 H7        5.2251     2.0314     5.1565  H       1  <O>11       0.0377
  37 H8        4.1509     0.6250     4.9697  H       1  <O>11       0.0377
  38 H9        3.3958     4.5152     8.5428  H       1  <O>11       0.1921
  39 H10       2.1268    -0.1015    -5.0964  H       1  <O>11       0.1060
  40 H11       4.5622     0.9460     2.5085  H       1  <O>11       0.0629
  41 H12       0.0473     1.2609     9.1460  H       1  <O>11       0.0625
  42 H13      -0.6783    -0.6918     7.9136  H       1  <O>11       0.0618
  43 H14       0.4780    -1.3387     5.8827  H       1  <O>11       0.0618
  44 H15       2.3557    -0.0333     5.0895  H       1  <O>11       0.0624
  45 H16       2.5432     3.8199     4.8323  H       1  <O>11       0.0621
  46 H17       1.6150     4.7938     2.8076  H       1  <O>11       0.0646
@<TRIPOS>BOND
     1     1     2    1
     2     2     3   ar
     3     3     4   ar
     4     4     5   ar
     5     5     6   ar
     6     2     6   ar
     7     6     7    1
     8     7     8    1
     9     8     9   am
    10     9    10    2
    11     9    11    1
    12    11    12   ar
    13    12    13   ar
    14    13    14    1
    15    14    15    1
    16    15    16   ar
    17    16    17   ar
    18    17    18   ar
    19    18    19    2
    20    18    20   ar
    21    20    21   ar
    22    21    22   ar
    23    22    23   ar
    24    23    24   ar
    25    24    25   ar
    26    15    25   ar
    27    20    25   ar
    28    13    26   ar
    29    26    27   ar
    30    27    28   ar
    31    11    28   ar
    32    28    29    1
    33     1    30    1
    34     1    31    1
    35     1    32    1
    36     7    33    1
    37     7    34    1
    38     8    35    1
    39    14    36    1
    40    14    37    1
    41    17    38    1
    42     3    39    1
    43    12    40    1
    44    21    41    1
    45    22    42    1
    46    23    43    1
    47    24    44    1
    48    26    45    1
    49    27    46    1
@<TRIPOS>MOLECULE
mol77_1_29
 46 49 0 0 0
SMALL
USER_CHARGES
****
VDW energy = 51.26
@<TRIPOS>ATOM
   1 C1        4.6343    -1.1079    -4.1833  C.3     1  <O>11      -0.0349
   2 C2        3.5757    -0.3543    -3.5287  C.ar    1  <O>11       0.0129
   3 C3        2.3924     0.0545    -4.1114  C.ar    1  <O>11       0.1274
   4 O1        1.6328     0.6942    -3.1846  O.2     1  <O>11      -0.3624
   5 N1        2.3060     0.7440    -1.9842  N.ar    1  <O>11      -0.0815
   6 C4        3.4827     0.1342    -2.1909  C.ar    1  <O>11       0.1034
   7 C5        4.6000    -0.0770    -1.2830  C.3     1  <O>11       0.0578
   8 N2        4.2838     0.5026     0.0201  N.am    1  <O>11      -0.3056
   9 C6        3.7074     1.7414     0.0974  C.2     1  <O>11       0.2472
  10 O2        3.4566     2.3634    -0.9238  O.2     1  <O>11      -0.2701
  11 C7        3.3928     2.3179     1.3981  C.ar    1  <O>11       0.0721
  12 C8        3.9323     1.7604     2.5700  C.ar    1  <O>11      -0.0433
  13 C9        3.6191     2.3070     3.8194  C.ar    1  <O>11      -0.0406
  14 C10       4.1887     1.7107     5.0440  C.3     1  <O>11       0.0171
  15 C11       5.6717     1.7738     4.9841  C.ar    1  <O>11       0.0736
  16 N3        6.3454     2.8913     5.4915  N.ar    1  <O>11      -0.1750
  17 N4        7.6856     3.0123     5.3508  N.ar    1  <O>11      -0.2425
  18 C12       8.3695     2.0294     4.7184  C.ar    1  <O>11       0.2725
  19 O3        9.7452     2.2600     4.5169  O.2     1  <O>11      -0.2658
  20 C13       7.7897     0.8345     4.2724  C.ar    1  <O>11       0.0496
  21 C14       8.5117    -0.2175     3.6649  C.ar    1  <O>11      -0.0487
  22 C15       7.8663    -1.3691     3.2125  C.ar    1  <O>11      -0.0610
  23 C16       6.4880    -1.4878     3.3529  C.ar    1  <O>11      -0.0611
  24 C17       5.7566    -0.4566     3.9445  C.ar    1  <O>11      -0.0521
  25 C18       6.3961     0.7135     4.4137  C.ar    1  <O>11       0.0106
  26 C19       2.7728     3.4149     3.9116  C.ar    1  <O>11      -0.0555
  27 C20       2.2400     3.9744     2.7438  C.ar    1  <O>11      -0.0254
  28 C21       2.5477     3.4372     1.4926  C.ar    1  <O>11       0.1355
  29 F1        2.0335     3.9901     0.3476  F       1  <O>11      -0.2047
  30 H1        5.4443    -1.2860    -3.4760  H       1  <O>11       0.0279
  31 H2        5.0124    -0.5398    -5.0333  H       1  <O>11       0.0279
  32 H3        4.2391    -2.0624    -4.5311  H       1  <O>11       0.0279
  33 H4        5.4919     0.4023    -1.6858  H       1  <O>11       0.0528
  34 H5        4.7802    -1.1460    -1.1713  H       1  <O>11       0.0528
  35 H6        4.4933    -0.0177     0.8727  H       1  <O>11       0.1494
  36 H7        3.8717     0.6715     5.1249  H       1  <O>11       0.0377
  37 H8        3.8378     2.2657     5.9150  H       1  <O>11       0.0377
  38 H9        8.1667     3.8231     5.7100  H       1  <O>11       0.1921
  39 H10       2.1268    -0.1015    -5.0964  H       1  <O>11       0.1060
  40 H11       4.5618     0.9450     2.5088  H       1  <O>11       0.0629
  41 H12       9.5342    -0.1326     3.5539  H       1  <O>11       0.0625
  42 H13       8.4098    -2.1297     2.7755  H       1  <O>11       0.0618
  43 H14       6.0063    -2.3376     3.0200  H       1  <O>11       0.0618
  44 H15       4.7334    -0.5498     4.0408  H       1  <O>11       0.0624
  45 H16       2.5420     3.8177     4.8333  H       1  <O>11       0.0621
  46 H17       1.6137     4.7920     2.8088  H       1  <O>11       0.0646
@<TRIPOS>BOND
     1     1     2    1
     2     2     3   ar
     3     3     4   ar
     4     4     5   ar
     5     5     6   ar
     6     2     6   ar
     7     6     7    1
     8     7     8    1
     9     8     9   am
    10     9    10    2
    11     9    11    1
    12    11    12   ar
    13    12    13   ar
    14    13    14    1
    15    14    15    1
    16    15    16   ar
    17    16    17   ar
    18    17    18   ar
    19    18    19    2
    20    18    20   ar
    21    20    21   ar
    22    21    22   ar
    23    22    23   ar
    24    23    24   ar
    25    24    25   ar
    26    15    25   ar
    27    20    25   ar
    28    13    26   ar
    29    26    27   ar
    30    27    28   ar
    31    11    28   ar
    32    28    29    1
    33     1    30    1
    34     1    31    1
    35     1    32    1
    36     7    33    1
    37     7    34    1
    38     8    35    1
    39    14    36    1
    40    14    37    1
    41    17    38    1
    42     3    39    1
    43    12    40    1
    44    21    41    1
    45    22    42    1
    46    23    43    1
    47    24    44    1
    48    26    45    1
    49    27    46    1
@<TRIPOS>MOLECULE
mol77_1_30
 46 49 0 0 0
SMALL
USER_CHARGES
****
VDW energy = 53.14
@<TRIPOS>ATOM
   1 C1        4.6343    -1.1079    -4.1833  C.3     1  <O>11      -0.0349
   2 C2        3.5757    -0.3543    -3.5287  C.ar    1  <O>11       0.0129
   3 C3        2.3924     0.0545    -4.1114  C.ar    1  <O>11       0.1274
   4 O1        1.6328     0.6942    -3.1846  O.2     1  <O>11      -0.3624
   5 N1        2.3060     0.7440    -1.9842  N.ar    1  <O>11      -0.0815
   6 C4        3.4827     0.1342    -2.1909  C.ar    1  <O>11       0.1034
   7 C5        4.6000    -0.0770    -1.2830  C.3     1  <O>11       0.0578
   8 N2        4.2840     0.5030     0.0200  N.am    1  <O>11      -0.3056
   9 C6        3.7079     1.7420     0.0970  C.2     1  <O>11       0.2472
  10 O2        3.4572     2.3638    -0.9244  O.2     1  <O>11      -0.2701
  11 C7        3.3935     2.3189     1.3975  C.ar    1  <O>11       0.0721
  12 C8        3.9330     1.7616     2.5695  C.ar    1  <O>11      -0.0433
  13 C9        3.6199     2.3086     3.8188  C.ar    1  <O>11      -0.0406
  14 C10       4.1894     1.7125     5.0435  C.3     1  <O>11       0.0171
  15 C11       3.4027     2.1546     6.2236  C.ar    1  <O>11       0.0736
  16 N3        2.2990     1.4055     6.6489  N.ar    1  <O>11      -0.1750
  17 N4        1.5102     1.8485     7.6549  N.ar    1  <O>11      -0.2425
  18 C12       1.8100     3.0260     8.2528  C.ar    1  <O>11       0.2725
  19 O3        0.8959     3.4799     9.2248  O.2     1  <O>11      -0.2658
  20 C13       2.9499     3.7854     7.9584  C.ar    1  <O>11       0.0496
  21 C14       3.2956     4.9844     8.6218  C.ar    1  <O>11      -0.0487
  22 C15       4.4296     5.7107     8.2561  C.ar    1  <O>11      -0.0610
  23 C16       5.2349     5.2562     7.2176  C.ar    1  <O>11      -0.0611
  24 C17       4.9064     4.0774     6.5461  C.ar    1  <O>11      -0.0521
  25 C18       3.7648     3.3268     6.9085  C.ar    1  <O>11       0.0106
  26 C19       2.7738     3.4167     3.9107  C.ar    1  <O>11      -0.0555
  27 C20       2.2411     3.9760     2.7429  C.ar    1  <O>11      -0.0254
  28 C21       2.5486     3.4384     1.4918  C.ar    1  <O>11       0.1355
  29 F1        2.0345     3.9911     0.3466  F       1  <O>11      -0.2047
  30 H1        5.4443    -1.2860    -3.4760  H       1  <O>11       0.0279
  31 H2        5.0124    -0.5398    -5.0333  H       1  <O>11       0.0279
  32 H3        4.2391    -2.0624    -4.5311  H       1  <O>11       0.0279
  33 H4        5.4920     0.4020    -1.6860  H       1  <O>11       0.0528
  34 H5        4.7800    -1.1460    -1.1710  H       1  <O>11       0.0528
  35 H6        4.4934    -0.0171     0.8727  H       1  <O>11       0.1494
  36 H7        5.2251     2.0314     5.1565  H       1  <O>11       0.0377
  37 H8        4.1509     0.6250     4.9697  H       1  <O>11       0.0377
  38 H9        0.7105     1.3104     7.9530  H       1  <O>11       0.1921
  39 H10       2.1268    -0.1015    -5.0964  H       1  <O>11       0.1060
  40 H11       4.5622     0.9460     2.5085  H       1  <O>11       0.0629
  41 H12       2.6989     5.3289     9.3901  H       1  <O>11       0.0625
  42 H13       4.6698     6.5819     8.7545  H       1  <O>11       0.0618
  43 H14       6.0746     5.7898     6.9437  H       1  <O>11       0.0618
  44 H15       5.5061     3.7490     5.7732  H       1  <O>11       0.0624
  45 H16       2.5432     3.8199     4.8323  H       1  <O>11       0.0621
  46 H17       1.6150     4.7938     2.8076  H       1  <O>11       0.0646
@<TRIPOS>BOND
     1     1     2    1
     2     2     3   ar
     3     3     4   ar
     4     4     5   ar
     5     5     6   ar
     6     2     6   ar
     7     6     7    1
     8     7     8    1
     9     8     9   am
    10     9    10    2
    11     9    11    1
    12    11    12   ar
    13    12    13   ar
    14    13    14    1
    15    14    15    1
    16    15    16   ar
    17    16    17   ar
    18    17    18   ar
    19    18    19    2
    20    18    20   ar
    21    20    21   ar
    22    21    22   ar
    23    22    23   ar
    24    23    24   ar
    25    24    25   ar
    26    15    25   ar
    27    20    25   ar
    28    13    26   ar
    29    26    27   ar
    30    27    28   ar
    31    11    28   ar
    32    28    29    1
    33     1    30    1
    34     1    31    1
    35     1    32    1
    36     7    33    1
    37     7    34    1
    38     8    35    1
    39    14    36    1
    40    14    37    1
    41    17    38    1
    42     3    39    1
    43    12    40    1
    44    21    41    1
    45    22    42    1
    46    23    43    1
    47    24    44    1
    48    26    45    1
    49    27    46    1
