@<TRIPOS>MOLECULE
mol75_1_1
 46 49 0 0 0
SMALL
USER_CHARGES
****
VDW energy = -5.58
@<TRIPOS>ATOM
   1 C1       -3.3712     0.0082     2.8062  C.3     1  <O>11      -0.0364
   2 C2       -3.0924     1.2580     2.1153  C.ar    1  <O>11      -0.0067
   3 C3       -2.3745     1.3144     0.9422  C.ar    1  <O>11       0.0256
   4 N1       -2.2653     2.6718     0.6666  N.ar    1  <O>11      -0.2841
   5 N2       -3.0016     3.4419     1.5264  N.ar    1  <O>11      -0.1752
   6 C4       -3.4515     2.5789     2.4436  C.ar    1  <O>11       0.1029
   7 C5       -4.2150     2.8220     3.6580  C.3     1  <O>11       0.1365
   8 O1       -4.4640     4.2120     3.7890  O.3     1  <O>11      -0.4547
   9 C6       -5.1750     4.4401     4.9196  C.2     1  <O>11       0.3424
  10 O2       -5.4953     3.5052     5.6390  O.2     1  <O>11      -0.2448
  11 C7       -5.5578     5.7991     5.2767  C.ar    1  <O>11       0.0943
  12 C8       -6.7788     6.3328     4.8258  C.ar    1  <O>11      -0.0414
  13 C9       -7.1391     7.6427     5.1595  C.ar    1  <O>11      -0.0406
  14 C10      -8.4201     8.1952     4.6744  C.3     1  <O>11       0.0171
  15 C11      -8.2089     8.8504     3.3571  C.ar    1  <O>11       0.0736
  16 N3       -6.9920     8.6860     2.6814  N.ar    1  <O>11      -0.1750
  17 N4       -6.7452     9.3581     1.5342  N.ar    1  <O>11      -0.2425
  18 C12      -7.6985    10.1839     1.0374  C.ar    1  <O>11       0.2725
  19 O3       -7.3426    10.9269    -0.1062  O.2     1  <O>11      -0.2658
  20 C13      -8.9772    10.3240     1.5946  C.ar    1  <O>11       0.0496
  21 C14      -9.9917    11.1422     1.0447  C.ar    1  <O>11      -0.0487
  22 C15     -11.2348    11.2599     1.6688  C.ar    1  <O>11      -0.0610
  23 C16     -11.4856    10.5762     2.8516  C.ar    1  <O>11      -0.0611
  24 C17     -10.4928     9.7709     3.4139  C.ar    1  <O>11      -0.0521
  25 C18      -9.2314     9.6306     2.7907  C.ar    1  <O>11       0.0106
  26 C19      -6.2926     8.4295     5.9470  C.ar    1  <O>11      -0.0555
  27 C20      -5.0826     7.8943     6.4011  C.ar    1  <O>11      -0.0254
  28 C21      -4.7122     6.5881     6.0742  C.ar    1  <O>11       0.1374
  29 F1       -3.5298     6.0614     6.5254  F       1  <O>11      -0.2046
  30 H1       -3.9513     0.2122     3.7062  H       1  <O>11       0.0279
  31 H2       -2.4322    -0.4727     3.0803  H       1  <O>11       0.0279
  32 H3       -3.9390    -0.6510     2.1496  H       1  <O>11       0.0279
  33 H4       -1.7000     3.0314    -0.0892  H       1  <O>11       0.1882
  34 H5       -3.6490     2.4710     4.5200  H       1  <O>11       0.0765
  35 H6       -5.1640     2.2870     3.6040  H       1  <O>11       0.0765
  36 H7       -8.7938     8.9290     5.3880  H       1  <O>11       0.0377
  37 H8       -9.1461     7.3889     4.5671  H       1  <O>11       0.0377
  38 H9       -5.8648     9.2466     1.0541  H       1  <O>11       0.1921
  39 H10      -2.0012     0.5257     0.3912  H       1  <O>11       0.0826
  40 H11      -7.4102     5.7566     4.2476  H       1  <O>11       0.0629
  41 H12      -9.8104    11.6591     0.1700  H       1  <O>11       0.0625
  42 H13     -11.9675    11.8549     1.2515  H       1  <O>11       0.0618
  43 H14     -12.4041    10.6631     3.3141  H       1  <O>11       0.0618
  44 H15     -10.6825     9.2712     4.2967  H       1  <O>11       0.0624
  45 H16      -6.5584     9.3964     6.1910  H       1  <O>11       0.0621
  46 H17      -4.4565     8.4714     6.9843  H       1  <O>11       0.0646
@<TRIPOS>BOND
     1     1     2    1
     2     2     3   ar
     3     3     4   ar
     4     4     5   ar
     5     5     6   ar
     6     2     6   ar
     7     6     7    1
     8     7     8    1
     9     8     9    1
    10     9    10    2
    11     9    11    1
    12    11    12   ar
    13    12    13   ar
    14    13    14    1
    15    14    15    1
    16    15    16   ar
    17    16    17   ar
    18    17    18   ar
    19    18    19    2
    20    18    20   ar
    21    20    21   ar
    22    21    22   ar
    23    22    23   ar
    24    23    24   ar
    25    24    25   ar
    26    15    25   ar
    27    20    25   ar
    28    13    26   ar
    29    26    27   ar
    30    27    28   ar
    31    11    28   ar
    32    28    29    1
    33     1    30    1
    34     1    31    1
    35     1    32    1
    36     4    33    1
    37     7    34    1
    38     7    35    1
    39    14    36    1
    40    14    37    1
    41    17    38    1
    42     3    39    1
    43    12    40    1
    44    21    41    1
    45    22    42    1
    46    23    43    1
    47    24    44    1
    48    26    45    1
    49    27    46    1
@<TRIPOS>MOLECULE
mol75_1_2
 46 49 0 0 0
SMALL
USER_CHARGES
****
VDW energy = -4.74
@<TRIPOS>ATOM
   1 C1       -3.3712     0.0082     2.8062  C.3     1  <O>11      -0.0364
   2 C2       -3.0924     1.2580     2.1153  C.ar    1  <O>11      -0.0067
   3 C3       -2.3745     1.3144     0.9422  C.ar    1  <O>11       0.0256
   4 N1       -2.2653     2.6718     0.6666  N.ar    1  <O>11      -0.2841
   5 N2       -3.0016     3.4419     1.5264  N.ar    1  <O>11      -0.1752
   6 C4       -3.4515     2.5789     2.4436  C.ar    1  <O>11       0.1029
   7 C5       -4.2150     2.8220     3.6580  C.3     1  <O>11       0.1365
   8 O1       -4.4640     4.2120     3.7890  O.3     1  <O>11      -0.4547
   9 C6       -5.1750     4.4401     4.9196  C.2     1  <O>11       0.3424
  10 O2       -5.4953     3.5052     5.6390  O.2     1  <O>11      -0.2448
  11 C7       -5.5578     5.7991     5.2767  C.ar    1  <O>11       0.0943
  12 C8       -6.7788     6.3328     4.8258  C.ar    1  <O>11      -0.0414
  13 C9       -7.1391     7.6427     5.1595  C.ar    1  <O>11      -0.0406
  14 C10      -8.4201     8.1952     4.6744  C.3     1  <O>11       0.0171
  15 C11      -8.4335     8.1815     3.1882  C.ar    1  <O>11       0.0736
  16 N3       -8.9284     7.0630     2.5037  N.ar    1  <O>11      -0.1750
  17 N4       -8.8518     6.9915     1.1554  N.ar    1  <O>11      -0.2425
  18 C12      -8.3016     8.0247     0.4720  C.ar    1  <O>11       0.2725
  19 O3       -8.1640     7.8465    -0.9193  O.2     1  <O>11      -0.2658
  20 C13      -7.8792     9.2198     1.0710  C.ar    1  <O>11       0.0496
  21 C14      -7.3574    10.3207     0.3521  C.ar    1  <O>11      -0.0487
  22 C15      -6.9263    11.4708     1.0156  C.ar    1  <O>11      -0.0610
  23 C16      -6.9973    11.5412     2.4009  C.ar    1  <O>11      -0.0611
  24 C17      -7.5012    10.4605     3.1278  C.ar    1  <O>11      -0.0521
  25 C18      -7.9527     9.2915     2.4730  C.ar    1  <O>11       0.0106
  26 C19      -6.2926     8.4295     5.9470  C.ar    1  <O>11      -0.0555
  27 C20      -5.0826     7.8943     6.4011  C.ar    1  <O>11      -0.0254
  28 C21      -4.7122     6.5881     6.0742  C.ar    1  <O>11       0.1374
  29 F1       -3.5298     6.0614     6.5254  F       1  <O>11      -0.2046
  30 H1       -3.9513     0.2122     3.7062  H       1  <O>11       0.0279
  31 H2       -2.4322    -0.4727     3.0803  H       1  <O>11       0.0279
  32 H3       -3.9390    -0.6510     2.1496  H       1  <O>11       0.0279
  33 H4       -1.7000     3.0314    -0.0892  H       1  <O>11       0.1882
  34 H5       -3.6490     2.4710     4.5200  H       1  <O>11       0.0765
  35 H6       -5.1640     2.2870     3.6040  H       1  <O>11       0.0765
  36 H7       -8.5321     9.2197     5.0280  H       1  <O>11       0.0377
  37 H8       -9.2435     7.5878     5.0510  H       1  <O>11       0.0377
  38 H9       -9.1993     6.1813     0.6645  H       1  <O>11       0.1921
  39 H10      -2.0012     0.5257     0.3912  H       1  <O>11       0.0826
  40 H11      -7.4102     5.7566     4.2476  H       1  <O>11       0.0629
  41 H12      -7.2947    10.2730    -0.6769  H       1  <O>11       0.0625
  42 H13      -6.5548    12.2687     0.4767  H       1  <O>11       0.0618
  43 H14      -6.6782    12.3908     2.8923  H       1  <O>11       0.0618
  44 H15      -7.5446    10.5158     4.1574  H       1  <O>11       0.0624
  45 H16      -6.5584     9.3964     6.1910  H       1  <O>11       0.0621
  46 H17      -4.4565     8.4714     6.9843  H       1  <O>11       0.0646
@<TRIPOS>BOND
     1     1     2    1
     2     2     3   ar
     3     3     4   ar
     4     4     5   ar
     5     5     6   ar
     6     2     6   ar
     7     6     7    1
     8     7     8    1
     9     8     9    1
    10     9    10    2
    11     9    11    1
    12    11    12   ar
    13    12    13   ar
    14    13    14    1
    15    14    15    1
    16    15    16   ar
    17    16    17   ar
    18    17    18   ar
    19    18    19    2
    20    18    20   ar
    21    20    21   ar
    22    21    22   ar
    23    22    23   ar
    24    23    24   ar
    25    24    25   ar
    26    15    25   ar
    27    20    25   ar
    28    13    26   ar
    29    26    27   ar
    30    27    28   ar
    31    11    28   ar
    32    28    29    1
    33     1    30    1
    34     1    31    1
    35     1    32    1
    36     4    33    1
    37     7    34    1
    38     7    35    1
    39    14    36    1
    40    14    37    1
    41    17    38    1
    42     3    39    1
    43    12    40    1
    44    21    41    1
    45    22    42    1
    46    23    43    1
    47    24    44    1
    48    26    45    1
    49    27    46    1
@<TRIPOS>MOLECULE
mol75_1_3
 46 49 0 0 0
SMALL
USER_CHARGES
****
VDW energy = -0.95
@<TRIPOS>ATOM
   1 C1       -3.3712     0.0082     2.8062  C.3     1  <O>11      -0.0364
   2 C2       -3.0924     1.2580     2.1153  C.ar    1  <O>11      -0.0067
   3 C3       -2.3745     1.3144     0.9422  C.ar    1  <O>11       0.0256
   4 N1       -2.2653     2.6718     0.6666  N.ar    1  <O>11      -0.2841
   5 N2       -3.0016     3.4419     1.5264  N.ar    1  <O>11      -0.1752
   6 C4       -3.4515     2.5789     2.4436  C.ar    1  <O>11       0.1029
   7 C5       -4.2150     2.8220     3.6580  C.3     1  <O>11       0.1365
   8 O1       -4.4640     4.2120     3.7890  O.3     1  <O>11      -0.4547
   9 C6       -5.1750     4.4401     4.9196  C.2     1  <O>11       0.3424
  10 O2       -5.4953     3.5052     5.6390  O.2     1  <O>11      -0.2448
  11 C7       -5.5578     5.7991     5.2767  C.ar    1  <O>11       0.0943
  12 C8       -6.7788     6.3328     4.8258  C.ar    1  <O>11      -0.0414
  13 C9       -7.1391     7.6427     5.1595  C.ar    1  <O>11      -0.0406
  14 C10      -8.4201     8.1952     4.6744  C.3     1  <O>11       0.0171
  15 C11      -8.4335     8.1815     3.1882  C.ar    1  <O>11       0.0736
  16 N3       -7.4290     7.5014     2.4861  N.ar    1  <O>11      -0.1750
  17 N4       -7.3676     7.5661     1.1368  N.ar    1  <O>11      -0.2425
  18 C12      -8.3013     8.2875     0.4696  C.ar    1  <O>11       0.2725
  19 O3       -8.1250     8.3939    -0.9247  O.2     1  <O>11      -0.2658
  20 C13      -9.3952     8.9095     1.0875  C.ar    1  <O>11       0.0496
  21 C14     -10.4011     9.6146     0.3860  C.ar    1  <O>11      -0.0487
  22 C15     -11.4481    10.2373     1.0676  C.ar    1  <O>11      -0.0610
  23 C16     -11.5068    10.1779     2.4541  C.ar    1  <O>11      -0.0611
  24 C17     -10.5176     9.4939     3.1638  C.ar    1  <O>11      -0.0521
  25 C18      -9.4553     8.8478     2.4906  C.ar    1  <O>11       0.0106
  26 C19      -6.2926     8.4295     5.9470  C.ar    1  <O>11      -0.0555
  27 C20      -5.0826     7.8943     6.4011  C.ar    1  <O>11      -0.0254
  28 C21      -4.7122     6.5881     6.0742  C.ar    1  <O>11       0.1374
  29 F1       -3.5298     6.0614     6.5254  F       1  <O>11      -0.2046
  30 H1       -3.9513     0.2122     3.7062  H       1  <O>11       0.0279
  31 H2       -2.4322    -0.4727     3.0803  H       1  <O>11       0.0279
  32 H3       -3.9390    -0.6510     2.1496  H       1  <O>11       0.0279
  33 H4       -1.7000     3.0314    -0.0892  H       1  <O>11       0.1882
  34 H5       -3.6490     2.4710     4.5200  H       1  <O>11       0.0765
  35 H6       -5.1640     2.2870     3.6040  H       1  <O>11       0.0765
  36 H7       -8.5321     9.2197     5.0280  H       1  <O>11       0.0377
  37 H8       -9.2435     7.5878     5.0510  H       1  <O>11       0.0377
  38 H9       -6.6379     7.0843     0.6332  H       1  <O>11       0.1921
  39 H10      -2.0012     0.5257     0.3912  H       1  <O>11       0.0826
  40 H11      -7.4102     5.7566     4.2476  H       1  <O>11       0.0629
  41 H12     -10.3603     9.6694    -0.6438  H       1  <O>11       0.0625
  42 H13     -12.1786    10.7418     0.5414  H       1  <O>11       0.0618
  43 H14     -12.2802    10.6385     2.9589  H       1  <O>11       0.0618
  44 H15     -10.5626     9.4594     4.1943  H       1  <O>11       0.0624
  45 H16      -6.5584     9.3964     6.1910  H       1  <O>11       0.0621
  46 H17      -4.4565     8.4714     6.9843  H       1  <O>11       0.0646
@<TRIPOS>BOND
     1     1     2    1
     2     2     3   ar
     3     3     4   ar
     4     4     5   ar
     5     5     6   ar
     6     2     6   ar
     7     6     7    1
     8     7     8    1
     9     8     9    1
    10     9    10    2
    11     9    11    1
    12    11    12   ar
    13    12    13   ar
    14    13    14    1
    15    14    15    1
    16    15    16   ar
    17    16    17   ar
    18    17    18   ar
    19    18    19    2
    20    18    20   ar
    21    20    21   ar
    22    21    22   ar
    23    22    23   ar
    24    23    24   ar
    25    24    25   ar
    26    15    25   ar
    27    20    25   ar
    28    13    26   ar
    29    26    27   ar
    30    27    28   ar
    31    11    28   ar
    32    28    29    1
    33     1    30    1
    34     1    31    1
    35     1    32    1
    36     4    33    1
    37     7    34    1
    38     7    35    1
    39    14    36    1
    40    14    37    1
    41    17    38    1
    42     3    39    1
    43    12    40    1
    44    21    41    1
    45    22    42    1
    46    23    43    1
    47    24    44    1
    48    26    45    1
    49    27    46    1
@<TRIPOS>MOLECULE
mol75_1_4
 46 49 0 0 0
SMALL
USER_CHARGES
****
VDW energy = 0.40
@<TRIPOS>ATOM
   1 C1       -3.3712     0.0082     2.8062  C.3     1  <O>11      -0.0364
   2 C2       -3.0924     1.2580     2.1153  C.ar    1  <O>11      -0.0067
   3 C3       -2.3745     1.3144     0.9422  C.ar    1  <O>11       0.0256
   4 N1       -2.2653     2.6718     0.6666  N.ar    1  <O>11      -0.2841
   5 N2       -3.0016     3.4419     1.5264  N.ar    1  <O>11      -0.1752
   6 C4       -3.4515     2.5789     2.4436  C.ar    1  <O>11       0.1029
   7 C5       -4.2150     2.8220     3.6580  C.3     1  <O>11       0.1365
   8 O1       -5.4483     2.1254     3.5878  O.3     1  <O>11      -0.4547
   9 C6       -6.1607     2.3508     4.7182  C.2     1  <O>11       0.3424
  10 O2       -5.7024     3.0667     5.5966  O.2     1  <O>11      -0.2448
  11 C7       -7.4717     1.7393     4.8861  C.ar    1  <O>11       0.0943
  12 C8       -7.5911     0.4735     5.4881  C.ar    1  <O>11      -0.0414
  13 C9       -8.8501    -0.1178     5.6372  C.ar    1  <O>11      -0.0406
  14 C10      -8.9628    -1.4505     6.2641  C.3     1  <O>11       0.0171
  15 C11      -8.1888    -2.4385     5.4679  C.ar    1  <O>11       0.0736
  16 N3       -7.3352    -1.9990     4.4469  N.ar    1  <O>11      -0.1750
  17 N4       -6.7048    -2.8879     3.6461  N.ar    1  <O>11      -0.2425
  18 C12      -6.8987    -4.2132     3.8538  C.ar    1  <O>11       0.2725
  19 O3       -6.2908    -5.0831     2.9263  O.2     1  <O>11      -0.2658
  20 C13      -7.6519    -4.7350     4.9149  C.ar    1  <O>11       0.0496
  21 C14      -7.8080    -6.1184     5.1657  C.ar    1  <O>11      -0.0487
  22 C15      -8.5985    -6.5704     6.2238  C.ar    1  <O>11      -0.0610
  23 C16      -9.2527    -5.6577     7.0412  C.ar    1  <O>11      -0.0611
  24 C17      -9.1173    -4.2883     6.8031  C.ar    1  <O>11      -0.0521
  25 C18      -8.3125    -3.8110     5.7431  C.ar    1  <O>11       0.0106
  26 C19      -9.9990     0.5455     5.1950  C.ar    1  <O>11      -0.0555
  27 C20      -9.8791     1.8077     4.6039  C.ar    1  <O>11      -0.0254
  28 C21      -8.6276     2.4077     4.4494  C.ar    1  <O>11       0.1374
  29 F1       -8.5110     3.6478     3.8768  F       1  <O>11      -0.2046
  30 H1       -3.9513     0.2122     3.7062  H       1  <O>11       0.0279
  31 H2       -2.4322    -0.4727     3.0803  H       1  <O>11       0.0279
  32 H3       -3.9390    -0.6510     2.1496  H       1  <O>11       0.0279
  33 H4       -1.7000     3.0314    -0.0892  H       1  <O>11       0.1882
  34 H5       -4.4055     3.8896     3.7604  H       1  <O>11       0.0765
  35 H6       -3.6480     2.4697     4.5206  H       1  <O>11       0.0765
  36 H7      -10.0097    -1.7509     6.2952  H       1  <O>11       0.0377
  37 H8       -8.5653    -1.4096     7.2785  H       1  <O>11       0.0377
  38 H9       -6.0984    -2.5700     2.9050  H       1  <O>11       0.1921
  39 H10      -2.0012     0.5257     0.3912  H       1  <O>11       0.0826
  40 H11      -6.7479    -0.0201     5.8203  H       1  <O>11       0.0629
  41 H12      -7.3311    -6.8028     4.5581  H       1  <O>11       0.0625
  42 H13      -8.6969    -7.5827     6.3986  H       1  <O>11       0.0618
  43 H14      -9.8378    -5.9909     7.8233  H       1  <O>11       0.0618
  44 H15      -9.6117    -3.6152     7.4094  H       1  <O>11       0.0624
  45 H16     -10.9272     0.1077     5.3037  H       1  <O>11       0.0621
  46 H17     -10.7252     2.3010     4.2784  H       1  <O>11       0.0646
@<TRIPOS>BOND
     1     1     2    1
     2     2     3   ar
     3     3     4   ar
     4     4     5   ar
     5     5     6   ar
     6     2     6   ar
     7     6     7    1
     8     7     8    1
     9     8     9    1
    10     9    10    2
    11     9    11    1
    12    11    12   ar
    13    12    13   ar
    14    13    14    1
    15    14    15    1
    16    15    16   ar
    17    16    17   ar
    18    17    18   ar
    19    18    19    2
    20    18    20   ar
    21    20    21   ar
    22    21    22   ar
    23    22    23   ar
    24    23    24   ar
    25    24    25   ar
    26    15    25   ar
    27    20    25   ar
    28    13    26   ar
    29    26    27   ar
    30    27    28   ar
    31    11    28   ar
    32    28    29    1
    33     1    30    1
    34     1    31    1
    35     1    32    1
    36     4    33    1
    37     7    34    1
    38     7    35    1
    39    14    36    1
    40    14    37    1
    41    17    38    1
    42     3    39    1
    43    12    40    1
    44    21    41    1
    45    22    42    1
    46    23    43    1
    47    24    44    1
    48    26    45    1
    49    27    46    1
@<TRIPOS>MOLECULE
mol75_1_5
 46 49 0 0 0
SMALL
USER_CHARGES
****
VDW energy = 0.67
@<TRIPOS>ATOM
   1 C1       -3.3712     0.0082     2.8062  C.3     1  <O>11      -0.0364
   2 C2       -3.0924     1.2580     2.1153  C.ar    1  <O>11      -0.0067
   3 C3       -2.3745     1.3144     0.9422  C.ar    1  <O>11       0.0256
   4 N1       -2.2653     2.6718     0.6666  N.ar    1  <O>11      -0.2841
   5 N2       -3.0016     3.4419     1.5264  N.ar    1  <O>11      -0.1752
   6 C4       -3.4515     2.5789     2.4436  C.ar    1  <O>11       0.1029
   7 C5       -4.2150     2.8220     3.6580  C.3     1  <O>11       0.1365
   8 O1       -3.3245     3.0394     4.7401  O.3     1  <O>11      -0.4547
   9 C6       -4.0340     3.2660     5.8720  C.2     1  <O>11       0.3424
  10 O2       -5.2559     3.2586     5.8389  O.2     1  <O>11      -0.2448
  11 C7       -3.3404     3.5188     7.1273  C.ar    1  <O>11       0.0943
  12 C8       -3.0046     4.8334     7.4988  C.ar    1  <O>11      -0.0414
  13 C9       -2.3272     5.0732     8.6991  C.ar    1  <O>11      -0.0406
  14 C10      -1.9733     6.4569     9.0756  C.3     1  <O>11       0.0171
  15 C11      -1.0876     7.0413     8.0348  C.ar    1  <O>11       0.0736
  16 N3       -0.8943     6.3666     6.8217  N.ar    1  <O>11      -0.1750
  17 N4       -0.0123     6.8315     5.9081  N.ar    1  <O>11      -0.2425
  18 C12       0.6736     7.9696     6.1758  C.ar    1  <O>11       0.2725
  19 O3        1.6455     8.3471     5.2274  O.2     1  <O>11      -0.2658
  20 C13       0.4633     8.7577     7.3159  C.ar    1  <O>11       0.0496
  21 C14       1.1380     9.9751     7.5684  C.ar    1  <O>11      -0.0487
  22 C15       0.9025    10.6955     8.7408  C.ar    1  <O>11      -0.0610
  23 C16       0.0027    10.2139     9.6830  C.ar    1  <O>11      -0.0611
  24 C17      -0.6658     9.0092     9.4548  C.ar    1  <O>11      -0.0521
  25 C18      -0.4486     8.2709     8.2686  C.ar    1  <O>11       0.0106
  26 C19      -1.9834     4.0106     9.5408  C.ar    1  <O>11      -0.0555
  27 C20      -2.3252     2.7048     9.1735  C.ar    1  <O>11      -0.0254
  28 C21      -3.0012     2.4532     7.9776  C.ar    1  <O>11       0.1374
  29 F1       -3.3425     1.1742     7.6215  F       1  <O>11      -0.2046
  30 H1       -3.9513     0.2122     3.7062  H       1  <O>11       0.0279
  31 H2       -2.4322    -0.4727     3.0803  H       1  <O>11       0.0279
  32 H3       -3.9390    -0.6510     2.1496  H       1  <O>11       0.0279
  33 H4       -1.7000     3.0314    -0.0892  H       1  <O>11       0.1882
  34 H5       -4.8433     1.9582     3.8718  H       1  <O>11       0.0765
  35 H6       -4.8430     3.7035     3.5223  H       1  <O>11       0.0765
  36 H7       -1.4529     6.4521    10.0328  H       1  <O>11       0.0377
  37 H8       -2.8814     7.0546     9.1576  H       1  <O>11       0.0377
  38 H9        0.1334     6.3392     5.0394  H       1  <O>11       0.1921
  39 H10      -2.0012     0.5257     0.3912  H       1  <O>11       0.0826
  40 H11      -3.2586     5.6227     6.8845  H       1  <O>11       0.0629
  41 H12       1.8134    10.3357     6.8765  H       1  <O>11       0.0625
  42 H13       1.3969    11.5859     8.9075  H       1  <O>11       0.0618
  43 H14      -0.1715    10.7454    10.5503  H       1  <O>11       0.0618
  44 H15      -1.3276     8.6527    10.1618  H       1  <O>11       0.0624
  45 H16      -1.4820     4.1883    10.4251  H       1  <O>11       0.0621
  46 H17      -2.0750     1.9185     9.7934  H       1  <O>11       0.0646
@<TRIPOS>BOND
     1     1     2    1
     2     2     3   ar
     3     3     4   ar
     4     4     5   ar
     5     5     6   ar
     6     2     6   ar
     7     6     7    1
     8     7     8    1
     9     8     9    1
    10     9    10    2
    11     9    11    1
    12    11    12   ar
    13    12    13   ar
    14    13    14    1
    15    14    15    1
    16    15    16   ar
    17    16    17   ar
    18    17    18   ar
    19    18    19    2
    20    18    20   ar
    21    20    21   ar
    22    21    22   ar
    23    22    23   ar
    24    23    24   ar
    25    24    25   ar
    26    15    25   ar
    27    20    25   ar
    28    13    26   ar
    29    26    27   ar
    30    27    28   ar
    31    11    28   ar
    32    28    29    1
    33     1    30    1
    34     1    31    1
    35     1    32    1
    36     4    33    1
    37     7    34    1
    38     7    35    1
    39    14    36    1
    40    14    37    1
    41    17    38    1
    42     3    39    1
    43    12    40    1
    44    21    41    1
    45    22    42    1
    46    23    43    1
    47    24    44    1
    48    26    45    1
    49    27    46    1
@<TRIPOS>MOLECULE
mol75_1_6
 46 49 0 0 0
SMALL
USER_CHARGES
****
VDW energy = 1.17
@<TRIPOS>ATOM
   1 C1       -3.3712     0.0082     2.8062  C.3     1  <O>11      -0.0364
   2 C2       -3.0924     1.2580     2.1153  C.ar    1  <O>11      -0.0067
   3 C3       -2.3745     1.3144     0.9422  C.ar    1  <O>11       0.0256
   4 N1       -2.2653     2.6718     0.6666  N.ar    1  <O>11      -0.2841
   5 N2       -3.0016     3.4419     1.5264  N.ar    1  <O>11      -0.1752
   6 C4       -3.4515     2.5789     2.4436  C.ar    1  <O>11       0.1029
   7 C5       -4.2150     2.8220     3.6580  C.3     1  <O>11       0.1365
   8 O1       -4.4640     4.2120     3.7890  O.3     1  <O>11      -0.4547
   9 C6       -5.1750     4.4401     4.9196  C.2     1  <O>11       0.3424
  10 O2       -5.4953     3.5052     5.6390  O.2     1  <O>11      -0.2448
  11 C7       -5.5578     5.7991     5.2767  C.ar    1  <O>11       0.0943
  12 C8       -5.1926     6.8780     4.4512  C.ar    1  <O>11      -0.0414
  13 C9       -5.5504     8.1841     4.8023  C.ar    1  <O>11      -0.0406
  14 C10      -5.1553     9.3100     3.9318  C.3     1  <O>11       0.0171
  15 C11      -3.8265     9.8218     4.3579  C.ar    1  <O>11       0.0736
  16 N3       -3.0682     9.1049     5.2934  N.ar    1  <O>11      -0.1750
  17 N4       -1.9066     9.6081     5.7690  N.ar    1  <O>11      -0.2425
  18 C12      -1.4771    10.8117     5.3170  C.ar    1  <O>11       0.2725
  19 O3       -0.3116    11.3231     5.9224  O.2     1  <O>11      -0.2658
  20 C13      -2.1215    11.5419     4.3086  C.ar    1  <O>11       0.0496
  21 C14      -1.6432    12.7706     3.7964  C.ar    1  <O>11      -0.0487
  22 C15      -2.3520    13.4615     2.8120  C.ar    1  <O>11      -0.0610
  23 C16      -3.5493    12.9488     2.3293  C.ar    1  <O>11      -0.0611
  24 C17      -4.0414    11.7416     2.8298  C.ar    1  <O>11      -0.0521
  25 C18      -3.3324    11.0220     3.8191  C.ar    1  <O>11       0.0106
  26 C19      -6.2774     8.4272     5.9719  C.ar    1  <O>11      -0.0555
  27 C20      -6.6466     7.3523     6.7874  C.ar    1  <O>11      -0.0254
  28 C21      -6.2948     6.0443     6.4473  C.ar    1  <O>11       0.1374
  29 F1       -6.6630     4.9904     7.2428  F       1  <O>11      -0.2046
  30 H1       -3.9513     0.2122     3.7062  H       1  <O>11       0.0279
  31 H2       -2.4322    -0.4727     3.0803  H       1  <O>11       0.0279
  32 H3       -3.9390    -0.6510     2.1496  H       1  <O>11       0.0279
  33 H4       -1.7000     3.0314    -0.0892  H       1  <O>11       0.1882
  34 H5       -3.6490     2.4710     4.5200  H       1  <O>11       0.0765
  35 H6       -5.1640     2.2870     3.6040  H       1  <O>11       0.0765
  36 H7       -5.8930    10.1079     4.0109  H       1  <O>11       0.0377
  37 H8       -5.0986     8.9675     2.8982  H       1  <O>11       0.0377
  38 H9       -1.3666     9.0956     6.4501  H       1  <O>11       0.1921
  39 H10      -2.0012     0.5257     0.3912  H       1  <O>11       0.0826
  40 H11      -4.6595     6.7057     3.5846  H       1  <O>11       0.0629
  41 H12      -0.7581    13.1616     4.1552  H       1  <O>11       0.0625
  42 H13      -1.9865    14.3532     2.4428  H       1  <O>11       0.0618
  43 H14      -4.0743    13.4592     1.6021  H       1  <O>11       0.0618
  44 H15      -4.9352    11.3694     2.4726  H       1  <O>11       0.0624
  45 H16      -6.5393     9.3912     6.2311  H       1  <O>11       0.0621
  46 H17      -7.1851     7.5279     7.6502  H       1  <O>11       0.0646
@<TRIPOS>BOND
     1     1     2    1
     2     2     3   ar
     3     3     4   ar
     4     4     5   ar
     5     5     6   ar
     6     2     6   ar
     7     6     7    1
     8     7     8    1
     9     8     9    1
    10     9    10    2
    11     9    11    1
    12    11    12   ar
    13    12    13   ar
    14    13    14    1
    15    14    15    1
    16    15    16   ar
    17    16    17   ar
    18    17    18   ar
    19    18    19    2
    20    18    20   ar
    21    20    21   ar
    22    21    22   ar
    23    22    23   ar
    24    23    24   ar
    25    24    25   ar
    26    15    25   ar
    27    20    25   ar
    28    13    26   ar
    29    26    27   ar
    30    27    28   ar
    31    11    28   ar
    32    28    29    1
    33     1    30    1
    34     1    31    1
    35     1    32    1
    36     4    33    1
    37     7    34    1
    38     7    35    1
    39    14    36    1
    40    14    37    1
    41    17    38    1
    42     3    39    1
    43    12    40    1
    44    21    41    1
    45    22    42    1
    46    23    43    1
    47    24    44    1
    48    26    45    1
    49    27    46    1
@<TRIPOS>MOLECULE
mol75_1_7
 46 49 0 0 0
SMALL
USER_CHARGES
****
VDW energy = 1.63
@<TRIPOS>ATOM
   1 C1       -3.3712     0.0082     2.8062  C.3     1  <O>11      -0.0364
   2 C2       -3.0924     1.2580     2.1153  C.ar    1  <O>11      -0.0067
   3 C3       -2.3745     1.3144     0.9422  C.ar    1  <O>11       0.0256
   4 N1       -2.2653     2.6718     0.6666  N.ar    1  <O>11      -0.2841
   5 N2       -3.0016     3.4419     1.5264  N.ar    1  <O>11      -0.1752
   6 C4       -3.4515     2.5789     2.4436  C.ar    1  <O>11       0.1029
   7 C5       -4.2150     2.8220     3.6580  C.3     1  <O>11       0.1365
   8 O1       -4.4640     4.2120     3.7890  O.3     1  <O>11      -0.4547
   9 C6       -5.1750     4.4401     4.9196  C.2     1  <O>11       0.3424
  10 O2       -5.4953     3.5052     5.6390  O.2     1  <O>11      -0.2448
  11 C7       -5.5578     5.7991     5.2767  C.ar    1  <O>11       0.0943
  12 C8       -6.8294     6.0573     5.8201  C.ar    1  <O>11      -0.0414
  13 C9       -7.2000     7.3651     6.1509  C.ar    1  <O>11      -0.0406
  14 C10      -8.5404     7.6254     6.7141  C.3     1  <O>11       0.0171
  15 C11      -9.5779     7.1875     5.7440  C.ar    1  <O>11       0.0736
  16 N3       -9.2103     6.4397     4.6170  N.ar    1  <O>11      -0.1750
  17 N4      -10.1249     6.1232     3.6725  N.ar    1  <O>11      -0.2425
  18 C12     -11.4081     6.5273     3.8377  C.ar    1  <O>11       0.2725
  19 O3      -12.2892     6.2491     2.7734  O.2     1  <O>11      -0.2658
  20 C13     -11.8774     7.1869     4.9823  C.ar    1  <O>11       0.0496
  21 C14     -13.2278     7.5586     5.1803  C.ar    1  <O>11      -0.0487
  22 C15     -13.6219     8.2416     6.3322  C.ar    1  <O>11      -0.0610
  23 C16     -12.6813     8.5741     7.2985  C.ar    1  <O>11      -0.0611
  24 C17     -11.3420     8.2232     7.1158  C.ar    1  <O>11      -0.0521
  25 C18     -10.9255     7.5217     5.9610  C.ar    1  <O>11       0.0106
  26 C19      -6.3092     8.4241     5.9496  C.ar    1  <O>11      -0.0555
  27 C20      -5.0422     8.1644     5.4166  C.ar    1  <O>11      -0.0254
  28 C21      -4.6613     6.8631     5.0823  C.ar    1  <O>11       0.1374
  29 F1       -3.4170     6.6079     4.5668  F       1  <O>11      -0.2046
  30 H1       -3.9513     0.2122     3.7062  H       1  <O>11       0.0279
  31 H2       -2.4322    -0.4727     3.0803  H       1  <O>11       0.0279
  32 H3       -3.9390    -0.6510     2.1496  H       1  <O>11       0.0279
  33 H4       -1.7000     3.0314    -0.0892  H       1  <O>11       0.1882
  34 H5       -3.6490     2.4710     4.5200  H       1  <O>11       0.0765
  35 H6       -5.1640     2.2870     3.6040  H       1  <O>11       0.0765
  36 H7       -8.6531     8.6916     6.9082  H       1  <O>11       0.0377
  37 H8       -8.6569     7.0712     7.6458  H       1  <O>11       0.0377
  38 H9       -9.8569     5.5934     2.8566  H       1  <O>11       0.1921
  39 H10      -2.0012     0.5257     0.3912  H       1  <O>11       0.0826
  40 H11      -7.4904     5.2801     5.9751  H       1  <O>11       0.0629
  41 H12     -13.9313     7.3215     4.4634  H       1  <O>11       0.0625
  42 H13     -14.6122     8.4996     6.4658  H       1  <O>11       0.0618
  43 H14     -12.9716     9.0796     8.1501  H       1  <O>11       0.0618
  44 H15     -10.6464     8.4794     7.8339  H       1  <O>11       0.0624
  45 H16      -6.5842     9.3888     6.1921  H       1  <O>11       0.0621
  46 H17      -4.3815     8.9434     5.2687  H       1  <O>11       0.0646
@<TRIPOS>BOND
     1     1     2    1
     2     2     3   ar
     3     3     4   ar
     4     4     5   ar
     5     5     6   ar
     6     2     6   ar
     7     6     7    1
     8     7     8    1
     9     8     9    1
    10     9    10    2
    11     9    11    1
    12    11    12   ar
    13    12    13   ar
    14    13    14    1
    15    14    15    1
    16    15    16   ar
    17    16    17   ar
    18    17    18   ar
    19    18    19    2
    20    18    20   ar
    21    20    21   ar
    22    21    22   ar
    23    22    23   ar
    24    23    24   ar
    25    24    25   ar
    26    15    25   ar
    27    20    25   ar
    28    13    26   ar
    29    26    27   ar
    30    27    28   ar
    31    11    28   ar
    32    28    29    1
    33     1    30    1
    34     1    31    1
    35     1    32    1
    36     4    33    1
    37     7    34    1
    38     7    35    1
    39    14    36    1
    40    14    37    1
    41    17    38    1
    42     3    39    1
    43    12    40    1
    44    21    41    1
    45    22    42    1
    46    23    43    1
    47    24    44    1
    48    26    45    1
    49    27    46    1
@<TRIPOS>MOLECULE
mol75_1_8
 46 49 0 0 0
SMALL
USER_CHARGES
****
VDW energy = 2.93
@<TRIPOS>ATOM
   1 C1       -3.3712     0.0082     2.8062  C.3     1  <O>11      -0.0364
   2 C2       -3.0924     1.2580     2.1153  C.ar    1  <O>11      -0.0067
   3 C3       -2.3745     1.3144     0.9422  C.ar    1  <O>11       0.0256
   4 N1       -2.2653     2.6718     0.6666  N.ar    1  <O>11      -0.2841
   5 N2       -3.0016     3.4419     1.5264  N.ar    1  <O>11      -0.1752
   6 C4       -3.4515     2.5789     2.4436  C.ar    1  <O>11       0.1029
   7 C5       -4.2150     2.8220     3.6580  C.3     1  <O>11       0.1365
   8 O1       -3.3245     3.0394     4.7401  O.3     1  <O>11      -0.4547
   9 C6       -4.0340     3.2671     5.8718  C.2     1  <O>11       0.3424
  10 O2       -5.2559     3.2605     5.8385  O.2     1  <O>11      -0.2448
  11 C7       -3.3404     3.5202     7.1271  C.ar    1  <O>11       0.0943
  12 C8       -1.9343     3.5300     7.1699  C.ar    1  <O>11      -0.0414
  13 C9       -1.2697     3.7609     8.3791  C.ar    1  <O>11      -0.0406
  14 C10       0.2069     3.7617     8.4137  C.3     1  <O>11       0.0171
  15 C11       0.6958     2.3858     8.6911  C.ar    1  <O>11       0.0736
  16 N3       -0.1982     1.3067     8.6613  N.ar    1  <O>11      -0.1750
  17 N4        0.2085     0.0658     9.0128  N.ar    1  <O>11      -0.2425
  18 C12       1.4990    -0.1238     9.3812  C.ar    1  <O>11       0.2725
  19 O3        1.8342    -1.4181     9.8275  O.2     1  <O>11      -0.2658
  20 C13       2.4783     0.8784     9.3382  C.ar    1  <O>11       0.0496
  21 C14       3.8375     0.6675     9.6683  C.ar    1  <O>11      -0.0487
  22 C15       4.7552     1.7189     9.6333  C.ar    1  <O>11      -0.0610
  23 C16       4.3361     2.9952     9.2804  C.ar    1  <O>11      -0.0611
  24 C17       2.9962     3.2240     8.9601  C.ar    1  <O>11      -0.0521
  25 C18       2.0541     2.1697     8.9793  C.ar    1  <O>11       0.0106
  26 C19      -1.9961     3.9887     9.5522  C.ar    1  <O>11      -0.0555
  27 C20      -3.3941     3.9865     9.5061  C.ar    1  <O>11      -0.0254
  28 C21      -4.0685     3.7569     8.3049  C.ar    1  <O>11       0.1374
  29 F1       -5.4386     3.7621     8.2585  F       1  <O>11      -0.2046
  30 H1       -3.9513     0.2122     3.7062  H       1  <O>11       0.0279
  31 H2       -2.4322    -0.4727     3.0803  H       1  <O>11       0.0279
  32 H3       -3.9390    -0.6510     2.1496  H       1  <O>11       0.0279
  33 H4       -1.7000     3.0314    -0.0892  H       1  <O>11       0.1882
  34 H5       -4.8433     1.9582     3.8718  H       1  <O>11       0.0765
  35 H6       -4.8430     3.7035     3.5223  H       1  <O>11       0.0765
  36 H7        0.5524     4.4338     9.1986  H       1  <O>11       0.0377
  37 H8        0.5927     4.0973     7.4507  H       1  <O>11       0.0377
  38 H9       -0.4387    -0.7083     9.0006  H       1  <O>11       0.1921
  39 H10      -2.0012     0.5257     0.3912  H       1  <O>11       0.0826
  40 H11      -1.3919     3.3665     6.3074  H       1  <O>11       0.0629
  41 H12       4.1551    -0.2764     9.9386  H       1  <O>11       0.0625
  42 H13       5.7452     1.5479     9.8696  H       1  <O>11       0.0618
  43 H14       5.0136     3.7732     9.2548  H       1  <O>11       0.0618
  44 H15       2.6892     4.1759     8.7058  H       1  <O>11       0.0624
  45 H16      -1.5049     4.1571    10.4441  H       1  <O>11       0.0621
  46 H17      -3.9333     4.1565    10.3695  H       1  <O>11       0.0646
@<TRIPOS>BOND
     1     1     2    1
     2     2     3   ar
     3     3     4   ar
     4     4     5   ar
     5     5     6   ar
     6     2     6   ar
     7     6     7    1
     8     7     8    1
     9     8     9    1
    10     9    10    2
    11     9    11    1
    12    11    12   ar
    13    12    13   ar
    14    13    14    1
    15    14    15    1
    16    15    16   ar
    17    16    17   ar
    18    17    18   ar
    19    18    19    2
    20    18    20   ar
    21    20    21   ar
    22    21    22   ar
    23    22    23   ar
    24    23    24   ar
    25    24    25   ar
    26    15    25   ar
    27    20    25   ar
    28    13    26   ar
    29    26    27   ar
    30    27    28   ar
    31    11    28   ar
    32    28    29    1
    33     1    30    1
    34     1    31    1
    35     1    32    1
    36     4    33    1
    37     7    34    1
    38     7    35    1
    39    14    36    1
    40    14    37    1
    41    17    38    1
    42     3    39    1
    43    12    40    1
    44    21    41    1
    45    22    42    1
    46    23    43    1
    47    24    44    1
    48    26    45    1
    49    27    46    1
@<TRIPOS>MOLECULE
mol75_1_9
 46 49 0 0 0
SMALL
USER_CHARGES
****
VDW energy = 5.23
@<TRIPOS>ATOM
   1 C1       -3.3712     0.0082     2.8062  C.3     1  <O>11      -0.0364
   2 C2       -3.0924     1.2580     2.1153  C.ar    1  <O>11      -0.0067
   3 C3       -2.3745     1.3144     0.9422  C.ar    1  <O>11       0.0256
   4 N1       -2.2653     2.6718     0.6666  N.ar    1  <O>11      -0.2841
   5 N2       -3.0016     3.4419     1.5264  N.ar    1  <O>11      -0.1752
   6 C4       -3.4515     2.5789     2.4436  C.ar    1  <O>11       0.1029
   7 C5       -4.2150     2.8220     3.6580  C.3     1  <O>11       0.1365
   8 O1       -3.3245     3.0394     4.7401  O.3     1  <O>11      -0.4547
   9 C6       -4.0340     3.2671     5.8718  C.2     1  <O>11       0.3424
  10 O2       -5.2559     3.2605     5.8385  O.2     1  <O>11      -0.2448
  11 C7       -3.3404     3.5202     7.1271  C.ar    1  <O>11       0.0943
  12 C8       -1.9343     3.5300     7.1699  C.ar    1  <O>11      -0.0414
  13 C9       -1.2697     3.7609     8.3791  C.ar    1  <O>11      -0.0406
  14 C10       0.2069     3.7617     8.4137  C.3     1  <O>11       0.0171
  15 C11       0.6958     2.3858     8.6911  C.ar    1  <O>11       0.0736
  16 N3        0.9570     1.5091     7.6292  N.ar    1  <O>11      -0.1750
  17 N4        1.3017     0.2233     7.8667  N.ar    1  <O>11      -0.2425
  18 C12       1.4057    -0.2038     9.1490  C.ar    1  <O>11       0.2725
  19 O3        1.6733    -1.5761     9.3272  O.2     1  <O>11      -0.2658
  20 C13       1.2630     0.6333    10.2644  C.ar    1  <O>11       0.0496
  21 C14       1.4273     0.2008    11.6011  C.ar    1  <O>11      -0.0487
  22 C15       1.2401     1.0816    12.6678  C.ar    1  <O>11      -0.0610
  23 C16       0.8779     2.4002    12.4243  C.ar    1  <O>11      -0.0611
  24 C17       0.7025     2.8426    11.1114  C.ar    1  <O>11      -0.0521
  25 C18       0.8981     1.9683    10.0176  C.ar    1  <O>11       0.0106
  26 C19      -1.9961     3.9887     9.5522  C.ar    1  <O>11      -0.0555
  27 C20      -3.3941     3.9865     9.5061  C.ar    1  <O>11      -0.0254
  28 C21      -4.0685     3.7569     8.3049  C.ar    1  <O>11       0.1374
  29 F1       -5.4386     3.7621     8.2585  F       1  <O>11      -0.2046
  30 H1       -3.9513     0.2122     3.7062  H       1  <O>11       0.0279
  31 H2       -2.4322    -0.4727     3.0803  H       1  <O>11       0.0279
  32 H3       -3.9390    -0.6510     2.1496  H       1  <O>11       0.0279
  33 H4       -1.7000     3.0314    -0.0892  H       1  <O>11       0.1882
  34 H5       -4.8433     1.9582     3.8718  H       1  <O>11       0.0765
  35 H6       -4.8430     3.7035     3.5223  H       1  <O>11       0.0765
  36 H7        0.5524     4.4338     9.1986  H       1  <O>11       0.0377
  37 H8        0.5927     4.0973     7.4507  H       1  <O>11       0.0377
  38 H9        1.4797    -0.4095     7.1012  H       1  <O>11       0.1921
  39 H10      -2.0012     0.5257     0.3912  H       1  <O>11       0.0826
  40 H11      -1.3919     3.3665     6.3074  H       1  <O>11       0.0629
  41 H12       1.6891    -0.7794    11.7904  H       1  <O>11       0.0625
  42 H13       1.3708     0.7531    13.6374  H       1  <O>11       0.0618
  43 H14       0.7387     3.0520    13.2123  H       1  <O>11       0.0618
  44 H15       0.4262     3.8215    10.9370  H       1  <O>11       0.0624
  45 H16      -1.5049     4.1571    10.4441  H       1  <O>11       0.0621
  46 H17      -3.9333     4.1565    10.3695  H       1  <O>11       0.0646
@<TRIPOS>BOND
     1     1     2    1
     2     2     3   ar
     3     3     4   ar
     4     4     5   ar
     5     5     6   ar
     6     2     6   ar
     7     6     7    1
     8     7     8    1
     9     8     9    1
    10     9    10    2
    11     9    11    1
    12    11    12   ar
    13    12    13   ar
    14    13    14    1
    15    14    15    1
    16    15    16   ar
    17    16    17   ar
    18    17    18   ar
    19    18    19    2
    20    18    20   ar
    21    20    21   ar
    22    21    22   ar
    23    22    23   ar
    24    23    24   ar
    25    24    25   ar
    26    15    25   ar
    27    20    25   ar
    28    13    26   ar
    29    26    27   ar
    30    27    28   ar
    31    11    28   ar
    32    28    29    1
    33     1    30    1
    34     1    31    1
    35     1    32    1
    36     4    33    1
    37     7    34    1
    38     7    35    1
    39    14    36    1
    40    14    37    1
    41    17    38    1
    42     3    39    1
    43    12    40    1
    44    21    41    1
    45    22    42    1
    46    23    43    1
    47    24    44    1
    48    26    45    1
    49    27    46    1
@<TRIPOS>MOLECULE
mol75_1_10
 46 49 0 0 0
SMALL
USER_CHARGES
****
VDW energy = 5.77
@<TRIPOS>ATOM
   1 C1       -3.3712     0.0082     2.8062  C.3     1  <O>11      -0.0364
   2 C2       -3.0924     1.2580     2.1153  C.ar    1  <O>11      -0.0067
   3 C3       -2.3745     1.3144     0.9422  C.ar    1  <O>11       0.0256
   4 N1       -2.2653     2.6718     0.6666  N.ar    1  <O>11      -0.2841
   5 N2       -3.0016     3.4419     1.5264  N.ar    1  <O>11      -0.1752
   6 C4       -3.4515     2.5789     2.4436  C.ar    1  <O>11       0.1029
   7 C5       -4.2150     2.8220     3.6580  C.3     1  <O>11       0.1365
   8 O1       -4.4640     4.2120     3.7890  O.3     1  <O>11      -0.4547
   9 C6       -5.1760     4.4400     4.9190  C.2     1  <O>11       0.3424
  10 O2       -5.4970     3.5050     5.6380  O.2     1  <O>11      -0.2448
  11 C7       -5.5590     5.7990     5.2760  C.ar    1  <O>11       0.0943
  12 C8       -5.1930     6.8780     4.4510  C.ar    1  <O>11      -0.0414
  13 C9       -5.5510     8.1840     4.8020  C.ar    1  <O>11      -0.0406
  14 C10      -5.1550     9.3100     3.9320  C.3     1  <O>11       0.0171
  15 C11      -3.6732     9.3551     3.8253  C.ar    1  <O>11       0.0736
  16 N3       -2.9037     8.2940     4.3217  N.ar    1  <O>11      -0.1750
  17 N4       -1.5534     8.3661     4.3267  N.ar    1  <O>11      -0.2425
  18 C12      -0.9520     9.4750     3.8307  C.ar    1  <O>11       0.2725
  19 O3        0.4511     9.5285     3.9532  O.2     1  <O>11      -0.2658
  20 C13      -1.6435    10.5323     3.2230  C.ar    1  <O>11       0.0496
  21 C14      -1.0128    11.6635     2.6542  C.ar    1  <O>11      -0.0487
  22 C15      -1.7648    12.6962     2.0914  C.ar    1  <O>11      -0.0610
  23 C16      -3.1520    12.6262     2.0936  C.ar    1  <O>11      -0.0611
  24 C17      -3.7921    11.5211     2.6587  C.ar    1  <O>11      -0.0521
  25 C18      -3.0474    10.4603     3.2238  C.ar    1  <O>11       0.0106
  26 C19      -6.2790     8.4270     5.9710  C.ar    1  <O>11      -0.0555
  27 C20      -6.6490     7.3520     6.7860  C.ar    1  <O>11      -0.0254
  28 C21      -6.2970     6.0440     6.4460  C.ar    1  <O>11       0.1374
  29 F1       -6.6660     4.9900     7.2410  F       1  <O>11      -0.2046
  30 H1       -3.9513     0.2122     3.7062  H       1  <O>11       0.0279
  31 H2       -2.4322    -0.4727     3.0803  H       1  <O>11       0.0279
  32 H3       -3.9390    -0.6510     2.1496  H       1  <O>11       0.0279
  33 H4       -1.7000     3.0314    -0.0892  H       1  <O>11       0.1882
  34 H5       -3.6490     2.4710     4.5200  H       1  <O>11       0.0765
  35 H6       -5.1640     2.2870     3.6040  H       1  <O>11       0.0765
  36 H7       -5.5159    10.2450     4.3595  H       1  <O>11       0.0377
  37 H8       -5.5868     9.1722     2.9404  H       1  <O>11       0.0377
  38 H9       -1.0008     7.6058     4.6937  H       1  <O>11       0.1921
  39 H10      -2.0012     0.5257     0.3912  H       1  <O>11       0.0826
  40 H11      -4.6591     6.7057     3.5848  H       1  <O>11       0.0629
  41 H12       0.0173    11.7262     2.6554  H       1  <O>11       0.0625
  42 H13      -1.2901    13.5118     1.6736  H       1  <O>11       0.0618
  43 H14      -3.7087    13.3894     1.6783  H       1  <O>11       0.0618
  44 H15      -4.8232    11.4782     2.6640  H       1  <O>11       0.0624
  45 H16      -6.5410     9.3910     6.2301  H       1  <O>11       0.0621
  46 H17      -7.1882     7.5275     7.6483  H       1  <O>11       0.0646
@<TRIPOS>BOND
     1     1     2    1
     2     2     3   ar
     3     3     4   ar
     4     4     5   ar
     5     5     6   ar
     6     2     6   ar
     7     6     7    1
     8     7     8    1
     9     8     9    1
    10     9    10    2
    11     9    11    1
    12    11    12   ar
    13    12    13   ar
    14    13    14    1
    15    14    15    1
    16    15    16   ar
    17    16    17   ar
    18    17    18   ar
    19    18    19    2
    20    18    20   ar
    21    20    21   ar
    22    21    22   ar
    23    22    23   ar
    24    23    24   ar
    25    24    25   ar
    26    15    25   ar
    27    20    25   ar
    28    13    26   ar
    29    26    27   ar
    30    27    28   ar
    31    11    28   ar
    32    28    29    1
    33     1    30    1
    34     1    31    1
    35     1    32    1
    36     4    33    1
    37     7    34    1
    38     7    35    1
    39    14    36    1
    40    14    37    1
    41    17    38    1
    42     3    39    1
    43    12    40    1
    44    21    41    1
    45    22    42    1
    46    23    43    1
    47    24    44    1
    48    26    45    1
    49    27    46    1
@<TRIPOS>MOLECULE
mol75_1_11
 46 49 0 0 0
SMALL
USER_CHARGES
****
VDW energy = 6.97
@<TRIPOS>ATOM
   1 C1       -3.3712     0.0082     2.8062  C.3     1  <O>11      -0.0364
   2 C2       -3.0924     1.2580     2.1153  C.ar    1  <O>11      -0.0067
   3 C3       -2.3745     1.3144     0.9422  C.ar    1  <O>11       0.0256
   4 N1       -2.2653     2.6718     0.6666  N.ar    1  <O>11      -0.2841
   5 N2       -3.0016     3.4419     1.5264  N.ar    1  <O>11      -0.1752
   6 C4       -3.4515     2.5789     2.4436  C.ar    1  <O>11       0.1029
   7 C5       -4.2150     2.8220     3.6580  C.3     1  <O>11       0.1365
   8 O1       -4.4640     4.2120     3.7890  O.3     1  <O>11      -0.4547
   9 C6       -5.1760     4.4400     4.9190  C.2     1  <O>11       0.3424
  10 O2       -5.4970     3.5050     5.6380  O.2     1  <O>11      -0.2448
  11 C7       -5.5590     5.7990     5.2760  C.ar    1  <O>11       0.0943
  12 C8       -5.1930     6.8780     4.4510  C.ar    1  <O>11      -0.0414
  13 C9       -5.5510     8.1840     4.8020  C.ar    1  <O>11      -0.0406
  14 C10      -5.1550     9.3100     3.9320  C.3     1  <O>11       0.0171
  15 C11      -3.6732     9.3551     3.8253  C.ar    1  <O>11       0.0736
  16 N3       -3.0583     9.2304     2.5720  N.ar    1  <O>11      -0.1750
  17 N4       -1.7115     9.1649     2.4694  N.ar    1  <O>11      -0.2425
  18 C12      -0.9616     9.2361     3.5963  C.ar    1  <O>11       0.2725
  19 O3        0.4276     9.0650     3.4303  O.2     1  <O>11      -0.2658
  20 C13      -1.4921     9.4645     4.8737  C.ar    1  <O>11       0.0496
  21 C14      -0.7059     9.5955     6.0422  C.ar    1  <O>11      -0.0487
  22 C15      -1.3021     9.7917     7.2892  C.ar    1  <O>11      -0.0610
  23 C16      -2.6856     9.8508     7.3959  C.ar    1  <O>11      -0.0611
  24 C17      -3.4782     9.7145     6.2542  C.ar    1  <O>11      -0.0521
  25 C18      -2.8924     9.5259     4.9812  C.ar    1  <O>11       0.0106
  26 C19      -6.2790     8.4270     5.9710  C.ar    1  <O>11      -0.0555
  27 C20      -6.6490     7.3520     6.7860  C.ar    1  <O>11      -0.0254
  28 C21      -6.2970     6.0440     6.4460  C.ar    1  <O>11       0.1374
  29 F1       -6.6660     4.9900     7.2410  F       1  <O>11      -0.2046
  30 H1       -3.9513     0.2122     3.7062  H       1  <O>11       0.0279
  31 H2       -2.4322    -0.4727     3.0803  H       1  <O>11       0.0279
  32 H3       -3.9390    -0.6510     2.1496  H       1  <O>11       0.0279
  33 H4       -1.7000     3.0314    -0.0892  H       1  <O>11       0.1882
  34 H5       -3.6490     2.4710     4.5200  H       1  <O>11       0.0765
  35 H6       -5.1640     2.2870     3.6040  H       1  <O>11       0.0765
  36 H7       -5.5159    10.2450     4.3595  H       1  <O>11       0.0377
  37 H8       -5.5868     9.1722     2.9404  H       1  <O>11       0.0377
  38 H9       -1.2704     9.0650     1.5673  H       1  <O>11       0.1921
  39 H10      -2.0012     0.5257     0.3912  H       1  <O>11       0.0826
  40 H11      -4.6591     6.7057     3.5848  H       1  <O>11       0.0629
  41 H12       0.3225     9.5453     5.9720  H       1  <O>11       0.0625
  42 H13      -0.7148     9.8930     8.1318  H       1  <O>11       0.0618
  43 H14      -3.1273     9.9952     8.3174  H       1  <O>11       0.0618
  44 H15      -4.5058     9.7518     6.3408  H       1  <O>11       0.0624
  45 H16      -6.5410     9.3910     6.2301  H       1  <O>11       0.0621
  46 H17      -7.1882     7.5275     7.6483  H       1  <O>11       0.0646
@<TRIPOS>BOND
     1     1     2    1
     2     2     3   ar
     3     3     4   ar
     4     4     5   ar
     5     5     6   ar
     6     2     6   ar
     7     6     7    1
     8     7     8    1
     9     8     9    1
    10     9    10    2
    11     9    11    1
    12    11    12   ar
    13    12    13   ar
    14    13    14    1
    15    14    15    1
    16    15    16   ar
    17    16    17   ar
    18    17    18   ar
    19    18    19    2
    20    18    20   ar
    21    20    21   ar
    22    21    22   ar
    23    22    23   ar
    24    23    24   ar
    25    24    25   ar
    26    15    25   ar
    27    20    25   ar
    28    13    26   ar
    29    26    27   ar
    30    27    28   ar
    31    11    28   ar
    32    28    29    1
    33     1    30    1
    34     1    31    1
    35     1    32    1
    36     4    33    1
    37     7    34    1
    38     7    35    1
    39    14    36    1
    40    14    37    1
    41    17    38    1
    42     3    39    1
    43    12    40    1
    44    21    41    1
    45    22    42    1
    46    23    43    1
    47    24    44    1
    48    26    45    1
    49    27    46    1
@<TRIPOS>MOLECULE
mol75_1_12
 46 49 0 0 0
SMALL
USER_CHARGES
****
VDW energy = 7.36
@<TRIPOS>ATOM
   1 C1       -3.3712     0.0082     2.8062  C.3     1  <O>11      -0.0364
   2 C2       -3.0924     1.2580     2.1153  C.ar    1  <O>11      -0.0067
   3 C3       -2.3745     1.3144     0.9422  C.ar    1  <O>11       0.0256
   4 N1       -2.2653     2.6718     0.6666  N.ar    1  <O>11      -0.2841
   5 N2       -3.0016     3.4419     1.5264  N.ar    1  <O>11      -0.1752
   6 C4       -3.4515     2.5789     2.4436  C.ar    1  <O>11       0.1029
   7 C5       -4.2150     2.8220     3.6580  C.3     1  <O>11       0.1365
   8 O1       -4.4640     4.2120     3.7890  O.3     1  <O>11      -0.4547
   9 C6       -5.1750     4.4401     4.9196  C.2     1  <O>11       0.3424
  10 O2       -5.4954     5.5808     5.2202  O.2     1  <O>11      -0.2448
  11 C7       -5.5567     3.3260     5.7764  C.ar    1  <O>11       0.0943
  12 C8       -4.7079     2.9109     6.8186  C.ar    1  <O>11      -0.0414
  13 C9       -5.0704     1.8325     7.6328  C.ar    1  <O>11      -0.0406
  14 C10      -4.1681     1.4006     8.7195  C.3     1  <O>11       0.0171
  15 C11      -2.8582     0.9979     8.1439  C.ar    1  <O>11       0.0736
  16 N3       -1.8383     1.9475     7.9948  N.ar    1  <O>11      -0.1750
  17 N4       -0.6794     1.6222     7.3784  N.ar    1  <O>11      -0.2425
  18 C12      -0.5113     0.3584     6.9182  C.ar    1  <O>11       0.2725
  19 O3        0.6769     0.1109     6.2015  O.2     1  <O>11      -0.2658
  20 C13      -1.4373    -0.6749     7.1187  C.ar    1  <O>11       0.0496
  21 C14      -1.2373    -2.0075     6.6885  C.ar    1  <O>11      -0.0487
  22 C15      -2.2158    -2.9817     6.8941  C.ar    1  <O>11      -0.0610
  23 C16      -3.4095    -2.6459     7.5198  C.ar    1  <O>11      -0.0611
  24 C17      -3.6281    -1.3332     7.9432  C.ar    1  <O>11      -0.0521
  25 C18      -2.6446    -0.3351     7.7535  C.ar    1  <O>11       0.0106
  26 C19      -6.2797     1.1628     7.4213  C.ar    1  <O>11      -0.0555
  27 C20      -7.1261     1.5822     6.3896  C.ar    1  <O>11      -0.0254
  28 C21      -6.7747     2.6572     5.5702  C.ar    1  <O>11       0.1374
  29 F1       -7.6077     3.0726     4.5639  F       1  <O>11      -0.2046
  30 H1       -3.9513     0.2122     3.7062  H       1  <O>11       0.0279
  31 H2       -2.4322    -0.4727     3.0803  H       1  <O>11       0.0279
  32 H3       -3.9390    -0.6510     2.1496  H       1  <O>11       0.0279
  33 H4       -1.7000     3.0314    -0.0892  H       1  <O>11       0.1882
  34 H5       -3.6490     2.4710     4.5200  H       1  <O>11       0.0765
  35 H6       -5.1640     2.2870     3.6040  H       1  <O>11       0.0765
  36 H7       -4.6090     0.5534     9.2439  H       1  <O>11       0.0377
  37 H8       -4.0203     2.2246     9.4180  H       1  <O>11       0.0377
  38 H9        0.0502     2.3096     7.2627  H       1  <O>11       0.1921
  39 H10      -2.0012     0.5257     0.3912  H       1  <O>11       0.0826
  40 H11      -3.8158     3.4029     6.9830  H       1  <O>11       0.0629
  41 H12      -0.3560    -2.2630     6.2162  H       1  <O>11       0.0625
  42 H13      -2.0523    -3.9514     6.5811  H       1  <O>11       0.0618
  43 H14      -4.1337    -3.3653     7.6716  H       1  <O>11       0.0618
  44 H15      -4.5199    -1.0881     8.4009  H       1  <O>11       0.0624
  45 H16      -6.5453     0.3662     8.0212  H       1  <O>11       0.0621
  46 H17      -8.0203     1.0916     6.2321  H       1  <O>11       0.0646
@<TRIPOS>BOND
     1     1     2    1
     2     2     3   ar
     3     3     4   ar
     4     4     5   ar
     5     5     6   ar
     6     2     6   ar
     7     6     7    1
     8     7     8    1
     9     8     9    1
    10     9    10    2
    11     9    11    1
    12    11    12   ar
    13    12    13   ar
    14    13    14    1
    15    14    15    1
    16    15    16   ar
    17    16    17   ar
    18    17    18   ar
    19    18    19    2
    20    18    20   ar
    21    20    21   ar
    22    21    22   ar
    23    22    23   ar
    24    23    24   ar
    25    24    25   ar
    26    15    25   ar
    27    20    25   ar
    28    13    26   ar
    29    26    27   ar
    30    27    28   ar
    31    11    28   ar
    32    28    29    1
    33     1    30    1
    34     1    31    1
    35     1    32    1
    36     4    33    1
    37     7    34    1
    38     7    35    1
    39    14    36    1
    40    14    37    1
    41    17    38    1
    42     3    39    1
    43    12    40    1
    44    21    41    1
    45    22    42    1
    46    23    43    1
    47    24    44    1
    48    26    45    1
    49    27    46    1
@<TRIPOS>MOLECULE
mol75_1_13
 46 49 0 0 0
SMALL
USER_CHARGES
****
VDW energy = 18.67
@<TRIPOS>ATOM
   1 C1       -3.3712     0.0082     2.8062  C.3     1  <O>11      -0.0364
   2 C2       -3.0924     1.2580     2.1153  C.ar    1  <O>11      -0.0067
   3 C3       -2.3745     1.3144     0.9422  C.ar    1  <O>11       0.0256
   4 N1       -2.2653     2.6718     0.6666  N.ar    1  <O>11      -0.2841
   5 N2       -3.0016     3.4419     1.5264  N.ar    1  <O>11      -0.1752
   6 C4       -3.4515     2.5789     2.4436  C.ar    1  <O>11       0.1029
   7 C5       -4.2150     2.8220     3.6580  C.3     1  <O>11       0.1365
   8 O1       -4.4640     4.2120     3.7890  O.3     1  <O>11      -0.4547
   9 C6       -4.9950     4.6875     2.6367  C.2     1  <O>11       0.3424
  10 O2       -5.1845     3.9327     1.6941  O.2     1  <O>11      -0.2448
  11 C7       -5.3391     6.0980     2.5217  C.ar    1  <O>11       0.0943
  12 C8       -6.6230     6.5456     2.8823  C.ar    1  <O>11      -0.0414
  13 C9       -6.9557     7.8988     2.7593  C.ar    1  <O>11      -0.0406
  14 C10      -8.3092     8.3563     3.1341  C.3     1  <O>11       0.0171
  15 C11      -8.5557     8.0498     4.5674  C.ar    1  <O>11       0.0736
  16 N3       -9.1208     6.8203     4.9324  N.ar    1  <O>11      -0.1750
  17 N4       -9.4471     6.5677     6.2202  N.ar    1  <O>11      -0.2425
  18 C12      -9.2065     7.5164     7.1580  C.ar    1  <O>11       0.2725
  19 O3       -9.6574     7.2294     8.4623  O.2     1  <O>11      -0.2658
  20 C13      -8.5515     8.7272     6.8932  C.ar    1  <O>11       0.0496
  21 C14      -8.2494     9.6930     7.8816  C.ar    1  <O>11      -0.0487
  22 C15      -7.6215    10.8930     7.5432  C.ar    1  <O>11      -0.0610
  23 C16      -7.2937    11.1561     6.2193  C.ar    1  <O>11      -0.0611
  24 C17      -7.5925    10.2181     5.2288  C.ar    1  <O>11      -0.0521
  25 C18      -8.2183     8.9925     5.5535  C.ar    1  <O>11       0.0106
  26 C19      -6.0150     8.8172     2.2828  C.ar    1  <O>11      -0.0555
  27 C20      -4.7362     8.3715     1.9323  C.ar    1  <O>11      -0.0254
  28 C21      -4.3927     7.0231     2.0505  C.ar    1  <O>11       0.1374
  29 F1       -3.1371     6.5878     1.7138  F       1  <O>11      -0.2046
  30 H1       -3.9513     0.2122     3.7062  H       1  <O>11       0.0279
  31 H2       -2.4322    -0.4727     3.0803  H       1  <O>11       0.0279
  32 H3       -3.9390    -0.6510     2.1496  H       1  <O>11       0.0279
  33 H4       -1.7000     3.0314    -0.0892  H       1  <O>11       0.1882
  34 H5       -3.6490     2.4710     4.5200  H       1  <O>11       0.0765
  35 H6       -5.1640     2.2870     3.6040  H       1  <O>11       0.0765
  36 H7       -9.0498     7.8430     2.5215  H       1  <O>11       0.0377
  37 H8       -8.3864     9.4320     2.9739  H       1  <O>11       0.0377
  38 H9       -9.8633     5.6860     6.4801  H       1  <O>11       0.1921
  39 H10      -2.0012     0.5257     0.3912  H       1  <O>11       0.0826
  40 H11      -7.3211     5.8741     3.2384  H       1  <O>11       0.0629
  41 H12      -8.4965     9.5079     8.8664  H       1  <O>11       0.0625
  42 H13      -7.4008    11.5847     8.2766  H       1  <O>11       0.0618
  43 H14      -6.8301    12.0432     5.9681  H       1  <O>11       0.0618
  44 H15      -7.3532    10.4224     4.2459  H       1  <O>11       0.0624
  45 H16      -6.2620     9.8149     2.1906  H       1  <O>11       0.0621
  46 H17      -4.0387     9.0469     1.5823  H       1  <O>11       0.0646
@<TRIPOS>BOND
     1     1     2    1
     2     2     3   ar
     3     3     4   ar
     4     4     5   ar
     5     5     6   ar
     6     2     6   ar
     7     6     7    1
     8     7     8    1
     9     8     9    1
    10     9    10    2
    11     9    11    1
    12    11    12   ar
    13    12    13   ar
    14    13    14    1
    15    14    15    1
    16    15    16   ar
    17    16    17   ar
    18    17    18   ar
    19    18    19    2
    20    18    20   ar
    21    20    21   ar
    22    21    22   ar
    23    22    23   ar
    24    23    24   ar
    25    24    25   ar
    26    15    25   ar
    27    20    25   ar
    28    13    26   ar
    29    26    27   ar
    30    27    28   ar
    31    11    28   ar
    32    28    29    1
    33     1    30    1
    34     1    31    1
    35     1    32    1
    36     4    33    1
    37     7    34    1
    38     7    35    1
    39    14    36    1
    40    14    37    1
    41    17    38    1
    42     3    39    1
    43    12    40    1
    44    21    41    1
    45    22    42    1
    46    23    43    1
    47    24    44    1
    48    26    45    1
    49    27    46    1
@<TRIPOS>MOLECULE
mol75_1_14
 46 49 0 0 0
SMALL
USER_CHARGES
****
VDW energy = 21.18
@<TRIPOS>ATOM
   1 C1       -3.3712     0.0082     2.8062  C.3     1  <O>11      -0.0364
   2 C2       -3.0924     1.2580     2.1153  C.ar    1  <O>11      -0.0067
   3 C3       -2.3745     1.3144     0.9422  C.ar    1  <O>11       0.0256
   4 N1       -2.2653     2.6718     0.6666  N.ar    1  <O>11      -0.2841
   5 N2       -3.0016     3.4419     1.5264  N.ar    1  <O>11      -0.1752
   6 C4       -3.4515     2.5789     2.4436  C.ar    1  <O>11       0.1029
   7 C5       -4.2150     2.8220     3.6580  C.3     1  <O>11       0.1365
   8 O1       -4.4640     4.2120     3.7890  O.3     1  <O>11      -0.4547
   9 C6       -3.3006     4.8946     3.6605  C.2     1  <O>11       0.3424
  10 O2       -2.2564     4.2905     3.4631  O.2     1  <O>11      -0.2448
  11 C7       -3.2948     6.3476     3.7584  C.ar    1  <O>11       0.0943
  12 C8       -2.2519     7.0080     4.4329  C.ar    1  <O>11      -0.0414
  13 C9       -2.2546     8.4031     4.5367  C.ar    1  <O>11      -0.0406
  14 C10      -1.1582     9.0854     5.2536  C.3     1  <O>11       0.0171
  15 C11      -1.5167     9.2235     6.6894  C.ar    1  <O>11       0.0736
  16 N3       -2.6378     8.5534     7.1978  N.ar    1  <O>11      -0.1750
  17 N4       -3.0375     8.7506     8.4745  N.ar    1  <O>11      -0.2425
  18 C12      -2.3293     9.5961     9.2624  C.ar    1  <O>11       0.2725
  19 O3       -2.8530     9.8316    10.5496  O.2     1  <O>11      -0.2658
  20 C13      -1.1405    10.2231     8.8637  C.ar    1  <O>11       0.0496
  21 C14      -0.3705    11.0607     9.7041  C.ar    1  <O>11      -0.0487
  22 C15       0.7889    11.6788     9.2324  C.ar    1  <O>11      -0.0610
  23 C16       1.1951    11.4830     7.9187  C.ar    1  <O>11      -0.0611
  24 C17       0.4424    10.6666     7.0719  C.ar    1  <O>11      -0.0521
  25 C18      -0.7287    10.0234     7.5345  C.ar    1  <O>11       0.0106
  26 C19      -3.2892     9.1519     3.9672  C.ar    1  <O>11      -0.0555
  27 C20      -4.3213     8.4940     3.2899  C.ar    1  <O>11      -0.0254
  28 C21      -4.3295     7.1018     3.1801  C.ar    1  <O>11       0.1374
  29 F1       -5.3371     6.4578     2.5100  F       1  <O>11      -0.2046
  30 H1       -3.9513     0.2122     3.7062  H       1  <O>11       0.0279
  31 H2       -2.4322    -0.4727     3.0803  H       1  <O>11       0.0279
  32 H3       -3.9390    -0.6510     2.1496  H       1  <O>11       0.0279
  33 H4       -1.7000     3.0314    -0.0892  H       1  <O>11       0.1882
  34 H5       -3.6490     2.4710     4.5200  H       1  <O>11       0.0765
  35 H6       -5.1640     2.2870     3.6040  H       1  <O>11       0.0765
  36 H7       -1.0011    10.0739     4.8229  H       1  <O>11       0.0377
  37 H8       -0.2438     8.4987     5.1621  H       1  <O>11       0.0377
  38 H9       -3.8508     8.2752     8.8363  H       1  <O>11       0.1921
  39 H10      -2.0012     0.5257     0.3912  H       1  <O>11       0.0826
  40 H11      -1.4831     6.4620     4.8522  H       1  <O>11       0.0629
  41 H12      -0.6698    11.2170    10.6793  H       1  <O>11       0.0625
  42 H13       1.3443    12.2814     9.8598  H       1  <O>11       0.0618
  43 H14       2.0517    11.9401     7.5689  H       1  <O>11       0.0618
  44 H15       0.7451    10.5307     6.0947  H       1  <O>11       0.0624
  45 H16      -3.2913    10.1809     4.0460  H       1  <O>11       0.0621
  46 H17      -5.0853     9.0437     2.8665  H       1  <O>11       0.0646
@<TRIPOS>BOND
     1     1     2    1
     2     2     3   ar
     3     3     4   ar
     4     4     5   ar
     5     5     6   ar
     6     2     6   ar
     7     6     7    1
     8     7     8    1
     9     8     9    1
    10     9    10    2
    11     9    11    1
    12    11    12   ar
    13    12    13   ar
    14    13    14    1
    15    14    15    1
    16    15    16   ar
    17    16    17   ar
    18    17    18   ar
    19    18    19    2
    20    18    20   ar
    21    20    21   ar
    22    21    22   ar
    23    22    23   ar
    24    23    24   ar
    25    24    25   ar
    26    15    25   ar
    27    20    25   ar
    28    13    26   ar
    29    26    27   ar
    30    27    28   ar
    31    11    28   ar
    32    28    29    1
    33     1    30    1
    34     1    31    1
    35     1    32    1
    36     4    33    1
    37     7    34    1
    38     7    35    1
    39    14    36    1
    40    14    37    1
    41    17    38    1
    42     3    39    1
    43    12    40    1
    44    21    41    1
    45    22    42    1
    46    23    43    1
    47    24    44    1
    48    26    45    1
    49    27    46    1
@<TRIPOS>MOLECULE
mol75_1_15
 46 49 0 0 0
SMALL
USER_CHARGES
****
VDW energy = 21.20
@<TRIPOS>ATOM
   1 C1       -3.3712     0.0082     2.8062  C.3     1  <O>11      -0.0364
   2 C2       -3.0924     1.2580     2.1153  C.ar    1  <O>11      -0.0067
   3 C3       -2.3745     1.3144     0.9422  C.ar    1  <O>11       0.0256
   4 N1       -2.2653     2.6718     0.6666  N.ar    1  <O>11      -0.2841
   5 N2       -3.0016     3.4419     1.5264  N.ar    1  <O>11      -0.1752
   6 C4       -3.4515     2.5789     2.4436  C.ar    1  <O>11       0.1029
   7 C5       -4.2150     2.8220     3.6580  C.3     1  <O>11       0.1365
   8 O1       -4.4640     4.2120     3.7890  O.3     1  <O>11      -0.4547
   9 C6       -4.9950     4.6875     2.6367  C.2     1  <O>11       0.3424
  10 O2       -5.1845     3.9327     1.6941  O.2     1  <O>11      -0.2448
  11 C7       -5.3391     6.0980     2.5217  C.ar    1  <O>11       0.0943
  12 C8       -6.5156     6.4881     1.8565  C.ar    1  <O>11      -0.0414
  13 C9       -6.8381     7.8440     1.7361  C.ar    1  <O>11      -0.0406
  14 C10      -8.0723     8.2425     1.0292  C.3     1  <O>11       0.0171
  15 C11      -9.2491     7.6480     1.7155  C.ar    1  <O>11       0.0736
  16 N3       -9.7147     6.3820     1.3350  N.ar    1  <O>11      -0.1750
  17 N4      -10.8444     5.8726     1.8762  N.ar    1  <O>11      -0.2425
  18 C12     -11.5144     6.5983     2.8045  C.ar    1  <O>11       0.2725
  19 O3      -12.7333     6.0545     3.2573  O.2     1  <O>11      -0.2658
  20 C13     -11.0609     7.8231     3.3139  C.ar    1  <O>11       0.0496
  21 C14     -11.7302     8.5536     4.3236  C.ar    1  <O>11      -0.0487
  22 C15     -11.2386     9.7838     4.7637  C.ar    1  <O>11      -0.0610
  23 C16     -10.0829    10.3111     4.2021  C.ar    1  <O>11      -0.0611
  24 C17      -9.4138     9.6081     3.1979  C.ar    1  <O>11      -0.0521
  25 C18      -9.8902     8.3557     2.7465  C.ar    1  <O>11       0.0106
  26 C19      -5.9981     8.8210     2.2796  C.ar    1  <O>11      -0.0555
  27 C20      -4.8327     8.4308     2.9477  C.ar    1  <O>11      -0.0254
  28 C21      -4.5002     7.0803     3.0739  C.ar    1  <O>11       0.1374
  29 F1       -3.3619     6.6978     3.7350  F       1  <O>11      -0.2046
  30 H1       -3.9513     0.2122     3.7062  H       1  <O>11       0.0279
  31 H2       -2.4322    -0.4727     3.0803  H       1  <O>11       0.0279
  32 H3       -3.9390    -0.6510     2.1496  H       1  <O>11       0.0279
  33 H4       -1.7000     3.0314    -0.0892  H       1  <O>11       0.1882
  34 H5       -3.6490     2.4710     4.5200  H       1  <O>11       0.0765
  35 H6       -5.1640     2.2870     3.6040  H       1  <O>11       0.0765
  36 H7       -8.0344     7.8852     0.0006  H       1  <O>11       0.0377
  37 H8       -8.1592     9.3293     1.0344  H       1  <O>11       0.0377
  38 H9      -11.1841     4.9653     1.5940  H       1  <O>11       0.1921
  39 H10      -2.0012     0.5257     0.3912  H       1  <O>11       0.0826
  40 H11      -7.1422     5.7724     1.4564  H       1  <O>11       0.0629
  41 H12     -12.5936     8.1719     4.7405  H       1  <O>11       0.0625
  42 H13     -11.7340    10.3016     5.5064  H       1  <O>11       0.0618
  43 H14      -9.7191    11.2208     4.5264  H       1  <O>11       0.0618
  44 H15      -8.5597    10.0084     2.7793  H       1  <O>11       0.0624
  45 H16      -6.2359     9.8211     2.1886  H       1  <O>11       0.0621
  46 H17      -4.2116     9.1491     3.3519  H       1  <O>11       0.0646
@<TRIPOS>BOND
     1     1     2    1
     2     2     3   ar
     3     3     4   ar
     4     4     5   ar
     5     5     6   ar
     6     2     6   ar
     7     6     7    1
     8     7     8    1
     9     8     9    1
    10     9    10    2
    11     9    11    1
    12    11    12   ar
    13    12    13   ar
    14    13    14    1
    15    14    15    1
    16    15    16   ar
    17    16    17   ar
    18    17    18   ar
    19    18    19    2
    20    18    20   ar
    21    20    21   ar
    22    21    22   ar
    23    22    23   ar
    24    23    24   ar
    25    24    25   ar
    26    15    25   ar
    27    20    25   ar
    28    13    26   ar
    29    26    27   ar
    30    27    28   ar
    31    11    28   ar
    32    28    29    1
    33     1    30    1
    34     1    31    1
    35     1    32    1
    36     4    33    1
    37     7    34    1
    38     7    35    1
    39    14    36    1
    40    14    37    1
    41    17    38    1
    42     3    39    1
    43    12    40    1
    44    21    41    1
    45    22    42    1
    46    23    43    1
    47    24    44    1
    48    26    45    1
    49    27    46    1
@<TRIPOS>MOLECULE
mol75_1_16
 46 49 0 0 0
SMALL
USER_CHARGES
****
VDW energy = 22.50
@<TRIPOS>ATOM
   1 C1       -3.3712     0.0082     2.8062  C.3     1  <O>11      -0.0364
   2 C2       -3.0924     1.2580     2.1153  C.ar    1  <O>11      -0.0067
   3 C3       -2.3745     1.3144     0.9422  C.ar    1  <O>11       0.0256
   4 N1       -2.2653     2.6718     0.6666  N.ar    1  <O>11      -0.2841
   5 N2       -3.0016     3.4419     1.5264  N.ar    1  <O>11      -0.1752
   6 C4       -3.4515     2.5789     2.4436  C.ar    1  <O>11       0.1029
   7 C5       -4.2150     2.8220     3.6580  C.3     1  <O>11       0.1365
   8 O1       -4.4640     4.2120     3.7890  O.3     1  <O>11      -0.4547
   9 C6       -4.9950     4.6875     2.6367  C.2     1  <O>11       0.3424
  10 O2       -5.1845     3.9327     1.6941  O.2     1  <O>11      -0.2448
  11 C7       -5.3391     6.0980     2.5217  C.ar    1  <O>11       0.0943
  12 C8       -6.6230     6.5456     2.8823  C.ar    1  <O>11      -0.0414
  13 C9       -6.9557     7.8988     2.7593  C.ar    1  <O>11      -0.0406
  14 C10      -8.3092     8.3563     3.1341  C.3     1  <O>11       0.0171
  15 C11      -9.3176     7.6560     2.2962  C.ar    1  <O>11       0.0736
  16 N3       -8.9287     6.5793     1.4876  N.ar    1  <O>11      -0.1750
  17 N4       -9.8107     5.9993     0.6424  N.ar    1  <O>11      -0.2425
  18 C12     -11.0829     6.4648     0.5980  C.ar    1  <O>11       0.2725
  19 O3      -11.9245     5.8821    -0.3709  O.2     1  <O>11      -0.2658
  20 C13     -11.5777     7.4659     1.4456  C.ar    1  <O>11       0.0496
  21 C14     -12.9199     7.9126     1.4387  C.ar    1  <O>11      -0.0487
  22 C15     -13.3390     8.9366     2.2900  C.ar    1  <O>11      -0.0610
  23 C16     -12.4313     9.5381     3.1523  C.ar    1  <O>11      -0.0611
  24 C17     -11.1002     9.1161     3.1664  C.ar    1  <O>11      -0.0521
  25 C18     -10.6593     8.0733     2.3194  C.ar    1  <O>11       0.0106
  26 C19      -6.0150     8.8172     2.2828  C.ar    1  <O>11      -0.0555
  27 C20      -4.7362     8.3715     1.9323  C.ar    1  <O>11      -0.0254
  28 C21      -4.3927     7.0231     2.0505  C.ar    1  <O>11       0.1374
  29 F1       -3.1371     6.5878     1.7138  F       1  <O>11      -0.2046
  30 H1       -3.9513     0.2122     3.7062  H       1  <O>11       0.0279
  31 H2       -2.4322    -0.4727     3.0803  H       1  <O>11       0.0279
  32 H3       -3.9390    -0.6510     2.1496  H       1  <O>11       0.0279
  33 H4       -1.7000     3.0314    -0.0892  H       1  <O>11       0.1882
  34 H5       -3.6490     2.4710     4.5200  H       1  <O>11       0.0765
  35 H6       -5.1640     2.2870     3.6040  H       1  <O>11       0.0765
  36 H7       -8.3880     9.4310     2.9729  H       1  <O>11       0.0377
  37 H8       -8.4907     8.1313     4.1854  H       1  <O>11       0.0377
  38 H9       -9.5267     5.2307     0.0534  H       1  <O>11       0.1921
  39 H10      -2.0012     0.5257     0.3912  H       1  <O>11       0.0826
  40 H11      -7.3211     5.8741     3.2384  H       1  <O>11       0.0629
  41 H12     -13.5985     7.4756     0.7956  H       1  <O>11       0.0625
  42 H13     -14.3233     9.2467     2.2787  H       1  <O>11       0.0618
  43 H14     -12.7401    10.2955     3.7815  H       1  <O>11       0.0618
  44 H15     -10.4287     9.5719     3.8040  H       1  <O>11       0.0624
  45 H16      -6.2620     9.8149     2.1906  H       1  <O>11       0.0621
  46 H17      -4.0387     9.0469     1.5823  H       1  <O>11       0.0646
@<TRIPOS>BOND
     1     1     2    1
     2     2     3   ar
     3     3     4   ar
     4     4     5   ar
     5     5     6   ar
     6     2     6   ar
     7     6     7    1
     8     7     8    1
     9     8     9    1
    10     9    10    2
    11     9    11    1
    12    11    12   ar
    13    12    13   ar
    14    13    14    1
    15    14    15    1
    16    15    16   ar
    17    16    17   ar
    18    17    18   ar
    19    18    19    2
    20    18    20   ar
    21    20    21   ar
    22    21    22   ar
    23    22    23   ar
    24    23    24   ar
    25    24    25   ar
    26    15    25   ar
    27    20    25   ar
    28    13    26   ar
    29    26    27   ar
    30    27    28   ar
    31    11    28   ar
    32    28    29    1
    33     1    30    1
    34     1    31    1
    35     1    32    1
    36     4    33    1
    37     7    34    1
    38     7    35    1
    39    14    36    1
    40    14    37    1
    41    17    38    1
    42     3    39    1
    43    12    40    1
    44    21    41    1
    45    22    42    1
    46    23    43    1
    47    24    44    1
    48    26    45    1
    49    27    46    1
@<TRIPOS>MOLECULE
mol75_1_17
 46 49 0 0 0
SMALL
USER_CHARGES
****
VDW energy = 25.08
@<TRIPOS>ATOM
   1 C1       -3.3712     0.0082     2.8062  C.3     1  <O>11      -0.0364
   2 C2       -3.0924     1.2580     2.1153  C.ar    1  <O>11      -0.0067
   3 C3       -2.3745     1.3144     0.9422  C.ar    1  <O>11       0.0256
   4 N1       -2.2653     2.6718     0.6666  N.ar    1  <O>11      -0.2841
   5 N2       -3.0016     3.4419     1.5264  N.ar    1  <O>11      -0.1752
   6 C4       -3.4515     2.5789     2.4436  C.ar    1  <O>11       0.1029
   7 C5       -4.2150     2.8220     3.6580  C.3     1  <O>11       0.1365
   8 O1       -4.4640     4.2120     3.7890  O.3     1  <O>11      -0.4547
   9 C6       -4.9950     4.6875     2.6367  C.2     1  <O>11       0.3424
  10 O2       -5.1845     3.9327     1.6941  O.2     1  <O>11      -0.2448
  11 C7       -5.3391     6.0980     2.5217  C.ar    1  <O>11       0.0943
  12 C8       -6.5156     6.4881     1.8565  C.ar    1  <O>11      -0.0414
  13 C9       -6.8381     7.8440     1.7361  C.ar    1  <O>11      -0.0406
  14 C10      -8.0723     8.2425     1.0292  C.3     1  <O>11       0.0171
  15 C11      -8.0177     7.7554    -0.3740  C.ar    1  <O>11       0.0736
  16 N3       -7.0099     6.8637    -0.7659  N.ar    1  <O>11      -0.1750
  17 N4       -6.8838     6.4930    -2.0603  N.ar    1  <O>11      -0.2425
  18 C12      -7.7561     6.9852    -2.9736  C.ar    1  <O>11       0.2725
  19 O3       -7.5116     6.6369    -4.3172  O.2     1  <O>11      -0.2658
  20 C13      -8.8516     7.7971    -2.6479  C.ar    1  <O>11       0.0496
  21 C14      -9.7949     8.2647    -3.5926  C.ar    1  <O>11      -0.0487
  22 C15     -10.8465     9.0966    -3.2042  C.ar    1  <O>11      -0.0610
  23 C16     -10.9714     9.4842    -1.8763  C.ar    1  <O>11      -0.0611
  24 C17     -10.0442     9.0396    -0.9314  C.ar    1  <O>11      -0.0521
  25 C18      -8.9787     8.1879    -1.3036  C.ar    1  <O>11       0.0106
  26 C19      -5.9981     8.8210     2.2796  C.ar    1  <O>11      -0.0555
  27 C20      -4.8327     8.4308     2.9477  C.ar    1  <O>11      -0.0254
  28 C21      -4.5002     7.0803     3.0739  C.ar    1  <O>11       0.1374
  29 F1       -3.3619     6.6978     3.7350  F       1  <O>11      -0.2046
  30 H1       -3.9513     0.2122     3.7062  H       1  <O>11       0.0279
  31 H2       -2.4322    -0.4727     3.0803  H       1  <O>11       0.0279
  32 H3       -3.9390    -0.6510     2.1496  H       1  <O>11       0.0279
  33 H4       -1.7000     3.0314    -0.0892  H       1  <O>11       0.1882
  34 H5       -3.6490     2.4710     4.5200  H       1  <O>11       0.0765
  35 H6       -5.1640     2.2870     3.6040  H       1  <O>11       0.0765
  36 H7       -8.1594     9.3286     1.0324  H       1  <O>11       0.0377
  37 H8       -8.9359     7.8063     1.5320  H       1  <O>11       0.0377
  38 H9       -6.1515     5.8588    -2.3428  H       1  <O>11       0.1921
  39 H10      -2.0012     0.5257     0.3912  H       1  <O>11       0.0826
  40 H11      -7.1422     5.7724     1.4564  H       1  <O>11       0.0629
  41 H12      -9.7046     7.9871    -4.5824  H       1  <O>11       0.0625
  42 H13     -11.5312     9.4237    -3.9037  H       1  <O>11       0.0618
  43 H14     -11.7482    10.0996    -1.5883  H       1  <O>11       0.0618
  44 H15     -10.1380     9.3369     0.0524  H       1  <O>11       0.0624
  45 H16      -6.2359     9.8211     2.1886  H       1  <O>11       0.0621
  46 H17      -4.2116     9.1491     3.3519  H       1  <O>11       0.0646
@<TRIPOS>BOND
     1     1     2    1
     2     2     3   ar
     3     3     4   ar
     4     4     5   ar
     5     5     6   ar
     6     2     6   ar
     7     6     7    1
     8     7     8    1
     9     8     9    1
    10     9    10    2
    11     9    11    1
    12    11    12   ar
    13    12    13   ar
    14    13    14    1
    15    14    15    1
    16    15    16   ar
    17    16    17   ar
    18    17    18   ar
    19    18    19    2
    20    18    20   ar
    21    20    21   ar
    22    21    22   ar
    23    22    23   ar
    24    23    24   ar
    25    24    25   ar
    26    15    25   ar
    27    20    25   ar
    28    13    26   ar
    29    26    27   ar
    30    27    28   ar
    31    11    28   ar
    32    28    29    1
    33     1    30    1
    34     1    31    1
    35     1    32    1
    36     4    33    1
    37     7    34    1
    38     7    35    1
    39    14    36    1
    40    14    37    1
    41    17    38    1
    42     3    39    1
    43    12    40    1
    44    21    41    1
    45    22    42    1
    46    23    43    1
    47    24    44    1
    48    26    45    1
    49    27    46    1
@<TRIPOS>MOLECULE
mol75_1_18
 46 49 0 0 0
SMALL
USER_CHARGES
****
VDW energy = 25.19
@<TRIPOS>ATOM
   1 C1       -3.3712     0.0082     2.8062  C.3     1  <O>11      -0.0364
   2 C2       -3.0924     1.2580     2.1153  C.ar    1  <O>11      -0.0067
   3 C3       -2.3745     1.3144     0.9422  C.ar    1  <O>11       0.0256
   4 N1       -2.2653     2.6718     0.6666  N.ar    1  <O>11      -0.2841
   5 N2       -3.0016     3.4419     1.5264  N.ar    1  <O>11      -0.1752
   6 C4       -3.4515     2.5789     2.4436  C.ar    1  <O>11       0.1029
   7 C5       -4.2150     2.8220     3.6580  C.3     1  <O>11       0.1365
   8 O1       -4.4640     4.2120     3.7890  O.3     1  <O>11      -0.4547
   9 C6       -4.9950     4.6875     2.6367  C.2     1  <O>11       0.3424
  10 O2       -5.1845     3.9327     1.6941  O.2     1  <O>11      -0.2448
  11 C7       -5.3391     6.0980     2.5217  C.ar    1  <O>11       0.0943
  12 C8       -5.1216     6.9707     3.6033  C.ar    1  <O>11      -0.0414
  13 C9       -5.4644     8.3227     3.4954  C.ar    1  <O>11      -0.0406
  14 C10      -5.2383     9.2283     4.6400  C.3     1  <O>11       0.0171
  15 C11      -6.4475     9.2443     5.5043  C.ar    1  <O>11       0.0736
  16 N3       -7.4749     8.3161     5.2866  N.ar    1  <O>11      -0.1750
  17 N4       -8.6249     8.3834     5.9948  N.ar    1  <O>11      -0.2425
  18 C12      -8.7655     9.3540     6.9305  C.ar    1  <O>11       0.2725
  19 O3      -10.0222     9.4288     7.5643  O.2     1  <O>11      -0.2658
  20 C13      -7.7490    10.2537     7.2805  C.ar    1  <O>11       0.0496
  21 C14      -7.8755    11.2301     8.2962  C.ar    1  <O>11      -0.0487
  22 C15      -6.8326    12.1159     8.5729  C.ar    1  <O>11      -0.0610
  23 C16      -5.6545    12.0524     7.8401  C.ar    1  <O>11      -0.0611
  24 C17      -5.5152    11.1008     6.8275  C.ar    1  <O>11      -0.0521
  25 C18      -6.5561    10.1881     6.5398  C.ar    1  <O>11       0.0106
  26 C19      -6.0201     8.8183     2.3116  C.ar    1  <O>11      -0.0555
  27 C20      -6.2282     7.9506     1.2343  C.ar    1  <O>11      -0.0254
  28 C21      -5.8903     6.5990     1.3306  C.ar    1  <O>11       0.1374
  29 F1       -6.0875     5.7504     0.2722  F       1  <O>11      -0.2046
  30 H1       -3.9513     0.2122     3.7062  H       1  <O>11       0.0279
  31 H2       -2.4322    -0.4727     3.0803  H       1  <O>11       0.0279
  32 H3       -3.9390    -0.6510     2.1496  H       1  <O>11       0.0279
  33 H4       -1.7000     3.0314    -0.0892  H       1  <O>11       0.1882
  34 H5       -3.6490     2.4710     4.5200  H       1  <O>11       0.0765
  35 H6       -5.1640     2.2870     3.6040  H       1  <O>11       0.0765
  36 H7       -5.0415    10.2356     4.2741  H       1  <O>11       0.0377
  37 H8       -4.3831     8.8771     5.2179  H       1  <O>11       0.0377
  38 H9       -9.3678     7.7207     5.8301  H       1  <O>11       0.1921
  39 H10      -2.0012     0.5257     0.3912  H       1  <O>11       0.0826
  40 H11      -4.7083     6.6127     4.4785  H       1  <O>11       0.0629
  41 H12      -8.7506    11.2884     8.8401  H       1  <O>11       0.0625
  42 H13      -6.9371    12.8181     9.3221  H       1  <O>11       0.0618
  43 H14      -4.8833    12.7072     8.0435  H       1  <O>11       0.0618
  44 H15      -4.6403    11.0632     6.2815  H       1  <O>11       0.0624
  45 H16      -6.2744     9.8154     2.2336  H       1  <O>11       0.0621
  46 H17      -6.6361     8.3134     0.3585  H       1  <O>11       0.0646
@<TRIPOS>BOND
     1     1     2    1
     2     2     3   ar
     3     3     4   ar
     4     4     5   ar
     5     5     6   ar
     6     2     6   ar
     7     6     7    1
     8     7     8    1
     9     8     9    1
    10     9    10    2
    11     9    11    1
    12    11    12   ar
    13    12    13   ar
    14    13    14    1
    15    14    15    1
    16    15    16   ar
    17    16    17   ar
    18    17    18   ar
    19    18    19    2
    20    18    20   ar
    21    20    21   ar
    22    21    22   ar
    23    22    23   ar
    24    23    24   ar
    25    24    25   ar
    26    15    25   ar
    27    20    25   ar
    28    13    26   ar
    29    26    27   ar
    30    27    28   ar
    31    11    28   ar
    32    28    29    1
    33     1    30    1
    34     1    31    1
    35     1    32    1
    36     4    33    1
    37     7    34    1
    38     7    35    1
    39    14    36    1
    40    14    37    1
    41    17    38    1
    42     3    39    1
    43    12    40    1
    44    21    41    1
    45    22    42    1
    46    23    43    1
    47    24    44    1
    48    26    45    1
    49    27    46    1
@<TRIPOS>MOLECULE
mol75_1_19
 46 49 0 0 0
SMALL
USER_CHARGES
****
VDW energy = 25.28
@<TRIPOS>ATOM
   1 C1       -3.3712     0.0082     2.8062  C.3     1  <O>11      -0.0364
   2 C2       -3.0924     1.2580     2.1153  C.ar    1  <O>11      -0.0067
   3 C3       -2.3745     1.3144     0.9422  C.ar    1  <O>11       0.0256
   4 N1       -2.2653     2.6718     0.6666  N.ar    1  <O>11      -0.2841
   5 N2       -3.0016     3.4419     1.5264  N.ar    1  <O>11      -0.1752
   6 C4       -3.4515     2.5789     2.4436  C.ar    1  <O>11       0.1029
   7 C5       -4.2150     2.8220     3.6580  C.3     1  <O>11       0.1365
   8 O1       -4.4640     4.2120     3.7890  O.3     1  <O>11      -0.4547
   9 C6       -4.9950     4.6875     2.6367  C.2     1  <O>11       0.3424
  10 O2       -5.1845     3.9327     1.6941  O.2     1  <O>11      -0.2448
  11 C7       -5.3391     6.0980     2.5217  C.ar    1  <O>11       0.0943
  12 C8       -5.0892     6.7927     1.3243  C.ar    1  <O>11      -0.0414
  13 C9       -5.4089     8.1506     1.2199  C.ar    1  <O>11      -0.0406
  14 C10      -5.1353     8.8718    -0.0397  C.3     1  <O>11       0.0171
  15 C11      -3.6796     8.8170    -0.3348  C.ar    1  <O>11       0.0736
  16 N3       -2.8455     7.9760     0.4143  N.ar    1  <O>11      -0.1750
  17 N4       -1.5061     7.9917     0.2286  N.ar    1  <O>11      -0.2425
  18 C12      -0.9809     8.8233    -0.7041  C.ar    1  <O>11       0.2725
  19 O3        0.4259     8.8619    -0.7808  O.2     1  <O>11      -0.2658
  20 C13      -1.7520     9.6177    -1.5642  C.ar    1  <O>11       0.0496
  21 C14      -1.2072    10.4429    -2.5758  C.ar    1  <O>11      -0.0487
  22 C15      -2.0324    11.2329    -3.3781  C.ar    1  <O>11      -0.0610
  23 C16      -3.4074    11.2231    -3.1821  C.ar    1  <O>11      -0.0611
  24 C17      -3.9621    10.4215    -2.1822  C.ar    1  <O>11      -0.0521
  25 C18      -3.1438     9.6063    -1.3667  C.ar    1  <O>11       0.0106
  26 C19      -5.9835     8.8263     2.3010  C.ar    1  <O>11      -0.0555
  27 C20      -6.2386     8.1319     3.4882  C.ar    1  <O>11      -0.0254
  28 C21      -5.9235     6.7763     3.6043  C.ar    1  <O>11       0.1374
  29 F1       -6.1804     6.0942     4.7652  F       1  <O>11      -0.2046
  30 H1       -3.9513     0.2122     3.7062  H       1  <O>11       0.0279
  31 H2       -2.4322    -0.4727     3.0803  H       1  <O>11       0.0279
  32 H3       -3.9390    -0.6510     2.1496  H       1  <O>11       0.0279
  33 H4       -1.7000     3.0314    -0.0892  H       1  <O>11       0.1882
  34 H5       -3.6490     2.4710     4.5200  H       1  <O>11       0.0765
  35 H6       -5.1640     2.2870     3.6040  H       1  <O>11       0.0765
  36 H7       -5.4454     9.9115     0.0611  H       1  <O>11       0.0377
  37 H8       -5.6892     8.4038    -0.8540  H       1  <O>11       0.0377
  38 H9       -0.9057     7.3930     0.7757  H       1  <O>11       0.1921
  39 H10      -2.0012     0.5257     0.3912  H       1  <O>11       0.0826
  40 H11      -4.6690     6.2995     0.5211  H       1  <O>11       0.0629
  41 H12      -0.1859    10.4611    -2.7226  H       1  <O>11       0.0625
  42 H13      -1.6207    11.8242    -4.1170  H       1  <O>11       0.0618
  43 H14      -4.0181    11.8073    -3.7743  H       1  <O>11       0.0618
  44 H15      -4.9838    10.4240    -2.0364  H       1  <O>11       0.0624
  45 H16      -6.2172     9.8285     2.2237  H       1  <O>11       0.0621
  46 H17      -6.6646     8.6269     4.2873  H       1  <O>11       0.0646
@<TRIPOS>BOND
     1     1     2    1
     2     2     3   ar
     3     3     4   ar
     4     4     5   ar
     5     5     6   ar
     6     2     6   ar
     7     6     7    1
     8     7     8    1
     9     8     9    1
    10     9    10    2
    11     9    11    1
    12    11    12   ar
    13    12    13   ar
    14    13    14    1
    15    14    15    1
    16    15    16   ar
    17    16    17   ar
    18    17    18   ar
    19    18    19    2
    20    18    20   ar
    21    20    21   ar
    22    21    22   ar
    23    22    23   ar
    24    23    24   ar
    25    24    25   ar
    26    15    25   ar
    27    20    25   ar
    28    13    26   ar
    29    26    27   ar
    30    27    28   ar
    31    11    28   ar
    32    28    29    1
    33     1    30    1
    34     1    31    1
    35     1    32    1
    36     4    33    1
    37     7    34    1
    38     7    35    1
    39    14    36    1
    40    14    37    1
    41    17    38    1
    42     3    39    1
    43    12    40    1
    44    21    41    1
    45    22    42    1
    46    23    43    1
    47    24    44    1
    48    26    45    1
    49    27    46    1
@<TRIPOS>MOLECULE
mol75_1_20
 46 49 0 0 0
SMALL
USER_CHARGES
****
VDW energy = 25.80
@<TRIPOS>ATOM
   1 C1       -3.3712     0.0082     2.8062  C.3     1  <O>11      -0.0364
   2 C2       -3.0924     1.2580     2.1153  C.ar    1  <O>11      -0.0067
   3 C3       -2.3745     1.3144     0.9422  C.ar    1  <O>11       0.0256
   4 N1       -2.2653     2.6718     0.6666  N.ar    1  <O>11      -0.2841
   5 N2       -3.0016     3.4419     1.5264  N.ar    1  <O>11      -0.1752
   6 C4       -3.4515     2.5789     2.4436  C.ar    1  <O>11       0.1029
   7 C5       -4.2150     2.8220     3.6580  C.3     1  <O>11       0.1365
   8 O1       -4.4640     4.2120     3.7890  O.3     1  <O>11      -0.4547
   9 C6       -4.9950     4.6875     2.6367  C.2     1  <O>11       0.3424
  10 O2       -5.1845     3.9327     1.6941  O.2     1  <O>11      -0.2448
  11 C7       -5.3391     6.0980     2.5217  C.ar    1  <O>11       0.0943
  12 C8       -5.1216     6.9707     3.6033  C.ar    1  <O>11      -0.0414
  13 C9       -5.4644     8.3227     3.4954  C.ar    1  <O>11      -0.0406
  14 C10      -5.2383     9.2283     4.6400  C.3     1  <O>11       0.0171
  15 C11      -3.7912     9.2457     4.9786  C.ar    1  <O>11       0.0736
  16 N3       -3.2780     8.3248     5.9022  N.ar    1  <O>11      -0.1750
  17 N4       -1.9871     8.3942     6.2989  N.ar    1  <O>11      -0.2425
  18 C12      -1.1902     9.3597     5.7793  C.ar    1  <O>11       0.2725
  19 O3        0.1152     9.4378     6.3051  O.2     1  <O>11      -0.2658
  20 C13      -1.5967    10.2515     4.7768  C.ar    1  <O>11       0.0496
  21 C14      -0.7489    11.2222     4.1937  C.ar    1  <O>11      -0.0487
  22 C15      -1.2280    12.1003     3.2200  C.ar    1  <O>11      -0.0610
  23 C16      -2.5560    12.0346     2.8184  C.ar    1  <O>11      -0.0611
  24 C17      -3.4098    11.0886     3.3896  C.ar    1  <O>11      -0.0521
  25 C18      -2.9404    10.1836     4.3693  C.ar    1  <O>11       0.0106
  26 C19      -6.0201     8.8183     2.3116  C.ar    1  <O>11      -0.0555
  27 C20      -6.2282     7.9506     1.2343  C.ar    1  <O>11      -0.0254
  28 C21      -5.8903     6.5990     1.3306  C.ar    1  <O>11       0.1374
  29 F1       -6.0875     5.7504     0.2722  F       1  <O>11      -0.2046
  30 H1       -3.9513     0.2122     3.7062  H       1  <O>11       0.0279
  31 H2       -2.4322    -0.4727     3.0803  H       1  <O>11       0.0279
  32 H3       -3.9390    -0.6510     2.1496  H       1  <O>11       0.0279
  33 H4       -1.7000     3.0314    -0.0892  H       1  <O>11       0.1882
  34 H5       -3.6490     2.4710     4.5200  H       1  <O>11       0.0765
  35 H6       -5.1640     2.2870     3.6040  H       1  <O>11       0.0765
  36 H7       -5.8073     8.8770     5.5003  H       1  <O>11       0.0377
  37 H8       -5.5620    10.2355     4.3759  H       1  <O>11       0.0377
  38 H9       -1.6215     7.7369     6.9715  H       1  <O>11       0.1921
  39 H10      -2.0012     0.5257     0.3912  H       1  <O>11       0.0826
  40 H11      -4.7083     6.6127     4.4785  H       1  <O>11       0.0629
  41 H12       0.2371    11.2820     4.4922  H       1  <O>11       0.0625
  42 H13      -0.5954    12.7983     2.7984  H       1  <O>11       0.0618
  43 H14      -2.9111    12.6838     2.0990  H       1  <O>11       0.0618
  44 H15      -4.3973    11.0495     3.0925  H       1  <O>11       0.0624
  45 H16      -6.2744     9.8154     2.2336  H       1  <O>11       0.0621
  46 H17      -6.6361     8.3134     0.3585  H       1  <O>11       0.0646
@<TRIPOS>BOND
     1     1     2    1
     2     2     3   ar
     3     3     4   ar
     4     4     5   ar
     5     5     6   ar
     6     2     6   ar
     7     6     7    1
     8     7     8    1
     9     8     9    1
    10     9    10    2
    11     9    11    1
    12    11    12   ar
    13    12    13   ar
    14    13    14    1
    15    14    15    1
    16    15    16   ar
    17    16    17   ar
    18    17    18   ar
    19    18    19    2
    20    18    20   ar
    21    20    21   ar
    22    21    22   ar
    23    22    23   ar
    24    23    24   ar
    25    24    25   ar
    26    15    25   ar
    27    20    25   ar
    28    13    26   ar
    29    26    27   ar
    30    27    28   ar
    31    11    28   ar
    32    28    29    1
    33     1    30    1
    34     1    31    1
    35     1    32    1
    36     4    33    1
    37     7    34    1
    38     7    35    1
    39    14    36    1
    40    14    37    1
    41    17    38    1
    42     3    39    1
    43    12    40    1
    44    21    41    1
    45    22    42    1
    46    23    43    1
    47    24    44    1
    48    26    45    1
    49    27    46    1
@<TRIPOS>MOLECULE
mol75_1_21
 46 49 0 0 0
SMALL
USER_CHARGES
****
VDW energy = 25.84
@<TRIPOS>ATOM
   1 C1       -3.3712     0.0082     2.8062  C.3     1  <O>11      -0.0364
   2 C2       -3.0924     1.2580     2.1153  C.ar    1  <O>11      -0.0067
   3 C3       -2.3745     1.3144     0.9422  C.ar    1  <O>11       0.0256
   4 N1       -2.2653     2.6718     0.6666  N.ar    1  <O>11      -0.2841
   5 N2       -3.0016     3.4419     1.5264  N.ar    1  <O>11      -0.1752
   6 C4       -3.4515     2.5789     2.4436  C.ar    1  <O>11       0.1029
   7 C5       -4.2150     2.8220     3.6580  C.3     1  <O>11       0.1365
   8 O1       -4.4640     4.2120     3.7890  O.3     1  <O>11      -0.4547
   9 C6       -3.3006     4.8946     3.6605  C.2     1  <O>11       0.3424
  10 O2       -2.2564     4.2905     3.4631  O.2     1  <O>11      -0.2448
  11 C7       -3.2948     6.3476     3.7584  C.ar    1  <O>11       0.0943
  12 C8       -2.2519     7.0080     4.4329  C.ar    1  <O>11      -0.0414
  13 C9       -2.2546     8.4031     4.5367  C.ar    1  <O>11      -0.0406
  14 C10      -1.1582     9.0854     5.2536  C.3     1  <O>11       0.0171
  15 C11      -1.1214     8.6157     6.6633  C.ar    1  <O>11       0.0736
  16 N3       -1.9012     7.5192     7.0556  N.ar    1  <O>11      -0.1750
  17 N4       -1.9592     7.1448     8.3537  N.ar    1  <O>11      -0.2425
  18 C12      -1.2398     7.8368     9.2707  C.ar    1  <O>11       0.2725
  19 O3       -1.4189     7.4573    10.6163  O.2     1  <O>11      -0.2658
  20 C13      -0.3573     8.8769     8.9471  C.ar    1  <O>11       0.0496
  21 C14       0.4364     9.5618     9.8969  C.ar    1  <O>11      -0.0487
  22 C15       1.2727    10.6103     9.5096  C.ar    1  <O>11      -0.0610
  23 C16       1.3260    11.0005     8.1776  C.ar    1  <O>11      -0.0611
  24 C17       0.5428    10.3416     7.2276  C.ar    1  <O>11      -0.0521
  25 C18      -0.3022     9.2704     7.5987  C.ar    1  <O>11       0.0106
  26 C19      -3.2892     9.1519     3.9672  C.ar    1  <O>11      -0.0555
  27 C20      -4.3213     8.4940     3.2899  C.ar    1  <O>11      -0.0254
  28 C21      -4.3295     7.1018     3.1801  C.ar    1  <O>11       0.1374
  29 F1       -5.3371     6.4578     2.5100  F       1  <O>11      -0.2046
  30 H1       -3.9513     0.2122     3.7062  H       1  <O>11       0.0279
  31 H2       -2.4322    -0.4727     3.0803  H       1  <O>11       0.0279
  32 H3       -3.9390    -0.6510     2.1496  H       1  <O>11       0.0279
  33 H4       -1.7000     3.0314    -0.0892  H       1  <O>11       0.1882
  34 H5       -3.6490     2.4710     4.5200  H       1  <O>11       0.0765
  35 H6       -5.1640     2.2870     3.6040  H       1  <O>11       0.0765
  36 H7       -1.3252    10.1620     5.2349  H       1  <O>11       0.0377
  37 H8       -0.2089     8.8556     4.7690  H       1  <O>11       0.0377
  38 H9       -2.5289     6.3614     8.6363  H       1  <O>11       0.1921
  39 H10      -2.0012     0.5257     0.3912  H       1  <O>11       0.0826
  40 H11      -1.4831     6.4620     4.8522  H       1  <O>11       0.0629
  41 H12       0.3966     9.2825    10.8896  H       1  <O>11       0.0625
  42 H13       1.8513    11.0956    10.2130  H       1  <O>11       0.0618
  43 H14       1.9435    11.7759     7.8905  H       1  <O>11       0.0618
  44 H15       0.5812    10.6408     6.2406  H       1  <O>11       0.0624
  45 H16      -3.2913    10.1809     4.0460  H       1  <O>11       0.0621
  46 H17      -5.0853     9.0437     2.8665  H       1  <O>11       0.0646
@<TRIPOS>BOND
     1     1     2    1
     2     2     3   ar
     3     3     4   ar
     4     4     5   ar
     5     5     6   ar
     6     2     6   ar
     7     6     7    1
     8     7     8    1
     9     8     9    1
    10     9    10    2
    11     9    11    1
    12    11    12   ar
    13    12    13   ar
    14    13    14    1
    15    14    15    1
    16    15    16   ar
    17    16    17   ar
    18    17    18   ar
    19    18    19    2
    20    18    20   ar
    21    20    21   ar
    22    21    22   ar
    23    22    23   ar
    24    23    24   ar
    25    24    25   ar
    26    15    25   ar
    27    20    25   ar
    28    13    26   ar
    29    26    27   ar
    30    27    28   ar
    31    11    28   ar
    32    28    29    1
    33     1    30    1
    34     1    31    1
    35     1    32    1
    36     4    33    1
    37     7    34    1
    38     7    35    1
    39    14    36    1
    40    14    37    1
    41    17    38    1
    42     3    39    1
    43    12    40    1
    44    21    41    1
    45    22    42    1
    46    23    43    1
    47    24    44    1
    48    26    45    1
    49    27    46    1
@<TRIPOS>MOLECULE
mol75_1_22
 46 49 0 0 0
SMALL
USER_CHARGES
****
VDW energy = 26.01
@<TRIPOS>ATOM
   1 C1       -3.3712     0.0082     2.8062  C.3     1  <O>11      -0.0364
   2 C2       -3.0924     1.2580     2.1153  C.ar    1  <O>11      -0.0067
   3 C3       -2.3745     1.3144     0.9422  C.ar    1  <O>11       0.0256
   4 N1       -2.2653     2.6718     0.6666  N.ar    1  <O>11      -0.2841
   5 N2       -3.0016     3.4419     1.5264  N.ar    1  <O>11      -0.1752
   6 C4       -3.4515     2.5789     2.4436  C.ar    1  <O>11       0.1029
   7 C5       -4.2150     2.8220     3.6580  C.3     1  <O>11       0.1365
   8 O1       -3.3245     3.0394     4.7401  O.3     1  <O>11      -0.4547
   9 C6       -2.4179     3.9861     4.3974  C.2     1  <O>11       0.3424
  10 O2       -2.4632     4.5033     3.2907  O.2     1  <O>11      -0.2448
  11 C7       -1.3893     4.3866     5.3475  C.ar    1  <O>11       0.0943
  12 C8       -1.3324     3.7933     6.6217  C.ar    1  <O>11      -0.0414
  13 C9       -0.3514     4.1882     7.5376  C.ar    1  <O>11      -0.0406
  14 C10      -0.3056     3.5636     8.8752  C.3     1  <O>11       0.0171
  15 C11       0.5689     2.3626     8.8306  C.ar    1  <O>11       0.0736
  16 N3        1.3575     2.1135     7.6990  N.ar    1  <O>11      -0.1750
  17 N4        2.0779     0.9734     7.5993  N.ar    1  <O>11      -0.2425
  18 C12       2.0385     0.0791     8.6171  C.ar    1  <O>11       0.2725
  19 O3        2.7333    -1.1295     8.4097  O.2     1  <O>11      -0.2658
  20 C13       1.3594     0.2993     9.8236  C.ar    1  <O>11       0.0496
  21 C14       1.3645    -0.6085    10.9084  C.ar    1  <O>11      -0.0487
  22 C15       0.6403    -0.3400    12.0713  C.ar    1  <O>11      -0.0610
  23 C16      -0.1063     0.8269    12.1706  C.ar    1  <O>11      -0.0611
  24 C17      -0.1303     1.7305    11.1062  C.ar    1  <O>11      -0.0521
  25 C18       0.6052     1.4813     9.9246  C.ar    1  <O>11       0.0106
  26 C19       0.5824     5.1704     7.1929  C.ar    1  <O>11      -0.0555
  27 C20       0.5292     5.7535     5.9226  C.ar    1  <O>11      -0.0254
  28 C21      -0.4457     5.3676     5.0001  C.ar    1  <O>11       0.1374
  29 F1       -0.4931     5.9340     3.7526  F       1  <O>11      -0.2046
  30 H1       -3.9513     0.2122     3.7062  H       1  <O>11       0.0279
  31 H2       -2.4322    -0.4727     3.0803  H       1  <O>11       0.0279
  32 H3       -3.9390    -0.6510     2.1496  H       1  <O>11       0.0279
  33 H4       -1.7000     3.0314    -0.0892  H       1  <O>11       0.1882
  34 H5       -4.8433     1.9582     3.8718  H       1  <O>11       0.0765
  35 H6       -4.8430     3.7035     3.5223  H       1  <O>11       0.0765
  36 H7       -1.3110     3.2685     9.1740  H       1  <O>11       0.0377
  37 H8        0.0939     4.2775     9.5960  H       1  <O>11       0.0377
  38 H9        2.6374     0.7906     6.7796  H       1  <O>11       0.1921
  39 H10      -2.0012     0.5257     0.3912  H       1  <O>11       0.0826
  40 H11      -2.0159     3.0650     6.8814  H       1  <O>11       0.0629
  41 H12       1.9109    -1.4812    10.8392  H       1  <O>11       0.0625
  42 H13       0.6597    -1.0086    12.8572  H       1  <O>11       0.0618
  43 H14      -0.6425     1.0260    13.0297  H       1  <O>11       0.0618
  44 H15      -0.6928     2.5924    11.1830  H       1  <O>11       0.0624
  45 H16       1.3046     5.4624     7.8699  H       1  <O>11       0.0621
  46 H17       1.2182     6.4771     5.6641  H       1  <O>11       0.0646
@<TRIPOS>BOND
     1     1     2    1
     2     2     3   ar
     3     3     4   ar
     4     4     5   ar
     5     5     6   ar
     6     2     6   ar
     7     6     7    1
     8     7     8    1
     9     8     9    1
    10     9    10    2
    11     9    11    1
    12    11    12   ar
    13    12    13   ar
    14    13    14    1
    15    14    15    1
    16    15    16   ar
    17    16    17   ar
    18    17    18   ar
    19    18    19    2
    20    18    20   ar
    21    20    21   ar
    22    21    22   ar
    23    22    23   ar
    24    23    24   ar
    25    24    25   ar
    26    15    25   ar
    27    20    25   ar
    28    13    26   ar
    29    26    27   ar
    30    27    28   ar
    31    11    28   ar
    32    28    29    1
    33     1    30    1
    34     1    31    1
    35     1    32    1
    36     4    33    1
    37     7    34    1
    38     7    35    1
    39    14    36    1
    40    14    37    1
    41    17    38    1
    42     3    39    1
    43    12    40    1
    44    21    41    1
    45    22    42    1
    46    23    43    1
    47    24    44    1
    48    26    45    1
    49    27    46    1
@<TRIPOS>MOLECULE
mol75_1_23
 46 49 0 0 0
SMALL
USER_CHARGES
****
VDW energy = 26.15
@<TRIPOS>ATOM
   1 C1       -3.3712     0.0082     2.8062  C.3     1  <O>11      -0.0364
   2 C2       -3.0924     1.2580     2.1153  C.ar    1  <O>11      -0.0067
   3 C3       -2.3745     1.3144     0.9422  C.ar    1  <O>11       0.0256
   4 N1       -2.2653     2.6718     0.6666  N.ar    1  <O>11      -0.2841
   5 N2       -3.0016     3.4419     1.5264  N.ar    1  <O>11      -0.1752
   6 C4       -3.4515     2.5789     2.4436  C.ar    1  <O>11       0.1029
   7 C5       -4.2150     2.8220     3.6580  C.3     1  <O>11       0.1365
   8 O1       -3.3245     3.0394     4.7401  O.3     1  <O>11      -0.4547
   9 C6       -2.4179     3.9861     4.3974  C.2     1  <O>11       0.3424
  10 O2       -2.4632     4.5033     3.2907  O.2     1  <O>11      -0.2448
  11 C7       -1.3893     4.3866     5.3475  C.ar    1  <O>11       0.0943
  12 C8       -1.3324     3.7933     6.6217  C.ar    1  <O>11      -0.0414
  13 C9       -0.3514     4.1882     7.5376  C.ar    1  <O>11      -0.0406
  14 C10      -0.3056     3.5636     8.8752  C.3     1  <O>11       0.0171
  15 C11      -1.1494     4.3464     9.8157  C.ar    1  <O>11       0.0736
  16 N3       -1.9936     5.3524     9.3260  N.ar    1  <O>11      -0.1750
  17 N4       -2.6883     6.1423    10.1758  N.ar    1  <O>11      -0.2425
  18 C12      -2.5683     5.9382    11.5105  C.ar    1  <O>11       0.2725
  19 O3       -3.2417     6.8552    12.3424  O.2     1  <O>11      -0.2658
  20 C13      -1.8286     4.8904    12.0764  C.ar    1  <O>11       0.0496
  21 C14      -1.7489     4.6425    13.4668  C.ar    1  <O>11      -0.0487
  22 C15      -0.9678     3.5984    13.9652  C.ar    1  <O>11      -0.0610
  23 C16      -0.2477     2.7922    13.0931  C.ar    1  <O>11      -0.0611
  24 C17      -0.3072     3.0277    11.7179  C.ar    1  <O>11      -0.0521
  25 C18      -1.1011     4.0735    11.1934  C.ar    1  <O>11       0.0106
  26 C19       0.5824     5.1704     7.1929  C.ar    1  <O>11      -0.0555
  27 C20       0.5292     5.7535     5.9226  C.ar    1  <O>11      -0.0254
  28 C21      -0.4457     5.3676     5.0001  C.ar    1  <O>11       0.1374
  29 F1       -0.4931     5.9340     3.7526  F       1  <O>11      -0.2046
  30 H1       -3.9513     0.2122     3.7062  H       1  <O>11       0.0279
  31 H2       -2.4322    -0.4727     3.0803  H       1  <O>11       0.0279
  32 H3       -3.9390    -0.6510     2.1496  H       1  <O>11       0.0279
  33 H4       -1.7000     3.0314    -0.0892  H       1  <O>11       0.1882
  34 H5       -4.8433     1.9582     3.8718  H       1  <O>11       0.0765
  35 H6       -4.8430     3.7035     3.5223  H       1  <O>11       0.0765
  36 H7        0.7224     3.5506     9.2361  H       1  <O>11       0.0377
  37 H8       -0.6825     2.5424     8.8125  H       1  <O>11       0.0377
  38 H9       -3.2879     6.8728     9.8223  H       1  <O>11       0.1921
  39 H10      -2.0012     0.5257     0.3912  H       1  <O>11       0.0826
  40 H11      -2.0159     3.0650     6.8814  H       1  <O>11       0.0629
  41 H12      -2.2753     5.2418    14.1216  H       1  <O>11       0.0625
  42 H13      -0.9255     3.4254    14.9818  H       1  <O>11       0.0618
  43 H14       0.3305     2.0204    13.4607  H       1  <O>11       0.0618
  44 H15       0.2359     2.4300    11.0754  H       1  <O>11       0.0624
  45 H16       1.3046     5.4624     7.8699  H       1  <O>11       0.0621
  46 H17       1.2182     6.4771     5.6641  H       1  <O>11       0.0646
@<TRIPOS>BOND
     1     1     2    1
     2     2     3   ar
     3     3     4   ar
     4     4     5   ar
     5     5     6   ar
     6     2     6   ar
     7     6     7    1
     8     7     8    1
     9     8     9    1
    10     9    10    2
    11     9    11    1
    12    11    12   ar
    13    12    13   ar
    14    13    14    1
    15    14    15    1
    16    15    16   ar
    17    16    17   ar
    18    17    18   ar
    19    18    19    2
    20    18    20   ar
    21    20    21   ar
    22    21    22   ar
    23    22    23   ar
    24    23    24   ar
    25    24    25   ar
    26    15    25   ar
    27    20    25   ar
    28    13    26   ar
    29    26    27   ar
    30    27    28   ar
    31    11    28   ar
    32    28    29    1
    33     1    30    1
    34     1    31    1
    35     1    32    1
    36     4    33    1
    37     7    34    1
    38     7    35    1
    39    14    36    1
    40    14    37    1
    41    17    38    1
    42     3    39    1
    43    12    40    1
    44    21    41    1
    45    22    42    1
    46    23    43    1
    47    24    44    1
    48    26    45    1
    49    27    46    1
@<TRIPOS>MOLECULE
mol75_1_24
 46 49 0 0 0
SMALL
USER_CHARGES
****
VDW energy = 26.33
@<TRIPOS>ATOM
   1 C1       -3.3712     0.0082     2.8062  C.3     1  <O>11      -0.0364
   2 C2       -3.0924     1.2580     2.1153  C.ar    1  <O>11      -0.0067
   3 C3       -2.3745     1.3144     0.9422  C.ar    1  <O>11       0.0256
   4 N1       -2.2653     2.6718     0.6666  N.ar    1  <O>11      -0.2841
   5 N2       -3.0016     3.4419     1.5264  N.ar    1  <O>11      -0.1752
   6 C4       -3.4515     2.5789     2.4436  C.ar    1  <O>11       0.1029
   7 C5       -4.2150     2.8220     3.6580  C.3     1  <O>11       0.1365
   8 O1       -4.4640     4.2120     3.7890  O.3     1  <O>11      -0.4547
   9 C6       -4.9950     4.6875     2.6367  C.2     1  <O>11       0.3424
  10 O2       -5.1845     3.9327     1.6941  O.2     1  <O>11      -0.2448
  11 C7       -5.3391     6.0980     2.5217  C.ar    1  <O>11       0.0943
  12 C8       -5.0892     6.7927     1.3243  C.ar    1  <O>11      -0.0414
  13 C9       -5.4089     8.1506     1.2199  C.ar    1  <O>11      -0.0406
  14 C10      -5.1353     8.8718    -0.0397  C.3     1  <O>11       0.0171
  15 C11      -3.6796     8.8170    -0.3348  C.ar    1  <O>11       0.0736
  16 N3       -3.2288     8.2258    -1.5230  N.ar    1  <O>11      -0.1750
  17 N4       -1.9057     8.0746    -1.7579  N.ar    1  <O>11      -0.2425
  18 C12      -1.0186     8.5166    -0.8332  C.ar    1  <O>11       0.2725
  19 O3        0.3392     8.2426    -1.0937  O.2     1  <O>11      -0.2658
  20 C13      -1.3834     9.2099     0.3294  C.ar    1  <O>11       0.0496
  21 C14      -0.4554     9.7212     1.2666  C.ar    1  <O>11      -0.0487
  22 C15      -0.8890    10.3762     2.4207  C.ar    1  <O>11      -0.0610
  23 C16      -2.2480    10.5242     2.6662  C.ar    1  <O>11      -0.0611
  24 C17      -3.1788    10.0178     1.7565  C.ar    1  <O>11      -0.0521
  25 C18      -2.7590     9.3611     0.5768  C.ar    1  <O>11       0.0106
  26 C19      -5.9835     8.8263     2.3010  C.ar    1  <O>11      -0.0555
  27 C20      -6.2386     8.1319     3.4882  C.ar    1  <O>11      -0.0254
  28 C21      -5.9235     6.7763     3.6043  C.ar    1  <O>11       0.1374
  29 F1       -6.1804     6.0942     4.7652  F       1  <O>11      -0.2046
  30 H1       -3.9513     0.2122     3.7062  H       1  <O>11       0.0279
  31 H2       -2.4322    -0.4727     3.0803  H       1  <O>11       0.0279
  32 H3       -3.9390    -0.6510     2.1496  H       1  <O>11       0.0279
  33 H4       -1.7000     3.0314    -0.0892  H       1  <O>11       0.1882
  34 H5       -3.6490     2.4710     4.5200  H       1  <O>11       0.0765
  35 H6       -5.1640     2.2870     3.6040  H       1  <O>11       0.0765
  36 H7       -5.4454     9.9115     0.0611  H       1  <O>11       0.0377
  37 H8       -5.6892     8.4038    -0.8540  H       1  <O>11       0.0377
  38 H9       -1.5826     7.6397    -2.6091  H       1  <O>11       0.1921
  39 H10      -2.0012     0.5257     0.3912  H       1  <O>11       0.0826
  40 H11      -4.6690     6.2995     0.5211  H       1  <O>11       0.0629
  41 H12       0.5559     9.6086     1.0948  H       1  <O>11       0.0625
  42 H13      -0.1997    10.7503     3.0915  H       1  <O>11       0.0618
  43 H14      -2.5695    11.0077     3.5194  H       1  <O>11       0.0618
  44 H15      -4.1873    10.1244     1.9480  H       1  <O>11       0.0624
  45 H16      -6.2172     9.8285     2.2237  H       1  <O>11       0.0621
  46 H17      -6.6646     8.6269     4.2873  H       1  <O>11       0.0646
@<TRIPOS>BOND
     1     1     2    1
     2     2     3   ar
     3     3     4   ar
     4     4     5   ar
     5     5     6   ar
     6     2     6   ar
     7     6     7    1
     8     7     8    1
     9     8     9    1
    10     9    10    2
    11     9    11    1
    12    11    12   ar
    13    12    13   ar
    14    13    14    1
    15    14    15    1
    16    15    16   ar
    17    16    17   ar
    18    17    18   ar
    19    18    19    2
    20    18    20   ar
    21    20    21   ar
    22    21    22   ar
    23    22    23   ar
    24    23    24   ar
    25    24    25   ar
    26    15    25   ar
    27    20    25   ar
    28    13    26   ar
    29    26    27   ar
    30    27    28   ar
    31    11    28   ar
    32    28    29    1
    33     1    30    1
    34     1    31    1
    35     1    32    1
    36     4    33    1
    37     7    34    1
    38     7    35    1
    39    14    36    1
    40    14    37    1
    41    17    38    1
    42     3    39    1
    43    12    40    1
    44    21    41    1
    45    22    42    1
    46    23    43    1
    47    24    44    1
    48    26    45    1
    49    27    46    1
@<TRIPOS>MOLECULE
mol75_1_25
 46 49 0 0 0
SMALL
USER_CHARGES
****
VDW energy = 29.65
@<TRIPOS>ATOM
   1 C1       -3.3712     0.0082     2.8062  C.3     1  <O>11      -0.0364
   2 C2       -3.0924     1.2580     2.1153  C.ar    1  <O>11      -0.0067
   3 C3       -2.3745     1.3144     0.9422  C.ar    1  <O>11       0.0256
   4 N1       -2.2653     2.6718     0.6666  N.ar    1  <O>11      -0.2841
   5 N2       -3.0016     3.4419     1.5264  N.ar    1  <O>11      -0.1752
   6 C4       -3.4515     2.5789     2.4436  C.ar    1  <O>11       0.1029
   7 C5       -4.2150     2.8220     3.6580  C.3     1  <O>11       0.1365
   8 O1       -4.4640     4.2120     3.7890  O.3     1  <O>11      -0.4547
   9 C6       -4.9950     4.6875     2.6367  C.2     1  <O>11       0.3424
  10 O2       -5.1845     3.9327     1.6941  O.2     1  <O>11      -0.2448
  11 C7       -5.3391     6.0980     2.5217  C.ar    1  <O>11       0.0943
  12 C8       -5.1216     6.9707     3.6033  C.ar    1  <O>11      -0.0414
  13 C9       -5.4644     8.3227     3.4954  C.ar    1  <O>11      -0.0406
  14 C10      -5.2383     9.2283     4.6400  C.3     1  <O>11       0.0171
  15 C11      -3.8779     9.8189     4.5422  C.ar    1  <O>11       0.0736
  16 N3       -2.7887     9.1684     5.1381  N.ar    1  <O>11      -0.1750
  17 N4       -1.5648     9.7433     5.1480  N.ar    1  <O>11      -0.2425
  18 C12      -1.4017    10.9536     4.5599  C.ar    1  <O>11       0.2725
  19 O3       -0.1268    11.5406     4.6891  O.2     1  <O>11      -0.2658
  20 C13      -2.4126    11.6210     3.8543  C.ar    1  <O>11       0.0496
  21 C14      -2.2278    12.8573     3.1920  C.ar    1  <O>11      -0.0487
  22 C15      -3.2874    13.4828     2.5327  C.ar    1  <O>11      -0.0610
  23 C16      -4.5465    12.8965     2.5294  C.ar    1  <O>11      -0.0611
  24 C17      -4.7497    11.6807     3.1857  C.ar    1  <O>11      -0.0521
  25 C18      -3.6865    11.0266     3.8497  C.ar    1  <O>11       0.0106
  26 C19      -6.0201     8.8183     2.3116  C.ar    1  <O>11      -0.0555
  27 C20      -6.2282     7.9506     1.2343  C.ar    1  <O>11      -0.0254
  28 C21      -5.8903     6.5990     1.3306  C.ar    1  <O>11       0.1374
  29 F1       -6.0875     5.7504     0.2722  F       1  <O>11      -0.2046
  30 H1       -3.9513     0.2122     3.7062  H       1  <O>11       0.0279
  31 H2       -2.4322    -0.4727     3.0803  H       1  <O>11       0.0279
  32 H3       -3.9390    -0.6510     2.1496  H       1  <O>11       0.0279
  33 H4       -1.7000     3.0314    -0.0892  H       1  <O>11       0.1882
  34 H5       -3.6490     2.4710     4.5200  H       1  <O>11       0.0765
  35 H6       -5.1640     2.2870     3.6040  H       1  <O>11       0.0765
  36 H7       -5.3237     8.6677     5.5704  H       1  <O>11       0.0377
  37 H8       -5.9824    10.0252     4.6253  H       1  <O>11       0.0377
  38 H9       -0.7837     9.2785     5.5862  H       1  <O>11       0.1921
  39 H10      -2.0012     0.5257     0.3912  H       1  <O>11       0.0826
  40 H11      -4.7083     6.6127     4.4785  H       1  <O>11       0.0629
  41 H12      -1.2969    13.3028     3.1963  H       1  <O>11       0.0625
  42 H13      -3.1352    14.3810     2.0477  H       1  <O>11       0.0618
  43 H14      -5.3306    13.3586     2.0428  H       1  <O>11       0.0618
  44 H15      -5.6892    11.2536     3.1861  H       1  <O>11       0.0624
  45 H16      -6.2744     9.8154     2.2336  H       1  <O>11       0.0621
  46 H17      -6.6361     8.3134     0.3585  H       1  <O>11       0.0646
@<TRIPOS>BOND
     1     1     2    1
     2     2     3   ar
     3     3     4   ar
     4     4     5   ar
     5     5     6   ar
     6     2     6   ar
     7     6     7    1
     8     7     8    1
     9     8     9    1
    10     9    10    2
    11     9    11    1
    12    11    12   ar
    13    12    13   ar
    14    13    14    1
    15    14    15    1
    16    15    16   ar
    17    16    17   ar
    18    17    18   ar
    19    18    19    2
    20    18    20   ar
    21    20    21   ar
    22    21    22   ar
    23    22    23   ar
    24    23    24   ar
    25    24    25   ar
    26    15    25   ar
    27    20    25   ar
    28    13    26   ar
    29    26    27   ar
    30    27    28   ar
    31    11    28   ar
    32    28    29    1
    33     1    30    1
    34     1    31    1
    35     1    32    1
    36     4    33    1
    37     7    34    1
    38     7    35    1
    39    14    36    1
    40    14    37    1
    41    17    38    1
    42     3    39    1
    43    12    40    1
    44    21    41    1
    45    22    42    1
    46    23    43    1
    47    24    44    1
    48    26    45    1
    49    27    46    1
@<TRIPOS>MOLECULE
mol75_1_26
 46 49 0 0 0
SMALL
USER_CHARGES
****
VDW energy = 29.84
@<TRIPOS>ATOM
   1 C1       -3.3712     0.0082     2.8062  C.3     1  <O>11      -0.0364
   2 C2       -3.0924     1.2580     2.1153  C.ar    1  <O>11      -0.0067
   3 C3       -2.3745     1.3144     0.9422  C.ar    1  <O>11       0.0256
   4 N1       -2.2653     2.6718     0.6666  N.ar    1  <O>11      -0.2841
   5 N2       -3.0016     3.4419     1.5264  N.ar    1  <O>11      -0.1752
   6 C4       -3.4515     2.5789     2.4436  C.ar    1  <O>11       0.1029
   7 C5       -4.2150     2.8220     3.6580  C.3     1  <O>11       0.1365
   8 O1       -4.4640     4.2120     3.7890  O.3     1  <O>11      -0.4547
   9 C6       -4.9950     4.6875     2.6367  C.2     1  <O>11       0.3424
  10 O2       -5.1845     3.9327     1.6941  O.2     1  <O>11      -0.2448
  11 C7       -5.3391     6.0980     2.5217  C.ar    1  <O>11       0.0943
  12 C8       -5.1216     6.9707     3.6033  C.ar    1  <O>11      -0.0414
  13 C9       -5.4644     8.3227     3.4954  C.ar    1  <O>11      -0.0406
  14 C10      -5.2383     9.2283     4.6400  C.3     1  <O>11       0.0171
  15 C11      -6.0165     8.7481     5.8118  C.ar    1  <O>11       0.0736
  16 N3       -6.6317     7.4893     5.7743  N.ar    1  <O>11      -0.1750
  17 N4       -7.4281     7.0818     6.7884  N.ar    1  <O>11      -0.2425
  18 C12      -7.6125     7.9030     7.8509  C.ar    1  <O>11       0.2725
  19 O3       -8.5284     7.4607     8.8266  O.2     1  <O>11      -0.2658
  20 C13      -6.9534     9.1296     8.0128  C.ar    1  <O>11       0.0496
  21 C14      -7.1019     9.9608     9.1478  C.ar    1  <O>11      -0.0487
  22 C15      -6.4384    11.1862     9.2307  C.ar    1  <O>11      -0.0610
  23 C16      -5.6269    11.6087     8.1857  C.ar    1  <O>11      -0.0611
  24 C17      -5.4756    10.8054     7.0534  C.ar    1  <O>11      -0.0521
  25 C18      -6.1308     9.5563     6.9557  C.ar    1  <O>11       0.0106
  26 C19      -6.0201     8.8183     2.3116  C.ar    1  <O>11      -0.0555
  27 C20      -6.2282     7.9506     1.2343  C.ar    1  <O>11      -0.0254
  28 C21      -5.8903     6.5990     1.3306  C.ar    1  <O>11       0.1374
  29 F1       -6.0875     5.7504     0.2722  F       1  <O>11      -0.2046
  30 H1       -3.9513     0.2122     3.7062  H       1  <O>11       0.0279
  31 H2       -2.4322    -0.4727     3.0803  H       1  <O>11       0.0279
  32 H3       -3.9390    -0.6510     2.1496  H       1  <O>11       0.0279
  33 H4       -1.7000     3.0314    -0.0892  H       1  <O>11       0.1882
  34 H5       -3.6490     2.4710     4.5200  H       1  <O>11       0.0765
  35 H6       -5.1640     2.2870     3.6040  H       1  <O>11       0.0765
  36 H7       -5.5629    10.2349     4.3777  H       1  <O>11       0.0377
  37 H8       -4.1769     9.2412     4.8891  H       1  <O>11       0.0377
  38 H9       -7.8785     6.1794     6.7555  H       1  <O>11       0.1921
  39 H10      -2.0012     0.5257     0.3912  H       1  <O>11       0.0826
  40 H11      -4.7083     6.6127     4.4785  H       1  <O>11       0.0629
  41 H12      -7.7089     9.6571     9.9252  H       1  <O>11       0.0625
  42 H13      -6.5508    11.7782    10.0685  H       1  <O>11       0.0618
  43 H14      -5.1365    12.5147     8.2458  H       1  <O>11       0.0618
  44 H15      -4.8772    11.1280     6.2770  H       1  <O>11       0.0624
  45 H16      -6.2744     9.8154     2.2336  H       1  <O>11       0.0621
  46 H17      -6.6361     8.3134     0.3585  H       1  <O>11       0.0646
@<TRIPOS>BOND
     1     1     2    1
     2     2     3   ar
     3     3     4   ar
     4     4     5   ar
     5     5     6   ar
     6     2     6   ar
     7     6     7    1
     8     7     8    1
     9     8     9    1
    10     9    10    2
    11     9    11    1
    12    11    12   ar
    13    12    13   ar
    14    13    14    1
    15    14    15    1
    16    15    16   ar
    17    16    17   ar
    18    17    18   ar
    19    18    19    2
    20    18    20   ar
    21    20    21   ar
    22    21    22   ar
    23    22    23   ar
    24    23    24   ar
    25    24    25   ar
    26    15    25   ar
    27    20    25   ar
    28    13    26   ar
    29    26    27   ar
    30    27    28   ar
    31    11    28   ar
    32    28    29    1
    33     1    30    1
    34     1    31    1
    35     1    32    1
    36     4    33    1
    37     7    34    1
    38     7    35    1
    39    14    36    1
    40    14    37    1
    41    17    38    1
    42     3    39    1
    43    12    40    1
    44    21    41    1
    45    22    42    1
    46    23    43    1
    47    24    44    1
    48    26    45    1
    49    27    46    1
@<TRIPOS>MOLECULE
mol75_1_27
 46 49 0 0 0
SMALL
USER_CHARGES
****
VDW energy = 30.10
@<TRIPOS>ATOM
   1 C1       -3.3712     0.0082     2.8062  C.3     1  <O>11      -0.0364
   2 C2       -3.0924     1.2580     2.1153  C.ar    1  <O>11      -0.0067
   3 C3       -2.3745     1.3144     0.9422  C.ar    1  <O>11       0.0256
   4 N1       -2.2653     2.6718     0.6666  N.ar    1  <O>11      -0.2841
   5 N2       -3.0016     3.4419     1.5264  N.ar    1  <O>11      -0.1752
   6 C4       -3.4515     2.5789     2.4436  C.ar    1  <O>11       0.1029
   7 C5       -4.2150     2.8220     3.6580  C.3     1  <O>11       0.1365
   8 O1       -4.4640     4.2120     3.7890  O.3     1  <O>11      -0.4547
   9 C6       -4.9950     4.6875     2.6367  C.2     1  <O>11       0.3424
  10 O2       -5.1845     3.9327     1.6941  O.2     1  <O>11      -0.2448
  11 C7       -5.3391     6.0980     2.5217  C.ar    1  <O>11       0.0943
  12 C8       -6.5156     6.4881     1.8565  C.ar    1  <O>11      -0.0414
  13 C9       -6.8381     7.8440     1.7361  C.ar    1  <O>11      -0.0406
  14 C10      -8.0723     8.2425     1.0292  C.3     1  <O>11       0.0171
  15 C11      -9.2491     7.6480     1.7155  C.ar    1  <O>11       0.0736
  16 N3      -10.0948     6.7722     1.0211  N.ar    1  <O>11      -0.1750
  17 N4      -11.2256     6.3054     1.5974  N.ar    1  <O>11      -0.2425
  18 C12     -11.5236     6.6852     2.8640  C.ar    1  <O>11       0.2725
  19 O3      -12.7618     6.2419     3.3707  O.2     1  <O>11      -0.2658
  20 C13     -10.6811     7.4725     3.6614  C.ar    1  <O>11       0.0496
  21 C14     -10.9649     7.8222     5.0024  C.ar    1  <O>11      -0.0487
  22 C15     -10.0953     8.6362     5.7303  C.ar    1  <O>11      -0.0610
  23 C16      -8.9380     9.1225     5.1359  C.ar    1  <O>11      -0.0611
  24 C17      -8.6461     8.7950     3.8101  C.ar    1  <O>11      -0.0521
  25 C18      -9.5091     7.9632     3.0601  C.ar    1  <O>11       0.0106
  26 C19      -5.9981     8.8210     2.2796  C.ar    1  <O>11      -0.0555
  27 C20      -4.8327     8.4308     2.9477  C.ar    1  <O>11      -0.0254
  28 C21      -4.5002     7.0803     3.0739  C.ar    1  <O>11       0.1374
  29 F1       -3.3619     6.6978     3.7350  F       1  <O>11      -0.2046
  30 H1       -3.9513     0.2122     3.7062  H       1  <O>11       0.0279
  31 H2       -2.4322    -0.4727     3.0803  H       1  <O>11       0.0279
  32 H3       -3.9390    -0.6510     2.1496  H       1  <O>11       0.0279
  33 H4       -1.7000     3.0314    -0.0892  H       1  <O>11       0.1882
  34 H5       -3.6490     2.4710     4.5200  H       1  <O>11       0.0765
  35 H6       -5.1640     2.2870     3.6040  H       1  <O>11       0.0765
  36 H7       -8.0344     7.8852     0.0006  H       1  <O>11       0.0377
  37 H8       -8.1592     9.3293     1.0344  H       1  <O>11       0.0377
  38 H9      -11.8388     5.6829     1.0928  H       1  <O>11       0.1921
  39 H10      -2.0012     0.5257     0.3912  H       1  <O>11       0.0826
  40 H11      -7.1422     5.7724     1.4564  H       1  <O>11       0.0629
  41 H12     -11.8265     7.4707     5.4486  H       1  <O>11       0.0625
  42 H13     -10.3123     8.8766     6.7102  H       1  <O>11       0.0618
  43 H14      -8.2949     9.7249     5.6731  H       1  <O>11       0.0618
  44 H15      -7.7885     9.1654     3.3715  H       1  <O>11       0.0624
  45 H16      -6.2359     9.8211     2.1886  H       1  <O>11       0.0621
  46 H17      -4.2116     9.1491     3.3519  H       1  <O>11       0.0646
@<TRIPOS>BOND
     1     1     2    1
     2     2     3   ar
     3     3     4   ar
     4     4     5   ar
     5     5     6   ar
     6     2     6   ar
     7     6     7    1
     8     7     8    1
     9     8     9    1
    10     9    10    2
    11     9    11    1
    12    11    12   ar
    13    12    13   ar
    14    13    14    1
    15    14    15    1
    16    15    16   ar
    17    16    17   ar
    18    17    18   ar
    19    18    19    2
    20    18    20   ar
    21    20    21   ar
    22    21    22   ar
    23    22    23   ar
    24    23    24   ar
    25    24    25   ar
    26    15    25   ar
    27    20    25   ar
    28    13    26   ar
    29    26    27   ar
    30    27    28   ar
    31    11    28   ar
    32    28    29    1
    33     1    30    1
    34     1    31    1
    35     1    32    1
    36     4    33    1
    37     7    34    1
    38     7    35    1
    39    14    36    1
    40    14    37    1
    41    17    38    1
    42     3    39    1
    43    12    40    1
    44    21    41    1
    45    22    42    1
    46    23    43    1
    47    24    44    1
    48    26    45    1
    49    27    46    1
@<TRIPOS>MOLECULE
mol75_1_28
 46 49 0 0 0
SMALL
USER_CHARGES
****
VDW energy = 30.16
@<TRIPOS>ATOM
   1 C1       -3.3712     0.0082     2.8062  C.3     1  <O>11      -0.0364
   2 C2       -3.0924     1.2580     2.1153  C.ar    1  <O>11      -0.0067
   3 C3       -2.3745     1.3144     0.9422  C.ar    1  <O>11       0.0256
   4 N1       -2.2653     2.6718     0.6666  N.ar    1  <O>11      -0.2841
   5 N2       -3.0016     3.4419     1.5264  N.ar    1  <O>11      -0.1752
   6 C4       -3.4515     2.5789     2.4436  C.ar    1  <O>11       0.1029
   7 C5       -4.2150     2.8220     3.6580  C.3     1  <O>11       0.1365
   8 O1       -4.4640     4.2120     3.7890  O.3     1  <O>11      -0.4547
   9 C6       -3.3006     4.8946     3.6605  C.2     1  <O>11       0.3424
  10 O2       -2.2564     4.2905     3.4631  O.2     1  <O>11      -0.2448
  11 C7       -3.2948     6.3476     3.7584  C.ar    1  <O>11       0.0943
  12 C8       -4.4938     7.0470     3.9868  C.ar    1  <O>11      -0.0414
  13 C9       -4.4882     8.4436     4.0681  C.ar    1  <O>11      -0.0406
  14 C10      -5.7542     9.1679     4.3010  C.3     1  <O>11       0.0171
  15 C11      -6.7039     8.8714     3.1967  C.ar    1  <O>11       0.0736
  16 N3       -6.4087     7.8592     2.2733  N.ar    1  <O>11      -0.1750
  17 N4       -7.2097     7.6471     1.2047  N.ar    1  <O>11      -0.2425
  18 C12      -8.3127     8.4189     1.0458  C.ar    1  <O>11       0.2725
  19 O3       -9.0510     8.2118    -0.1368  O.2     1  <O>11      -0.2658
  20 C13      -8.7335     9.3797     1.9759  C.ar    1  <O>11       0.0496
  21 C14      -9.9148    10.1457     1.8387  C.ar    1  <O>11      -0.0487
  22 C15     -10.2590    11.1089     2.7887  C.ar    1  <O>11      -0.0610
  23 C16      -9.4321    11.3326     3.8820  C.ar    1  <O>11      -0.0611
  24 C17      -8.2573    10.5921     4.0292  C.ar    1  <O>11      -0.0521
  25 C18      -7.8973     9.6048     3.0832  C.ar    1  <O>11       0.0106
  26 C19      -3.2921     9.1546     3.9285  C.ar    1  <O>11      -0.0555
  27 C20      -2.0996     8.4569     3.7093  C.ar    1  <O>11      -0.0254
  28 C21      -2.0930     7.0629     3.6261  C.ar    1  <O>11       0.1374
  29 F1       -0.9232     6.3790     3.4186  F       1  <O>11      -0.2046
  30 H1       -3.9513     0.2122     3.7062  H       1  <O>11       0.0279
  31 H2       -2.4322    -0.4727     3.0803  H       1  <O>11       0.0279
  32 H3       -3.9390    -0.6510     2.1496  H       1  <O>11       0.0279
  33 H4       -1.7000     3.0314    -0.0892  H       1  <O>11       0.1882
  34 H5       -3.6490     2.4710     4.5200  H       1  <O>11       0.0765
  35 H6       -5.1640     2.2870     3.6040  H       1  <O>11       0.0765
  36 H7       -5.5600    10.2395     4.3336  H       1  <O>11       0.0377
  37 H8       -6.1872     8.8471     5.2488  H       1  <O>11       0.0377
  38 H9       -6.9906     6.9247     0.5351  H       1  <O>11       0.1921
  39 H10      -2.0012     0.5257     0.3912  H       1  <O>11       0.0826
  40 H11      -5.3796     6.5286     4.0947  H       1  <O>11       0.0629
  41 H12     -10.5305     9.9904     1.0252  H       1  <O>11       0.0625
  42 H13     -11.1279    11.6547     2.6787  H       1  <O>11       0.0618
  43 H14      -9.6855    12.0449     4.5845  H       1  <O>11       0.0618
  44 H15      -7.6432    10.7679     4.8397  H       1  <O>11       0.0624
  45 H16      -3.2893    10.1849     3.9866  H       1  <O>11       0.0621
  46 H17      -1.2148     8.9783     3.6080  H       1  <O>11       0.0646
@<TRIPOS>BOND
     1     1     2    1
     2     2     3   ar
     3     3     4   ar
     4     4     5   ar
     5     5     6   ar
     6     2     6   ar
     7     6     7    1
     8     7     8    1
     9     8     9    1
    10     9    10    2
    11     9    11    1
    12    11    12   ar
    13    12    13   ar
    14    13    14    1
    15    14    15    1
    16    15    16   ar
    17    16    17   ar
    18    17    18   ar
    19    18    19    2
    20    18    20   ar
    21    20    21   ar
    22    21    22   ar
    23    22    23   ar
    24    23    24   ar
    25    24    25   ar
    26    15    25   ar
    27    20    25   ar
    28    13    26   ar
    29    26    27   ar
    30    27    28   ar
    31    11    28   ar
    32    28    29    1
    33     1    30    1
    34     1    31    1
    35     1    32    1
    36     4    33    1
    37     7    34    1
    38     7    35    1
    39    14    36    1
    40    14    37    1
    41    17    38    1
    42     3    39    1
    43    12    40    1
    44    21    41    1
    45    22    42    1
    46    23    43    1
    47    24    44    1
    48    26    45    1
    49    27    46    1
@<TRIPOS>MOLECULE
mol75_1_29
 46 49 0 0 0
SMALL
USER_CHARGES
****
VDW energy = 31.27
@<TRIPOS>ATOM
   1 C1       -3.3712     0.0082     2.8062  C.3     1  <O>11      -0.0364
   2 C2       -3.0924     1.2580     2.1153  C.ar    1  <O>11      -0.0067
   3 C3       -2.3745     1.3144     0.9422  C.ar    1  <O>11       0.0256
   4 N1       -2.2653     2.6718     0.6666  N.ar    1  <O>11      -0.2841
   5 N2       -3.0016     3.4419     1.5264  N.ar    1  <O>11      -0.1752
   6 C4       -3.4515     2.5789     2.4436  C.ar    1  <O>11       0.1029
   7 C5       -4.2150     2.8220     3.6580  C.3     1  <O>11       0.1365
   8 O1       -4.4640     4.2120     3.7890  O.3     1  <O>11      -0.4547
   9 C6       -4.9950     4.6875     2.6367  C.2     1  <O>11       0.3424
  10 O2       -5.1845     3.9327     1.6941  O.2     1  <O>11      -0.2448
  11 C7       -5.3391     6.0980     2.5217  C.ar    1  <O>11       0.0943
  12 C8       -5.1216     6.9707     3.6033  C.ar    1  <O>11      -0.0414
  13 C9       -5.4644     8.3227     3.4954  C.ar    1  <O>11      -0.0406
  14 C10      -5.2383     9.2283     4.6400  C.3     1  <O>11       0.0171
  15 C11      -3.7912     9.2457     4.9786  C.ar    1  <O>11       0.0736
  16 N3       -2.9427    10.1830     4.3736  N.ar    1  <O>11      -0.1750
  17 N4       -1.6086    10.1452     4.5911  N.ar    1  <O>11      -0.2425
  18 C12      -1.1031     9.1954     5.4155  C.ar    1  <O>11       0.2725
  19 O3        0.3015     9.1499     5.5237  O.2     1  <O>11      -0.2658
  20 C13      -1.8916     8.2893     6.1383  C.ar    1  <O>11       0.0496
  21 C14      -1.3686     7.3350     7.0421  C.ar    1  <O>11      -0.0487
  22 C15      -2.2098     6.4411     7.7070  C.ar    1  <O>11      -0.0610
  23 C16      -3.5792     6.4743     7.4775  C.ar    1  <O>11      -0.0611
  24 C17      -4.1124     7.4036     6.5817  C.ar    1  <O>11      -0.0521
  25 C18      -3.2778     8.3243     5.9071  C.ar    1  <O>11       0.0106
  26 C19      -6.0201     8.8183     2.3116  C.ar    1  <O>11      -0.0555
  27 C20      -6.2282     7.9506     1.2343  C.ar    1  <O>11      -0.0254
  28 C21      -5.8903     6.5990     1.3306  C.ar    1  <O>11       0.1374
  29 F1       -6.0875     5.7504     0.2722  F       1  <O>11      -0.2046
  30 H1       -3.9513     0.2122     3.7062  H       1  <O>11       0.0279
  31 H2       -2.4322    -0.4727     3.0803  H       1  <O>11       0.0279
  32 H3       -3.9390    -0.6510     2.1496  H       1  <O>11       0.0279
  33 H4       -1.7000     3.0314    -0.0892  H       1  <O>11       0.1882
  34 H5       -3.6490     2.4710     4.5200  H       1  <O>11       0.0765
  35 H6       -5.1640     2.2870     3.6040  H       1  <O>11       0.0765
  36 H7       -5.8073     8.8770     5.5003  H       1  <O>11       0.0377
  37 H8       -5.5620    10.2355     4.3759  H       1  <O>11       0.0377
  38 H9       -0.9976    10.8143     4.1470  H       1  <O>11       0.1921
  39 H10      -2.0012     0.5257     0.3912  H       1  <O>11       0.0826
  40 H11      -4.7083     6.6127     4.4785  H       1  <O>11       0.0629
  41 H12      -0.3514     7.2993     7.2123  H       1  <O>11       0.0625
  42 H13      -1.8141     5.7554     8.3691  H       1  <O>11       0.0618
  43 H14      -4.2017     5.8133     7.9681  H       1  <O>11       0.0618
  44 H15      -5.1298     7.4186     6.4097  H       1  <O>11       0.0624
  45 H16      -6.2744     9.8154     2.2336  H       1  <O>11       0.0621
  46 H17      -6.6361     8.3134     0.3585  H       1  <O>11       0.0646
@<TRIPOS>BOND
     1     1     2    1
     2     2     3   ar
     3     3     4   ar
     4     4     5   ar
     5     5     6   ar
     6     2     6   ar
     7     6     7    1
     8     7     8    1
     9     8     9    1
    10     9    10    2
    11     9    11    1
    12    11    12   ar
    13    12    13   ar
    14    13    14    1
    15    14    15    1
    16    15    16   ar
    17    16    17   ar
    18    17    18   ar
    19    18    19    2
    20    18    20   ar
    21    20    21   ar
    22    21    22   ar
    23    22    23   ar
    24    23    24   ar
    25    24    25   ar
    26    15    25   ar
    27    20    25   ar
    28    13    26   ar
    29    26    27   ar
    30    27    28   ar
    31    11    28   ar
    32    28    29    1
    33     1    30    1
    34     1    31    1
    35     1    32    1
    36     4    33    1
    37     7    34    1
    38     7    35    1
    39    14    36    1
    40    14    37    1
    41    17    38    1
    42     3    39    1
    43    12    40    1
    44    21    41    1
    45    22    42    1
    46    23    43    1
    47    24    44    1
    48    26    45    1
    49    27    46    1
@<TRIPOS>MOLECULE
mol75_1_30
 46 49 0 0 0
SMALL
USER_CHARGES
****
VDW energy = 34.08
@<TRIPOS>ATOM
   1 C1       -3.3712     0.0082     2.8062  C.3     1  <O>11      -0.0364
   2 C2       -3.0924     1.2580     2.1153  C.ar    1  <O>11      -0.0067
   3 C3       -2.3745     1.3144     0.9422  C.ar    1  <O>11       0.0256
   4 N1       -2.2653     2.6718     0.6666  N.ar    1  <O>11      -0.2841
   5 N2       -3.0016     3.4419     1.5264  N.ar    1  <O>11      -0.1752
   6 C4       -3.4515     2.5789     2.4436  C.ar    1  <O>11       0.1029
   7 C5       -4.2150     2.8220     3.6580  C.3     1  <O>11       0.1365
   8 O1       -4.4640     4.2120     3.7890  O.3     1  <O>11      -0.4547
   9 C6       -4.9950     4.6875     2.6367  C.2     1  <O>11       0.3424
  10 O2       -5.1845     3.9327     1.6941  O.2     1  <O>11      -0.2448
  11 C7       -5.3391     6.0980     2.5217  C.ar    1  <O>11       0.0943
  12 C8       -5.1216     6.9707     3.6033  C.ar    1  <O>11      -0.0414
  13 C9       -5.4644     8.3227     3.4954  C.ar    1  <O>11      -0.0406
  14 C10      -5.2383     9.2283     4.6400  C.3     1  <O>11       0.0171
  15 C11      -6.0165     8.7481     5.8118  C.ar    1  <O>11       0.0736
  16 N3       -7.3289     9.1977     6.0114  N.ar    1  <O>11      -0.1750
  17 N4       -8.0128     8.8528     7.1259  N.ar    1  <O>11      -0.2425
  18 C12      -7.4159     8.0526     8.0428  C.ar    1  <O>11       0.2725
  19 O3       -8.1450     7.8097     9.2243  O.2     1  <O>11      -0.2658
  20 C13      -6.1489     7.4779     7.8702  C.ar    1  <O>11       0.0496
  21 C14      -5.5490     6.5974     8.8007  C.ar    1  <O>11      -0.0487
  22 C15      -4.2695     6.0846     8.5803  C.ar    1  <O>11      -0.0610
  23 C16      -3.5636     6.4453     7.4397  C.ar    1  <O>11      -0.0611
  24 C17      -4.1365     7.3205     6.5145  C.ar    1  <O>11      -0.0521
  25 C18      -5.4354     7.8418     6.7149  C.ar    1  <O>11       0.0106
  26 C19      -6.0201     8.8183     2.3116  C.ar    1  <O>11      -0.0555
  27 C20      -6.2282     7.9506     1.2343  C.ar    1  <O>11      -0.0254
  28 C21      -5.8903     6.5990     1.3306  C.ar    1  <O>11       0.1374
  29 F1       -6.0875     5.7504     0.2722  F       1  <O>11      -0.2046
  30 H1       -3.9513     0.2122     3.7062  H       1  <O>11       0.0279
  31 H2       -2.4322    -0.4727     3.0803  H       1  <O>11       0.0279
  32 H3       -3.9390    -0.6510     2.1496  H       1  <O>11       0.0279
  33 H4       -1.7000     3.0314    -0.0892  H       1  <O>11       0.1882
  34 H5       -3.6490     2.4710     4.5200  H       1  <O>11       0.0765
  35 H6       -5.1640     2.2870     3.6040  H       1  <O>11       0.0765
  36 H7       -5.5629    10.2349     4.3777  H       1  <O>11       0.0377
  37 H8       -4.1769     9.2412     4.8891  H       1  <O>11       0.0377
  38 H9       -8.9540     9.1854     7.2733  H       1  <O>11       0.1921
  39 H10      -2.0012     0.5257     0.3912  H       1  <O>11       0.0826
  40 H11      -4.7083     6.6127     4.4785  H       1  <O>11       0.0629
  41 H12      -6.0642     6.3306     9.6541  H       1  <O>11       0.0625
  42 H13      -3.8479     5.4374     9.2648  H       1  <O>11       0.0618
  43 H14      -2.6174     6.0671     7.2763  H       1  <O>11       0.0618
  44 H15      -3.6042     7.5906     5.6726  H       1  <O>11       0.0624
  45 H16      -6.2744     9.8154     2.2336  H       1  <O>11       0.0621
  46 H17      -6.6361     8.3134     0.3585  H       1  <O>11       0.0646
@<TRIPOS>BOND
     1     1     2    1
     2     2     3   ar
     3     3     4   ar
     4     4     5   ar
     5     5     6   ar
     6     2     6   ar
     7     6     7    1
     8     7     8    1
     9     8     9    1
    10     9    10    2
    11     9    11    1
    12    11    12   ar
    13    12    13   ar
    14    13    14    1
    15    14    15    1
    16    15    16   ar
    17    16    17   ar
    18    17    18   ar
    19    18    19    2
    20    18    20   ar
    21    20    21   ar
    22    21    22   ar
    23    22    23   ar
    24    23    24   ar
    25    24    25   ar
    26    15    25   ar
    27    20    25   ar
    28    13    26   ar
    29    26    27   ar
    30    27    28   ar
    31    11    28   ar
    32    28    29    1
    33     1    30    1
    34     1    31    1
    35     1    32    1
    36     4    33    1
    37     7    34    1
    38     7    35    1
    39    14    36    1
    40    14    37    1
    41    17    38    1
    42     3    39    1
    43    12    40    1
    44    21    41    1
    45    22    42    1
    46    23    43    1
    47    24    44    1
    48    26    45    1
    49    27    46    1
