@<TRIPOS>MOLECULE
mol7_1_1
 53 56 0 0 0
SMALL
USER_CHARGES
****
VDW energy = -48.57
@<TRIPOS>ATOM
   1 O1       -2.3975     0.2168    -6.7381  O.2     1  <O>11      -0.2754
   2 C1       -2.2902     1.0382    -5.8398  C.2     1  <O>11       0.2193
   3 C2       -3.4340     1.9380    -5.5120  C.3     1  <O>11       0.0685
   4 C3       -4.5760     1.6380    -6.4140  C.ar    1  <O>11       0.0780
   5 N1       -4.6990     2.3145    -7.6333  N.ar    1  <O>11      -0.1748
   6 N2       -5.7871     2.1278    -8.4154  N.ar    1  <O>11      -0.2425
   7 C4       -6.7518     1.2687    -8.0097  C.ar    1  <O>11       0.2725
   8 O2       -7.9001     1.1952    -8.8207  O.2     1  <O>11      -0.2658
   9 C5       -6.6558     0.4773    -6.8562  C.ar    1  <O>11       0.0496
  10 C6       -7.6347    -0.4621    -6.4596  C.ar    1  <O>11      -0.0487
  11 C7       -7.4937    -1.1960    -5.2814  C.ar    1  <O>11      -0.0610
  12 C8       -6.3783    -0.9988    -4.4735  C.ar    1  <O>11      -0.0611
  13 C9       -5.4067    -0.0693    -4.8441  C.ar    1  <O>11      -0.0521
  14 C10      -5.5292     0.6772    -6.0394  C.ar    1  <O>11       0.0108
  15 N3       -1.1210     1.1320    -5.1350  N.am    1  <O>11      -0.3064
  16 C11      -0.0010     0.2520    -5.4560  C.3     1  <O>11       0.0883
  17 C12       1.1450     0.5540    -4.5500  C.2     1  <O>11       0.2328
  18 O3        1.0410     1.4310    -3.7060  O.2     1  <O>11      -0.2739
  19 N4        2.3040    -0.1450    -4.6640  N.am    1  <O>11      -0.2972
  20 C13       2.5599    -1.2174    -5.6308  C.3     1  <O>11       0.0305
  21 C14       2.9541    -2.5214    -4.9036  C.3     1  <O>11       0.0280
  22 N5        4.1281    -2.2741    -3.9511  N.pl3   1  <O>11      -0.3269
  23 C15       5.3281    -3.0685    -4.0053  C.ar    1  <O>11       0.0299
  24 C16       6.3999    -2.6789    -4.8275  C.ar    1  <O>11      -0.0379
  25 C17       7.5606    -3.4579    -4.8892  C.ar    1  <O>11      -0.0247
  26 C18       7.6650    -4.6266    -4.1298  C.ar    1  <O>11       0.1235
  27 F1        8.7982    -5.3949    -4.1874  F       1  <O>11      -0.2055
  28 C19       6.5991    -5.0107    -3.3073  C.ar    1  <O>11      -0.0247
  29 C20       5.4375    -4.2402    -3.2374  C.ar    1  <O>11      -0.0379
  30 C21       3.8435    -1.1169    -2.9879  C.3     1  <O>11       0.0280
  31 C22       3.4411     0.1319    -3.7867  C.3     1  <O>11       0.0305
  32 H1       -3.1290     2.9760    -5.6450  H       1  <O>11       0.0423
  33 H2       -3.7370     1.7780    -4.4770  H       1  <O>11       0.0423
  34 H3       -5.8771     2.6240    -9.2912  H       1  <O>11       0.1921
  35 H4       -1.0310     1.8180    -4.3850  H       1  <O>11       0.1492
  36 H5       -0.3060    -0.7860    -5.3230  H       1  <O>11       0.0558
  37 H6        0.3010     0.4120    -6.4910  H       1  <O>11       0.0558
  38 H7        1.6589    -1.3927    -6.2181  H       1  <O>11       0.0480
  39 H8        3.3716    -0.9178    -6.2926  H       1  <O>11       0.0480
  40 H9        2.0992    -2.8867    -4.3326  H       1  <O>11       0.0479
  41 H10       3.2440    -3.2707    -5.6412  H       1  <O>11       0.0479
  42 H11       3.0307    -1.3958    -2.3170  H       1  <O>11       0.0479
  43 H12       4.7391    -0.9026    -2.4055  H       1  <O>11       0.0479
  44 H13       3.1695     0.9262    -3.0924  H       1  <O>11       0.0480
  45 H14       4.2880     0.4544    -4.3938  H       1  <O>11       0.0480
  46 H15      -8.4675    -0.6075    -7.0514  H       1  <O>11       0.0625
  47 H16      -8.2145    -1.8829    -5.0100  H       1  <O>11       0.0618
  48 H17      -6.2699    -1.5395    -3.6012  H       1  <O>11       0.0618
  49 H18      -4.5853     0.0762    -4.2366  H       1  <O>11       0.0624
  50 H19       6.3303    -1.8149    -5.3877  H       1  <O>11       0.0637
  51 H20       8.3424    -3.1685    -5.4976  H       1  <O>11       0.0647
  52 H21       6.6732    -5.8737    -2.7461  H       1  <O>11       0.0647
  53 H22       4.6607    -4.5303    -2.6231  H       1  <O>11       0.0637
@<TRIPOS>BOND
     1     1     2    2
     2     2     3    1
     3     3     4    1
     4     4     5   ar
     5     5     6   ar
     6     6     7   ar
     7     7     8    2
     8     7     9   ar
     9     9    10   ar
    10    10    11   ar
    11    11    12   ar
    12    12    13   ar
    13    13    14   ar
    14     4    14   ar
    15     9    14   ar
    16     2    15   am
    17    15    16    1
    18    16    17    1
    19    17    18    2
    20    17    19   am
    21    19    20    1
    22    20    21    1
    23    21    22    1
    24    22    23    1
    25    23    24   ar
    26    24    25   ar
    27    25    26   ar
    28    26    27    1
    29    26    28   ar
    30    28    29   ar
    31    23    29   ar
    32    22    30    1
    33    30    31    1
    34    19    31    1
    35     3    32    1
    36     3    33    1
    37     6    34    1
    38    15    35    1
    39    16    36    1
    40    16    37    1
    41    20    38    1
    42    20    39    1
    43    21    40    1
    44    21    41    1
    45    30    42    1
    46    30    43    1
    47    31    44    1
    48    31    45    1
    49    10    46    1
    50    11    47    1
    51    12    48    1
    52    13    49    1
    53    24    50    1
    54    25    51    1
    55    28    52    1
    56    29    53    1
@<TRIPOS>MOLECULE
mol7_1_2
 53 56 0 0 0
SMALL
USER_CHARGES
****
VDW energy = -46.49
@<TRIPOS>ATOM
   1 O1       -2.3975     0.2168    -6.7381  O.2     1  <O>11      -0.2754
   2 C1       -2.2902     1.0382    -5.8398  C.2     1  <O>11       0.2193
   3 C2       -3.4340     1.9380    -5.5120  C.3     1  <O>11       0.0685
   4 C3       -4.5760     1.6380    -6.4140  C.ar    1  <O>11       0.0780
   5 N1       -4.6990     2.3145    -7.6333  N.ar    1  <O>11      -0.1748
   6 N2       -5.7871     2.1278    -8.4154  N.ar    1  <O>11      -0.2425
   7 C4       -6.7518     1.2687    -8.0097  C.ar    1  <O>11       0.2725
   8 O2       -7.9001     1.1952    -8.8207  O.2     1  <O>11      -0.2658
   9 C5       -6.6558     0.4773    -6.8562  C.ar    1  <O>11       0.0496
  10 C6       -7.6347    -0.4621    -6.4596  C.ar    1  <O>11      -0.0487
  11 C7       -7.4937    -1.1960    -5.2814  C.ar    1  <O>11      -0.0610
  12 C8       -6.3783    -0.9988    -4.4735  C.ar    1  <O>11      -0.0611
  13 C9       -5.4067    -0.0693    -4.8441  C.ar    1  <O>11      -0.0521
  14 C10      -5.5292     0.6772    -6.0394  C.ar    1  <O>11       0.0108
  15 N3       -1.1210     1.1320    -5.1350  N.am    1  <O>11      -0.3064
  16 C11      -0.0010     0.2520    -5.4560  C.3     1  <O>11       0.0883
  17 C12       1.1450     0.5540    -4.5500  C.2     1  <O>11       0.2328
  18 O3        1.0410     1.4310    -3.7060  O.2     1  <O>11      -0.2739
  19 N4        2.3040    -0.1450    -4.6640  N.am    1  <O>11      -0.2972
  20 C13       3.5010     0.0510    -3.8400  C.3     1  <O>11       0.0305
  21 C14       4.7220     0.3810    -4.7260  C.3     1  <O>11       0.0280
  22 N5        4.9040    -0.6840    -5.8120  N.pl3   1  <O>11      -0.3269
  23 C15       6.1570    -1.3690    -5.9990  C.ar    1  <O>11       0.0299
  24 C16       6.4215    -2.5646    -5.3084  C.ar    1  <O>11      -0.0379
  25 C17       7.6441    -3.2230    -5.4811  C.ar    1  <O>11      -0.0247
  26 C18       8.6094    -2.6993    -6.3456  C.ar    1  <O>11       0.1235
  27 F1        9.8094    -3.3382    -6.5175  F       1  <O>11      -0.2055
  28 C19       8.3427    -1.5114    -7.0369  C.ar    1  <O>11      -0.0247
  29 C20       7.1260    -0.8476    -6.8729  C.ar    1  <O>11      -0.0379
  30 C21       3.6200    -0.8950    -6.6210  C.3     1  <O>11       0.0280
  31 C22       2.4540    -1.1980    -5.6680  C.3     1  <O>11       0.0305
  32 H1       -3.1290     2.9760    -5.6450  H       1  <O>11       0.0423
  33 H2       -3.7370     1.7780    -4.4770  H       1  <O>11       0.0423
  34 H3       -5.8771     2.6240    -9.2912  H       1  <O>11       0.1921
  35 H4       -1.0310     1.8180    -4.3850  H       1  <O>11       0.1492
  36 H5       -0.3060    -0.7860    -5.3230  H       1  <O>11       0.0558
  37 H6        0.3010     0.4120    -6.4910  H       1  <O>11       0.0558
  38 H7        3.3280     0.8740    -3.1470  H       1  <O>11       0.0480
  39 H8        3.7030    -0.8600    -3.2780  H       1  <O>11       0.0480
  40 H9        4.5710     1.3530    -5.1980  H       1  <O>11       0.0479
  41 H10       5.6180     0.4150    -4.1050  H       1  <O>11       0.0479
  42 H11       3.3980     0.0080    -7.1900  H       1  <O>11       0.0479
  43 H12       3.7570    -1.7320    -7.3050  H       1  <O>11       0.0479
  44 H13       1.5330    -1.2730    -6.2450  H       1  <O>11       0.0480
  45 H14       2.6440    -2.1460    -5.1630  H       1  <O>11       0.0480
  46 H15      -8.4675    -0.6075    -7.0514  H       1  <O>11       0.0625
  47 H16      -8.2145    -1.8829    -5.0100  H       1  <O>11       0.0618
  48 H17      -6.2699    -1.5395    -3.6012  H       1  <O>11       0.0618
  49 H18      -4.5853     0.0762    -4.2366  H       1  <O>11       0.0624
  50 H19       5.7112    -2.9583    -4.6715  H       1  <O>11       0.0637
  51 H20       7.8337    -4.0983    -4.9683  H       1  <O>11       0.0647
  52 H21       9.0541    -1.1221    -7.6753  H       1  <O>11       0.0647
  53 H22       6.9384     0.0242    -7.3923  H       1  <O>11       0.0637
@<TRIPOS>BOND
     1     1     2    2
     2     2     3    1
     3     3     4    1
     4     4     5   ar
     5     5     6   ar
     6     6     7   ar
     7     7     8    2
     8     7     9   ar
     9     9    10   ar
    10    10    11   ar
    11    11    12   ar
    12    12    13   ar
    13    13    14   ar
    14     4    14   ar
    15     9    14   ar
    16     2    15   am
    17    15    16    1
    18    16    17    1
    19    17    18    2
    20    17    19   am
    21    19    20    1
    22    20    21    1
    23    21    22    1
    24    22    23    1
    25    23    24   ar
    26    24    25   ar
    27    25    26   ar
    28    26    27    1
    29    26    28   ar
    30    28    29   ar
    31    23    29   ar
    32    22    30    1
    33    30    31    1
    34    19    31    1
    35     3    32    1
    36     3    33    1
    37     6    34    1
    38    15    35    1
    39    16    36    1
    40    16    37    1
    41    20    38    1
    42    20    39    1
    43    21    40    1
    44    21    41    1
    45    30    42    1
    46    30    43    1
    47    31    44    1
    48    31    45    1
    49    10    46    1
    50    11    47    1
    51    12    48    1
    52    13    49    1
    53    24    50    1
    54    25    51    1
    55    28    52    1
    56    29    53    1
@<TRIPOS>MOLECULE
mol7_1_3
 53 56 0 0 0
SMALL
USER_CHARGES
****
VDW energy = -45.99
@<TRIPOS>ATOM
   1 O1       -2.3975     0.2168    -6.7381  O.2     1  <O>11      -0.2754
   2 C1       -2.2902     1.0382    -5.8398  C.2     1  <O>11       0.2193
   3 C2       -3.4340     1.9380    -5.5120  C.3     1  <O>11       0.0685
   4 C3       -4.5760     1.6380    -6.4140  C.ar    1  <O>11       0.0780
   5 N1       -4.6990     2.3145    -7.6333  N.ar    1  <O>11      -0.1748
   6 N2       -5.7871     2.1278    -8.4154  N.ar    1  <O>11      -0.2425
   7 C4       -6.7518     1.2687    -8.0097  C.ar    1  <O>11       0.2725
   8 O2       -7.9001     1.1952    -8.8207  O.2     1  <O>11      -0.2658
   9 C5       -6.6558     0.4773    -6.8562  C.ar    1  <O>11       0.0496
  10 C6       -7.6347    -0.4621    -6.4596  C.ar    1  <O>11      -0.0487
  11 C7       -7.4937    -1.1960    -5.2814  C.ar    1  <O>11      -0.0610
  12 C8       -6.3783    -0.9988    -4.4735  C.ar    1  <O>11      -0.0611
  13 C9       -5.4067    -0.0693    -4.8441  C.ar    1  <O>11      -0.0521
  14 C10      -5.5292     0.6772    -6.0394  C.ar    1  <O>11       0.0108
  15 N3       -1.1210     1.1320    -5.1350  N.am    1  <O>11      -0.3064
  16 C11      -0.0010     0.2520    -5.4560  C.3     1  <O>11       0.0883
  17 C12       1.1450     0.5540    -4.5500  C.2     1  <O>11       0.2328
  18 O3        1.0410     1.4310    -3.7060  O.2     1  <O>11      -0.2739
  19 N4        2.3040    -0.1450    -4.6640  N.am    1  <O>11      -0.2972
  20 C13       3.5010     0.0510    -3.8400  C.3     1  <O>11       0.0305
  21 C14       4.7220     0.3810    -4.7260  C.3     1  <O>11       0.0280
  22 N5        4.9040    -0.6840    -5.8120  N.pl3   1  <O>11      -0.3269
  23 C15       6.1570    -1.3690    -5.9990  C.ar    1  <O>11       0.0299
  24 C16       6.6508    -2.2288    -5.0023  C.ar    1  <O>11      -0.0379
  25 C17       7.8742    -2.8844    -5.1794  C.ar    1  <O>11      -0.0247
  26 C18       8.6120    -2.6930    -6.3509  C.ar    1  <O>11       0.1235
  27 F1        9.8119    -3.3305    -6.5295  F       1  <O>11      -0.2055
  28 C19       8.1167    -1.8407    -7.3451  C.ar    1  <O>11      -0.0247
  29 C20       6.8969    -1.1831    -7.1790  C.ar    1  <O>11      -0.0379
  30 C21       3.6200    -0.8950    -6.6210  C.3     1  <O>11       0.0280
  31 C22       2.4540    -1.1980    -5.6680  C.3     1  <O>11       0.0305
  32 H1       -3.1290     2.9760    -5.6450  H       1  <O>11       0.0423
  33 H2       -3.7370     1.7780    -4.4770  H       1  <O>11       0.0423
  34 H3       -5.8771     2.6240    -9.2912  H       1  <O>11       0.1921
  35 H4       -1.0310     1.8180    -4.3850  H       1  <O>11       0.1492
  36 H5       -0.3060    -0.7860    -5.3230  H       1  <O>11       0.0558
  37 H6        0.3010     0.4120    -6.4910  H       1  <O>11       0.0558
  38 H7        3.3280     0.8740    -3.1470  H       1  <O>11       0.0480
  39 H8        3.7030    -0.8600    -3.2780  H       1  <O>11       0.0480
  40 H9        4.5710     1.3530    -5.1980  H       1  <O>11       0.0479
  41 H10       5.6180     0.4150    -4.1050  H       1  <O>11       0.0479
  42 H11       3.3980     0.0080    -7.1900  H       1  <O>11       0.0479
  43 H12       3.7570    -1.7320    -7.3050  H       1  <O>11       0.0479
  44 H13       1.5330    -1.2730    -6.2450  H       1  <O>11       0.0480
  45 H14       2.6440    -2.1460    -5.1630  H       1  <O>11       0.0480
  46 H15      -8.4675    -0.6075    -7.0514  H       1  <O>11       0.0625
  47 H16      -8.2145    -1.8829    -5.0100  H       1  <O>11       0.0618
  48 H17      -6.2699    -1.5395    -3.6012  H       1  <O>11       0.0618
  49 H18      -4.5853     0.0762    -4.2366  H       1  <O>11       0.0624
  50 H19       6.1087    -2.3771    -4.1367  H       1  <O>11       0.0637
  51 H20       8.2331    -3.5113    -4.4424  H       1  <O>11       0.0647
  52 H21       8.6599    -1.6970    -8.2108  H       1  <O>11       0.0647
  53 H22       6.5391    -0.5618    -7.9213  H       1  <O>11       0.0637
@<TRIPOS>BOND
     1     1     2    2
     2     2     3    1
     3     3     4    1
     4     4     5   ar
     5     5     6   ar
     6     6     7   ar
     7     7     8    2
     8     7     9   ar
     9     9    10   ar
    10    10    11   ar
    11    11    12   ar
    12    12    13   ar
    13    13    14   ar
    14     4    14   ar
    15     9    14   ar
    16     2    15   am
    17    15    16    1
    18    16    17    1
    19    17    18    2
    20    17    19   am
    21    19    20    1
    22    20    21    1
    23    21    22    1
    24    22    23    1
    25    23    24   ar
    26    24    25   ar
    27    25    26   ar
    28    26    27    1
    29    26    28   ar
    30    28    29   ar
    31    23    29   ar
    32    22    30    1
    33    30    31    1
    34    19    31    1
    35     3    32    1
    36     3    33    1
    37     6    34    1
    38    15    35    1
    39    16    36    1
    40    16    37    1
    41    20    38    1
    42    20    39    1
    43    21    40    1
    44    21    41    1
    45    30    42    1
    46    30    43    1
    47    31    44    1
    48    31    45    1
    49    10    46    1
    50    11    47    1
    51    12    48    1
    52    13    49    1
    53    24    50    1
    54    25    51    1
    55    28    52    1
    56    29    53    1
@<TRIPOS>MOLECULE
mol7_1_4
 53 56 0 0 0
SMALL
USER_CHARGES
****
VDW energy = -45.56
@<TRIPOS>ATOM
   1 O1       -2.3975     0.2168    -6.7381  O.2     1  <O>11      -0.2754
   2 C1       -2.2902     1.0382    -5.8398  C.2     1  <O>11       0.2193
   3 C2       -3.4340     1.9380    -5.5120  C.3     1  <O>11       0.0685
   4 C3       -4.5760     1.6380    -6.4140  C.ar    1  <O>11       0.0780
   5 N1       -5.5261     0.6796    -6.0423  N.ar    1  <O>11      -0.1748
   6 N2       -6.5113     0.3216    -6.8977  N.ar    1  <O>11      -0.2425
   7 C4       -6.5744     0.9107    -8.1152  C.ar    1  <O>11       0.2725
   8 O2       -7.5624     0.4231    -8.9915  O.2     1  <O>11      -0.2658
   9 C5       -5.7262     1.9502    -8.5230  C.ar    1  <O>11       0.0496
  10 C6       -5.8253     2.6064    -9.7710  C.ar    1  <O>11      -0.0487
  11 C7       -4.9280     3.6130   -10.1292  C.ar    1  <O>11      -0.0610
  12 C8       -3.9106     3.9762    -9.2524  C.ar    1  <O>11      -0.0611
  13 C9       -3.7917     3.3331    -8.0205  C.ar    1  <O>11      -0.0521
  14 C10      -4.6976     2.3165    -7.6375  C.ar    1  <O>11       0.0108
  15 N3       -1.1210     1.1320    -5.1350  N.am    1  <O>11      -0.3064
  16 C11      -0.0010     0.2520    -5.4560  C.3     1  <O>11       0.0883
  17 C12       1.1450     0.5540    -4.5500  C.2     1  <O>11       0.2328
  18 O3        1.0410     1.4310    -3.7060  O.2     1  <O>11      -0.2739
  19 N4        2.3040    -0.1450    -4.6640  N.am    1  <O>11      -0.2972
  20 C13       3.5010     0.0510    -3.8400  C.3     1  <O>11       0.0305
  21 C14       4.7220     0.3810    -4.7260  C.3     1  <O>11       0.0280
  22 N5        4.9040    -0.6840    -5.8120  N.pl3   1  <O>11      -0.3269
  23 C15       6.1570    -1.3690    -5.9990  C.ar    1  <O>11       0.0299
  24 C16       6.4215    -2.5646    -5.3084  C.ar    1  <O>11      -0.0379
  25 C17       7.6441    -3.2230    -5.4811  C.ar    1  <O>11      -0.0247
  26 C18       8.6094    -2.6993    -6.3456  C.ar    1  <O>11       0.1235
  27 F1        9.8094    -3.3382    -6.5175  F       1  <O>11      -0.2055
  28 C19       8.3427    -1.5114    -7.0369  C.ar    1  <O>11      -0.0247
  29 C20       7.1260    -0.8476    -6.8729  C.ar    1  <O>11      -0.0379
  30 C21       3.6200    -0.8950    -6.6210  C.3     1  <O>11       0.0280
  31 C22       2.4540    -1.1980    -5.6680  C.3     1  <O>11       0.0305
  32 H1       -3.1290     2.9760    -5.6450  H       1  <O>11       0.0423
  33 H2       -3.7370     1.7780    -4.4770  H       1  <O>11       0.0423
  34 H3       -7.1909    -0.3767    -6.6298  H       1  <O>11       0.1921
  35 H4       -1.0310     1.8180    -4.3850  H       1  <O>11       0.1492
  36 H5       -0.3060    -0.7860    -5.3230  H       1  <O>11       0.0558
  37 H6        0.3010     0.4120    -6.4910  H       1  <O>11       0.0558
  38 H7        3.3280     0.8740    -3.1470  H       1  <O>11       0.0480
  39 H8        3.7030    -0.8600    -3.2780  H       1  <O>11       0.0480
  40 H9        4.5710     1.3530    -5.1980  H       1  <O>11       0.0479
  41 H10       5.6180     0.4150    -4.1050  H       1  <O>11       0.0479
  42 H11       3.3980     0.0080    -7.1900  H       1  <O>11       0.0479
  43 H12       3.7570    -1.7320    -7.3050  H       1  <O>11       0.0479
  44 H13       1.5330    -1.2730    -6.2450  H       1  <O>11       0.0480
  45 H14       2.6440    -2.1460    -5.1630  H       1  <O>11       0.0480
  46 H15      -6.5738     2.3364   -10.4282  H       1  <O>11       0.0625
  47 H16      -5.0187     4.0868   -11.0415  H       1  <O>11       0.0618
  48 H17      -3.2448     4.7203    -9.5132  H       1  <O>11       0.0618
  49 H18      -3.0306     3.6033    -7.3781  H       1  <O>11       0.0624
  50 H19       5.7112    -2.9583    -4.6715  H       1  <O>11       0.0637
  51 H20       7.8337    -4.0983    -4.9683  H       1  <O>11       0.0647
  52 H21       9.0541    -1.1221    -7.6753  H       1  <O>11       0.0647
  53 H22       6.9384     0.0242    -7.3923  H       1  <O>11       0.0637
@<TRIPOS>BOND
     1     1     2    2
     2     2     3    1
     3     3     4    1
     4     4     5   ar
     5     5     6   ar
     6     6     7   ar
     7     7     8    2
     8     7     9   ar
     9     9    10   ar
    10    10    11   ar
    11    11    12   ar
    12    12    13   ar
    13    13    14   ar
    14     4    14   ar
    15     9    14   ar
    16     2    15   am
    17    15    16    1
    18    16    17    1
    19    17    18    2
    20    17    19   am
    21    19    20    1
    22    20    21    1
    23    21    22    1
    24    22    23    1
    25    23    24   ar
    26    24    25   ar
    27    25    26   ar
    28    26    27    1
    29    26    28   ar
    30    28    29   ar
    31    23    29   ar
    32    22    30    1
    33    30    31    1
    34    19    31    1
    35     3    32    1
    36     3    33    1
    37     6    34    1
    38    15    35    1
    39    16    36    1
    40    16    37    1
    41    20    38    1
    42    20    39    1
    43    21    40    1
    44    21    41    1
    45    30    42    1
    46    30    43    1
    47    31    44    1
    48    31    45    1
    49    10    46    1
    50    11    47    1
    51    12    48    1
    52    13    49    1
    53    24    50    1
    54    25    51    1
    55    28    52    1
    56    29    53    1
@<TRIPOS>MOLECULE
mol7_1_5
 53 56 0 0 0
SMALL
USER_CHARGES
****
VDW energy = -45.10
@<TRIPOS>ATOM
   1 O1       -2.3975     0.2168    -6.7381  O.2     1  <O>11      -0.2754
   2 C1       -2.2902     1.0382    -5.8398  C.2     1  <O>11       0.2193
   3 C2       -3.4340     1.9380    -5.5120  C.3     1  <O>11       0.0685
   4 C3       -4.5760     1.6380    -6.4140  C.ar    1  <O>11       0.0780
   5 N1       -5.5261     0.6796    -6.0423  N.ar    1  <O>11      -0.1748
   6 N2       -6.5113     0.3216    -6.8977  N.ar    1  <O>11      -0.2425
   7 C4       -6.5744     0.9107    -8.1152  C.ar    1  <O>11       0.2725
   8 O2       -7.5624     0.4231    -8.9915  O.2     1  <O>11      -0.2658
   9 C5       -5.7262     1.9502    -8.5230  C.ar    1  <O>11       0.0496
  10 C6       -5.8253     2.6064    -9.7710  C.ar    1  <O>11      -0.0487
  11 C7       -4.9280     3.6130   -10.1292  C.ar    1  <O>11      -0.0610
  12 C8       -3.9106     3.9762    -9.2524  C.ar    1  <O>11      -0.0611
  13 C9       -3.7917     3.3331    -8.0205  C.ar    1  <O>11      -0.0521
  14 C10      -4.6976     2.3165    -7.6375  C.ar    1  <O>11       0.0108
  15 N3       -1.1210     1.1320    -5.1350  N.am    1  <O>11      -0.3064
  16 C11      -0.0010     0.2520    -5.4560  C.3     1  <O>11       0.0883
  17 C12       1.1450     0.5540    -4.5500  C.2     1  <O>11       0.2328
  18 O3        1.0410     1.4310    -3.7060  O.2     1  <O>11      -0.2739
  19 N4        2.3040    -0.1450    -4.6640  N.am    1  <O>11      -0.2972
  20 C13       3.5010     0.0510    -3.8400  C.3     1  <O>11       0.0305
  21 C14       4.7220     0.3810    -4.7260  C.3     1  <O>11       0.0280
  22 N5        4.9040    -0.6840    -5.8120  N.pl3   1  <O>11      -0.3269
  23 C15       6.1570    -1.3690    -5.9990  C.ar    1  <O>11       0.0299
  24 C16       7.2937    -0.6630    -6.4301  C.ar    1  <O>11      -0.0379
  25 C17       8.5077    -1.3315    -6.6236  C.ar    1  <O>11      -0.0247
  26 C18       8.6002    -2.7054    -6.3845  C.ar    1  <O>11       0.1235
  27 F1        9.7857    -3.3663    -6.5741  F       1  <O>11      -0.2055
  28 C19       7.4689    -3.4065    -5.9500  C.ar    1  <O>11      -0.0247
  29 C20       6.2537    -2.7490    -5.7527  C.ar    1  <O>11      -0.0379
  30 C21       3.6200    -0.8950    -6.6210  C.3     1  <O>11       0.0280
  31 C22       2.4540    -1.1980    -5.6680  C.3     1  <O>11       0.0305
  32 H1       -3.1290     2.9760    -5.6450  H       1  <O>11       0.0423
  33 H2       -3.7370     1.7780    -4.4770  H       1  <O>11       0.0423
  34 H3       -7.1909    -0.3767    -6.6298  H       1  <O>11       0.1921
  35 H4       -1.0310     1.8180    -4.3850  H       1  <O>11       0.1492
  36 H5       -0.3060    -0.7860    -5.3230  H       1  <O>11       0.0558
  37 H6        0.3010     0.4120    -6.4910  H       1  <O>11       0.0558
  38 H7        3.3280     0.8740    -3.1470  H       1  <O>11       0.0480
  39 H8        3.7030    -0.8600    -3.2780  H       1  <O>11       0.0480
  40 H9        4.5710     1.3530    -5.1980  H       1  <O>11       0.0479
  41 H10       5.6180     0.4150    -4.1050  H       1  <O>11       0.0479
  42 H11       3.3980     0.0080    -7.1900  H       1  <O>11       0.0479
  43 H12       3.7570    -1.7320    -7.3050  H       1  <O>11       0.0479
  44 H13       1.5330    -1.2730    -6.2450  H       1  <O>11       0.0480
  45 H14       2.6440    -2.1460    -5.1630  H       1  <O>11       0.0480
  46 H15      -6.5738     2.3364   -10.4282  H       1  <O>11       0.0625
  47 H16      -5.0187     4.0868   -11.0415  H       1  <O>11       0.0618
  48 H17      -3.2448     4.7203    -9.5132  H       1  <O>11       0.0618
  49 H18      -3.0306     3.6033    -7.3781  H       1  <O>11       0.0624
  50 H19       7.2325     0.3524    -6.6047  H       1  <O>11       0.0637
  51 H20       9.3375    -0.8082    -6.9438  H       1  <O>11       0.0647
  52 H21       7.5343    -4.4213    -5.7735  H       1  <O>11       0.0647
  53 H22       5.4280    -3.2752    -5.4266  H       1  <O>11       0.0637
@<TRIPOS>BOND
     1     1     2    2
     2     2     3    1
     3     3     4    1
     4     4     5   ar
     5     5     6   ar
     6     6     7   ar
     7     7     8    2
     8     7     9   ar
     9     9    10   ar
    10    10    11   ar
    11    11    12   ar
    12    12    13   ar
    13    13    14   ar
    14     4    14   ar
    15     9    14   ar
    16     2    15   am
    17    15    16    1
    18    16    17    1
    19    17    18    2
    20    17    19   am
    21    19    20    1
    22    20    21    1
    23    21    22    1
    24    22    23    1
    25    23    24   ar
    26    24    25   ar
    27    25    26   ar
    28    26    27    1
    29    26    28   ar
    30    28    29   ar
    31    23    29   ar
    32    22    30    1
    33    30    31    1
    34    19    31    1
    35     3    32    1
    36     3    33    1
    37     6    34    1
    38    15    35    1
    39    16    36    1
    40    16    37    1
    41    20    38    1
    42    20    39    1
    43    21    40    1
    44    21    41    1
    45    30    42    1
    46    30    43    1
    47    31    44    1
    48    31    45    1
    49    10    46    1
    50    11    47    1
    51    12    48    1
    52    13    49    1
    53    24    50    1
    54    25    51    1
    55    28    52    1
    56    29    53    1
@<TRIPOS>MOLECULE
mol7_1_6
 53 56 0 0 0
SMALL
USER_CHARGES
****
VDW energy = -43.07
@<TRIPOS>ATOM
   1 O1       -2.3975     0.2168    -6.7381  O.2     1  <O>11      -0.2754
   2 C1       -2.2902     1.0382    -5.8398  C.2     1  <O>11       0.2193
   3 C2       -3.4340     1.9380    -5.5120  C.3     1  <O>11       0.0685
   4 C3       -2.9234     3.3007    -5.2118  C.ar    1  <O>11       0.0780
   5 N1       -2.5822     3.6447    -3.8985  N.ar    1  <O>11      -0.1748
   6 N2       -2.2158     4.9109    -3.5935  N.ar    1  <O>11      -0.2425
   7 C4       -2.1718     5.8402    -4.5773  C.ar    1  <O>11       0.2725
   8 O2       -1.8787     7.1573    -4.1759  O.2     1  <O>11      -0.2658
   9 C5       -2.3975     5.5533    -5.9312  C.ar    1  <O>11       0.0496
  10 C6       -2.2967     6.5086    -6.9680  C.ar    1  <O>11      -0.0487
  11 C7       -2.5661     6.1650    -8.2932  C.ar    1  <O>11      -0.0610
  12 C8       -2.9498     4.8647    -8.6058  C.ar    1  <O>11      -0.0611
  13 C9       -3.0637     3.9111    -7.5945  C.ar    1  <O>11      -0.0521
  14 C10      -2.7861     4.2397    -6.2470  C.ar    1  <O>11       0.0108
  15 N3       -1.1210     1.1320    -5.1350  N.am    1  <O>11      -0.3064
  16 C11      -0.0010     0.2520    -5.4560  C.3     1  <O>11       0.0883
  17 C12       1.1450     0.5540    -4.5500  C.2     1  <O>11       0.2328
  18 O3        1.0410     1.4310    -3.7060  O.2     1  <O>11      -0.2739
  19 N4        2.3040    -0.1450    -4.6640  N.am    1  <O>11      -0.2972
  20 C13       3.5010     0.0510    -3.8400  C.3     1  <O>11       0.0305
  21 C14       4.7220     0.3810    -4.7260  C.3     1  <O>11       0.0280
  22 N5        4.9040    -0.6840    -5.8120  N.pl3   1  <O>11      -0.3269
  23 C15       6.1570    -1.3690    -5.9990  C.ar    1  <O>11       0.0299
  24 C16       6.6508    -2.2288    -5.0023  C.ar    1  <O>11      -0.0379
  25 C17       7.8742    -2.8844    -5.1794  C.ar    1  <O>11      -0.0247
  26 C18       8.6120    -2.6930    -6.3509  C.ar    1  <O>11       0.1235
  27 F1        9.8119    -3.3305    -6.5295  F       1  <O>11      -0.2055
  28 C19       8.1167    -1.8407    -7.3451  C.ar    1  <O>11      -0.0247
  29 C20       6.8969    -1.1831    -7.1790  C.ar    1  <O>11      -0.0379
  30 C21       3.6200    -0.8950    -6.6210  C.3     1  <O>11       0.0280
  31 C22       2.4540    -1.1980    -5.6680  C.3     1  <O>11       0.0305
  32 H1       -3.9643     1.5491    -4.6427  H       1  <O>11       0.0423
  33 H2       -4.1149     1.9845    -6.3622  H       1  <O>11       0.0423
  34 H3       -1.9780     5.1583    -2.6430  H       1  <O>11       0.1921
  35 H4       -1.0310     1.8180    -4.3850  H       1  <O>11       0.1492
  36 H5       -0.3060    -0.7860    -5.3230  H       1  <O>11       0.0558
  37 H6        0.3010     0.4120    -6.4910  H       1  <O>11       0.0558
  38 H7        3.3280     0.8740    -3.1470  H       1  <O>11       0.0480
  39 H8        3.7030    -0.8600    -3.2780  H       1  <O>11       0.0480
  40 H9        4.5710     1.3530    -5.1980  H       1  <O>11       0.0479
  41 H10       5.6180     0.4150    -4.1050  H       1  <O>11       0.0479
  42 H11       3.3980     0.0080    -7.1900  H       1  <O>11       0.0479
  43 H12       3.7570    -1.7320    -7.3050  H       1  <O>11       0.0479
  44 H13       1.5330    -1.2730    -6.2450  H       1  <O>11       0.0480
  45 H14       2.6440    -2.1460    -5.1630  H       1  <O>11       0.0480
  46 H15      -2.0192     7.4764    -6.7411  H       1  <O>11       0.0625
  47 H16      -2.4811     6.8731    -9.0391  H       1  <O>11       0.0618
  48 H17      -3.1500     4.6062    -9.5847  H       1  <O>11       0.0618
  49 H18      -3.3550     2.9503    -7.8331  H       1  <O>11       0.0624
  50 H19       6.1087    -2.3771    -4.1367  H       1  <O>11       0.0637
  51 H20       8.2331    -3.5113    -4.4424  H       1  <O>11       0.0647
  52 H21       8.6599    -1.6970    -8.2108  H       1  <O>11       0.0647
  53 H22       6.5391    -0.5618    -7.9213  H       1  <O>11       0.0637
@<TRIPOS>BOND
     1     1     2    2
     2     2     3    1
     3     3     4    1
     4     4     5   ar
     5     5     6   ar
     6     6     7   ar
     7     7     8    2
     8     7     9   ar
     9     9    10   ar
    10    10    11   ar
    11    11    12   ar
    12    12    13   ar
    13    13    14   ar
    14     4    14   ar
    15     9    14   ar
    16     2    15   am
    17    15    16    1
    18    16    17    1
    19    17    18    2
    20    17    19   am
    21    19    20    1
    22    20    21    1
    23    21    22    1
    24    22    23    1
    25    23    24   ar
    26    24    25   ar
    27    25    26   ar
    28    26    27    1
    29    26    28   ar
    30    28    29   ar
    31    23    29   ar
    32    22    30    1
    33    30    31    1
    34    19    31    1
    35     3    32    1
    36     3    33    1
    37     6    34    1
    38    15    35    1
    39    16    36    1
    40    16    37    1
    41    20    38    1
    42    20    39    1
    43    21    40    1
    44    21    41    1
    45    30    42    1
    46    30    43    1
    47    31    44    1
    48    31    45    1
    49    10    46    1
    50    11    47    1
    51    12    48    1
    52    13    49    1
    53    24    50    1
    54    25    51    1
    55    28    52    1
    56    29    53    1
@<TRIPOS>MOLECULE
mol7_1_7
 53 56 0 0 0
SMALL
USER_CHARGES
****
VDW energy = -42.29
@<TRIPOS>ATOM
   1 O1       -2.3975     0.2168    -6.7381  O.2     1  <O>11      -0.2754
   2 C1       -2.2902     1.0382    -5.8398  C.2     1  <O>11       0.2193
   3 C2       -3.4340     1.9380    -5.5120  C.3     1  <O>11       0.0685
   4 C3       -3.5344     2.0965    -4.0380  C.ar    1  <O>11       0.0780
   5 N1       -4.3226     1.2117    -3.2928  N.ar    1  <O>11      -0.1748
   6 N2       -4.5065     1.4063    -1.9666  N.ar    1  <O>11      -0.2425
   7 C4       -3.9089     2.4621    -1.3654  C.ar    1  <O>11       0.2725
   8 O2       -4.2201     2.6623    -0.0072  O.2     1  <O>11      -0.2658
   9 C5       -3.0235     3.3319    -2.0179  C.ar    1  <O>11       0.0496
  10 C6       -2.3535     4.4008    -1.3802  C.ar    1  <O>11      -0.0487
  11 C7       -1.5090     5.2508    -2.0950  C.ar    1  <O>11      -0.0610
  12 C8       -1.3254     5.0551    -3.4602  C.ar    1  <O>11      -0.0611
  13 C9       -1.9857     4.0112    -4.1081  C.ar    1  <O>11      -0.0521
  14 C10      -2.8387     3.1347    -3.3975  C.ar    1  <O>11       0.0108
  15 N3       -1.1210     1.1320    -5.1350  N.am    1  <O>11      -0.3064
  16 C11      -0.0010     0.2520    -5.4560  C.3     1  <O>11       0.0883
  17 C12       1.1450     0.5540    -4.5500  C.2     1  <O>11       0.2328
  18 O3        1.0410     1.4310    -3.7060  O.2     1  <O>11      -0.2739
  19 N4        2.3040    -0.1450    -4.6640  N.am    1  <O>11      -0.2972
  20 C13       3.5010     0.0510    -3.8400  C.3     1  <O>11       0.0305
  21 C14       4.7220     0.3810    -4.7260  C.3     1  <O>11       0.0280
  22 N5        4.9040    -0.6840    -5.8120  N.pl3   1  <O>11      -0.3269
  23 C15       6.1570    -1.3690    -5.9990  C.ar    1  <O>11       0.0299
  24 C16       6.4215    -2.5646    -5.3084  C.ar    1  <O>11      -0.0379
  25 C17       7.6441    -3.2230    -5.4811  C.ar    1  <O>11      -0.0247
  26 C18       8.6094    -2.6993    -6.3456  C.ar    1  <O>11       0.1235
  27 F1        9.8094    -3.3382    -6.5175  F       1  <O>11      -0.2055
  28 C19       8.3427    -1.5114    -7.0369  C.ar    1  <O>11      -0.0247
  29 C20       7.1260    -0.8476    -6.8729  C.ar    1  <O>11      -0.0379
  30 C21       3.6200    -0.8950    -6.6210  C.3     1  <O>11       0.0280
  31 C22       2.4540    -1.1980    -5.6680  C.3     1  <O>11       0.0305
  32 H1       -4.3581     1.5045    -5.8945  H       1  <O>11       0.0423
  33 H2       -3.2724     2.9132    -5.9719  H       1  <O>11       0.0423
  34 H3       -5.0829     0.7706    -1.4328  H       1  <O>11       0.1921
  35 H4       -1.0310     1.8180    -4.3850  H       1  <O>11       0.1492
  36 H5       -0.3060    -0.7860    -5.3230  H       1  <O>11       0.0558
  37 H6        0.3010     0.4120    -6.4910  H       1  <O>11       0.0558
  38 H7        3.3280     0.8740    -3.1470  H       1  <O>11       0.0480
  39 H8        3.7030    -0.8600    -3.2780  H       1  <O>11       0.0480
  40 H9        4.5710     1.3530    -5.1980  H       1  <O>11       0.0479
  41 H10       5.6180     0.4150    -4.1050  H       1  <O>11       0.0479
  42 H11       3.3980     0.0080    -7.1900  H       1  <O>11       0.0479
  43 H12       3.7570    -1.7320    -7.3050  H       1  <O>11       0.0479
  44 H13       1.5330    -1.2730    -6.2450  H       1  <O>11       0.0480
  45 H14       2.6440    -2.1460    -5.1630  H       1  <O>11       0.0480
  46 H15      -2.4913     4.5550    -0.3692  H       1  <O>11       0.0625
  47 H16      -1.0220     6.0223    -1.6127  H       1  <O>11       0.0618
  48 H17      -0.7016     5.6814    -3.9928  H       1  <O>11       0.0618
  49 H18      -1.8497     3.8762    -5.1221  H       1  <O>11       0.0624
  50 H19       5.7112    -2.9583    -4.6715  H       1  <O>11       0.0637
  51 H20       7.8337    -4.0983    -4.9683  H       1  <O>11       0.0647
  52 H21       9.0541    -1.1221    -7.6753  H       1  <O>11       0.0647
  53 H22       6.9384     0.0242    -7.3923  H       1  <O>11       0.0637
@<TRIPOS>BOND
     1     1     2    2
     2     2     3    1
     3     3     4    1
     4     4     5   ar
     5     5     6   ar
     6     6     7   ar
     7     7     8    2
     8     7     9   ar
     9     9    10   ar
    10    10    11   ar
    11    11    12   ar
    12    12    13   ar
    13    13    14   ar
    14     4    14   ar
    15     9    14   ar
    16     2    15   am
    17    15    16    1
    18    16    17    1
    19    17    18    2
    20    17    19   am
    21    19    20    1
    22    20    21    1
    23    21    22    1
    24    22    23    1
    25    23    24   ar
    26    24    25   ar
    27    25    26   ar
    28    26    27    1
    29    26    28   ar
    30    28    29   ar
    31    23    29   ar
    32    22    30    1
    33    30    31    1
    34    19    31    1
    35     3    32    1
    36     3    33    1
    37     6    34    1
    38    15    35    1
    39    16    36    1
    40    16    37    1
    41    20    38    1
    42    20    39    1
    43    21    40    1
    44    21    41    1
    45    30    42    1
    46    30    43    1
    47    31    44    1
    48    31    45    1
    49    10    46    1
    50    11    47    1
    51    12    48    1
    52    13    49    1
    53    24    50    1
    54    25    51    1
    55    28    52    1
    56    29    53    1
@<TRIPOS>MOLECULE
mol7_1_8
 53 56 0 0 0
SMALL
USER_CHARGES
****
VDW energy = -41.04
@<TRIPOS>ATOM
   1 O1       -2.3975     0.2168    -6.7381  O.2     1  <O>11      -0.2754
   2 C1       -2.2902     1.0382    -5.8398  C.2     1  <O>11       0.2193
   3 C2       -3.4340     1.9380    -5.5120  C.3     1  <O>11       0.0685
   4 C3       -4.5760     1.6380    -6.4140  C.ar    1  <O>11       0.0780
   5 N1       -4.6990     2.3145    -7.6333  N.ar    1  <O>11      -0.1748
   6 N2       -5.7871     2.1278    -8.4154  N.ar    1  <O>11      -0.2425
   7 C4       -6.7518     1.2687    -8.0097  C.ar    1  <O>11       0.2725
   8 O2       -7.9001     1.1952    -8.8207  O.2     1  <O>11      -0.2658
   9 C5       -6.6558     0.4773    -6.8562  C.ar    1  <O>11       0.0496
  10 C6       -7.6347    -0.4621    -6.4596  C.ar    1  <O>11      -0.0487
  11 C7       -7.4937    -1.1960    -5.2814  C.ar    1  <O>11      -0.0610
  12 C8       -6.3783    -0.9988    -4.4735  C.ar    1  <O>11      -0.0611
  13 C9       -5.4067    -0.0693    -4.8441  C.ar    1  <O>11      -0.0521
  14 C10      -5.5292     0.6772    -6.0394  C.ar    1  <O>11       0.0108
  15 N3       -1.1210     1.1320    -5.1350  N.am    1  <O>11      -0.3064
  16 C11      -0.9911     2.1128    -4.0612  C.3     1  <O>11       0.0883
  17 C12       0.3689     2.0117    -3.4564  C.2     1  <O>11       0.2328
  18 O3        1.1663     1.1899    -3.8818  O.2     1  <O>11      -0.2739
  19 N4        0.7201     2.8322    -2.4326  N.am    1  <O>11      -0.2972
  20 C13       2.0189     2.8364    -1.7520  C.3     1  <O>11       0.0305
  21 C14       1.8394     2.5908    -0.2380  C.3     1  <O>11       0.0280
  22 N5        0.8428     3.5910     0.3562  N.pl3   1  <O>11      -0.3269
  23 C15       1.1746     4.4036     1.4981  C.ar    1  <O>11       0.0299
  24 C16       2.1786     5.3832     1.4036  C.ar    1  <O>11      -0.0379
  25 C17       2.5090     6.1639     2.5168  C.ar    1  <O>11      -0.0247
  26 C18       1.8396     5.9788     3.7297  C.ar    1  <O>11       0.1235
  27 F1        2.1600     6.7387     4.8243  F       1  <O>11      -0.2055
  28 C19       0.8363     5.0066     3.8212  C.ar    1  <O>11      -0.0247
  29 C20       0.4981     4.2237     2.7164  C.ar    1  <O>11      -0.0379
  30 C21      -0.4846     3.5925    -0.4090  C.3     1  <O>11       0.0280
  31 C22      -0.2177     3.8226    -1.9041  C.3     1  <O>11       0.0305
  32 H1       -3.1290     2.9760    -5.6450  H       1  <O>11       0.0423
  33 H2       -3.7370     1.7780    -4.4770  H       1  <O>11       0.0423
  34 H3       -5.8771     2.6240    -9.2912  H       1  <O>11       0.1921
  35 H4       -0.3393     0.5156    -5.3591  H       1  <O>11       0.1492
  36 H5       -1.1356     3.1145    -4.4659  H       1  <O>11       0.0558
  37 H6       -1.7444     1.9172    -3.2981  H       1  <O>11       0.0558
  38 H7        2.6454     2.0494    -2.1711  H       1  <O>11       0.0480
  39 H8        2.5001     3.8020    -1.9029  H       1  <O>11       0.0480
  40 H9        1.4680     1.5771    -0.0802  H       1  <O>11       0.0479
  41 H10       2.8021     2.7059     0.2614  H       1  <O>11       0.0479
  42 H11      -0.9821     2.6321    -0.2731  H       1  <O>11       0.0479
  43 H12      -1.1214     4.3898    -0.0269  H       1  <O>11       0.0479
  44 H13      -1.1580     3.7483    -2.4492  H       1  <O>11       0.0480
  45 H14       0.2035     4.8194    -2.0414  H       1  <O>11       0.0480
  46 H15      -8.4675    -0.6075    -7.0514  H       1  <O>11       0.0625
  47 H16      -8.2145    -1.8829    -5.0100  H       1  <O>11       0.0618
  48 H17      -6.2699    -1.5395    -3.6012  H       1  <O>11       0.0618
  49 H18      -4.5853     0.0762    -4.2366  H       1  <O>11       0.0624
  50 H19       2.6738     5.5271     0.5096  H       1  <O>11       0.0637
  51 H20       3.2496     6.8787     2.4421  H       1  <O>11       0.0647
  52 H21       0.3410     4.8674     4.7158  H       1  <O>11       0.0647
  53 H22      -0.2472     3.5141     2.7942  H       1  <O>11       0.0637
@<TRIPOS>BOND
     1     1     2    2
     2     2     3    1
     3     3     4    1
     4     4     5   ar
     5     5     6   ar
     6     6     7   ar
     7     7     8    2
     8     7     9   ar
     9     9    10   ar
    10    10    11   ar
    11    11    12   ar
    12    12    13   ar
    13    13    14   ar
    14     4    14   ar
    15     9    14   ar
    16     2    15   am
    17    15    16    1
    18    16    17    1
    19    17    18    2
    20    17    19   am
    21    19    20    1
    22    20    21    1
    23    21    22    1
    24    22    23    1
    25    23    24   ar
    26    24    25   ar
    27    25    26   ar
    28    26    27    1
    29    26    28   ar
    30    28    29   ar
    31    23    29   ar
    32    22    30    1
    33    30    31    1
    34    19    31    1
    35     3    32    1
    36     3    33    1
    37     6    34    1
    38    15    35    1
    39    16    36    1
    40    16    37    1
    41    20    38    1
    42    20    39    1
    43    21    40    1
    44    21    41    1
    45    30    42    1
    46    30    43    1
    47    31    44    1
    48    31    45    1
    49    10    46    1
    50    11    47    1
    51    12    48    1
    52    13    49    1
    53    24    50    1
    54    25    51    1
    55    28    52    1
    56    29    53    1
@<TRIPOS>MOLECULE
mol7_1_9
 53 56 0 0 0
SMALL
USER_CHARGES
****
VDW energy = -40.42
@<TRIPOS>ATOM
   1 O1       -2.3975     0.2168    -6.7381  O.2     1  <O>11      -0.2754
   2 C1       -2.2902     1.0382    -5.8398  C.2     1  <O>11       0.2193
   3 C2       -3.4340     1.9380    -5.5120  C.3     1  <O>11       0.0685
   4 C3       -4.5760     1.6380    -6.4140  C.ar    1  <O>11       0.0780
   5 N1       -5.5261     0.6796    -6.0423  N.ar    1  <O>11      -0.1748
   6 N2       -6.5113     0.3216    -6.8977  N.ar    1  <O>11      -0.2425
   7 C4       -6.5744     0.9107    -8.1152  C.ar    1  <O>11       0.2725
   8 O2       -7.5624     0.4231    -8.9915  O.2     1  <O>11      -0.2658
   9 C5       -5.7262     1.9502    -8.5230  C.ar    1  <O>11       0.0496
  10 C6       -5.8253     2.6064    -9.7710  C.ar    1  <O>11      -0.0487
  11 C7       -4.9280     3.6130   -10.1292  C.ar    1  <O>11      -0.0610
  12 C8       -3.9106     3.9762    -9.2524  C.ar    1  <O>11      -0.0611
  13 C9       -3.7917     3.3331    -8.0205  C.ar    1  <O>11      -0.0521
  14 C10      -4.6976     2.3165    -7.6375  C.ar    1  <O>11       0.0108
  15 N3       -1.1210     1.1320    -5.1350  N.am    1  <O>11      -0.3064
  16 C11      -0.9911     2.1128    -4.0612  C.3     1  <O>11       0.0883
  17 C12       0.3689     2.0117    -3.4564  C.2     1  <O>11       0.2328
  18 O3        1.1663     1.1899    -3.8818  O.2     1  <O>11      -0.2739
  19 N4        0.7201     2.8322    -2.4326  N.am    1  <O>11      -0.2972
  20 C13       2.0189     2.8364    -1.7520  C.3     1  <O>11       0.0305
  21 C14       1.8394     2.5908    -0.2380  C.3     1  <O>11       0.0280
  22 N5        0.8428     3.5910     0.3562  N.pl3   1  <O>11      -0.3269
  23 C15       1.1746     4.4036     1.4981  C.ar    1  <O>11       0.0299
  24 C16       1.7645     5.6675     1.3216  C.ar    1  <O>11      -0.0379
  25 C17       2.0980     6.4512     2.4318  C.ar    1  <O>11      -0.0247
  26 C18       1.8424     5.9851     3.7245  C.ar    1  <O>11       0.1235
  27 F1        2.1685     6.7469     4.8159  F       1  <O>11      -0.2055
  28 C19       1.2500     4.7286     3.8988  C.ar    1  <O>11      -0.0247
  29 C20       0.9122     3.9397     2.7982  C.ar    1  <O>11      -0.0379
  30 C21      -0.4846     3.5925    -0.4090  C.3     1  <O>11       0.0280
  31 C22      -0.2177     3.8226    -1.9041  C.3     1  <O>11       0.0305
  32 H1       -3.1290     2.9760    -5.6450  H       1  <O>11       0.0423
  33 H2       -3.7370     1.7780    -4.4770  H       1  <O>11       0.0423
  34 H3       -7.1909    -0.3767    -6.6298  H       1  <O>11       0.1921
  35 H4       -0.3393     0.5156    -5.3591  H       1  <O>11       0.1492
  36 H5       -1.1356     3.1145    -4.4659  H       1  <O>11       0.0558
  37 H6       -1.7444     1.9172    -3.2981  H       1  <O>11       0.0558
  38 H7        2.6454     2.0494    -2.1711  H       1  <O>11       0.0480
  39 H8        2.5001     3.8020    -1.9029  H       1  <O>11       0.0480
  40 H9        1.4680     1.5771    -0.0802  H       1  <O>11       0.0479
  41 H10       2.8021     2.7059     0.2614  H       1  <O>11       0.0479
  42 H11      -0.9821     2.6321    -0.2731  H       1  <O>11       0.0479
  43 H12      -1.1214     4.3898    -0.0269  H       1  <O>11       0.0479
  44 H13      -1.1580     3.7483    -2.4492  H       1  <O>11       0.0480
  45 H14       0.2035     4.8194    -2.0414  H       1  <O>11       0.0480
  46 H15      -6.5738     2.3364   -10.4282  H       1  <O>11       0.0625
  47 H16      -5.0187     4.0868   -11.0415  H       1  <O>11       0.0618
  48 H17      -3.2448     4.7203    -9.5132  H       1  <O>11       0.0618
  49 H18      -3.0306     3.6033    -7.3781  H       1  <O>11       0.0624
  50 H19       1.9522     6.0187     0.3695  H       1  <O>11       0.0637
  51 H20       2.5343     7.3764     2.2957  H       1  <O>11       0.0647
  52 H21       1.0608     4.3817     4.8522  H       1  <O>11       0.0647
  53 H22       0.4706     3.0176     2.9389  H       1  <O>11       0.0637
@<TRIPOS>BOND
     1     1     2    2
     2     2     3    1
     3     3     4    1
     4     4     5   ar
     5     5     6   ar
     6     6     7   ar
     7     7     8    2
     8     7     9   ar
     9     9    10   ar
    10    10    11   ar
    11    11    12   ar
    12    12    13   ar
    13    13    14   ar
    14     4    14   ar
    15     9    14   ar
    16     2    15   am
    17    15    16    1
    18    16    17    1
    19    17    18    2
    20    17    19   am
    21    19    20    1
    22    20    21    1
    23    21    22    1
    24    22    23    1
    25    23    24   ar
    26    24    25   ar
    27    25    26   ar
    28    26    27    1
    29    26    28   ar
    30    28    29   ar
    31    23    29   ar
    32    22    30    1
    33    30    31    1
    34    19    31    1
    35     3    32    1
    36     3    33    1
    37     6    34    1
    38    15    35    1
    39    16    36    1
    40    16    37    1
    41    20    38    1
    42    20    39    1
    43    21    40    1
    44    21    41    1
    45    30    42    1
    46    30    43    1
    47    31    44    1
    48    31    45    1
    49    10    46    1
    50    11    47    1
    51    12    48    1
    52    13    49    1
    53    24    50    1
    54    25    51    1
    55    28    52    1
    56    29    53    1
@<TRIPOS>MOLECULE
mol7_1_10
 53 56 0 0 0
SMALL
USER_CHARGES
****
VDW energy = -40.19
@<TRIPOS>ATOM
   1 O1       -2.3975     0.2168    -6.7381  O.2     1  <O>11      -0.2754
   2 C1       -2.2902     1.0382    -5.8398  C.2     1  <O>11       0.2193
   3 C2       -3.4340     1.9380    -5.5120  C.3     1  <O>11       0.0685
   4 C3       -4.5760     1.6380    -6.4140  C.ar    1  <O>11       0.0780
   5 N1       -4.6990     2.3145    -7.6333  N.ar    1  <O>11      -0.1748
   6 N2       -5.7871     2.1278    -8.4154  N.ar    1  <O>11      -0.2425
   7 C4       -6.7518     1.2687    -8.0097  C.ar    1  <O>11       0.2725
   8 O2       -7.9001     1.1952    -8.8207  O.2     1  <O>11      -0.2658
   9 C5       -6.6558     0.4773    -6.8562  C.ar    1  <O>11       0.0496
  10 C6       -7.6347    -0.4621    -6.4596  C.ar    1  <O>11      -0.0487
  11 C7       -7.4937    -1.1960    -5.2814  C.ar    1  <O>11      -0.0610
  12 C8       -6.3783    -0.9988    -4.4735  C.ar    1  <O>11      -0.0611
  13 C9       -5.4067    -0.0693    -4.8441  C.ar    1  <O>11      -0.0521
  14 C10      -5.5292     0.6772    -6.0394  C.ar    1  <O>11       0.0108
  15 N3       -1.1210     1.1320    -5.1350  N.am    1  <O>11      -0.3064
  16 C11      -0.0010     0.2520    -5.4560  C.3     1  <O>11       0.0883
  17 C12       1.1450     0.5540    -4.5500  C.2     1  <O>11       0.2328
  18 O3        1.5672    -0.3063    -3.7924  O.2     1  <O>11      -0.2739
  19 N4        1.7182     1.7853    -4.5665  N.am    1  <O>11      -0.2972
  20 C13       2.8458     2.2107    -3.7311  C.3     1  <O>11       0.0305
  21 C14       2.4607     3.4453    -2.8871  C.3     1  <O>11       0.0280
  22 N5        1.9172     4.5628    -3.7829  N.pl3   1  <O>11      -0.3269
  23 C15       2.4601     5.8962    -3.7446  C.ar    1  <O>11       0.0299
  24 C16       3.7813     6.1362    -4.1610  C.ar    1  <O>11      -0.0379
  25 C17       4.3121     7.4299    -4.1118  C.ar    1  <O>11      -0.0247
  26 C18       3.5309     8.4941    -3.6528  C.ar    1  <O>11       0.1235
  27 F1        4.0456     9.7631    -3.6002  F       1  <O>11      -0.2055
  28 C19       2.2136     8.2548    -3.2434  C.ar    1  <O>11      -0.0247
  29 C20       1.6740     6.9685    -3.2899  C.ar    1  <O>11      -0.0379
  30 C21       0.7728     4.0697    -4.6745  C.3     1  <O>11       0.0280
  31 C22       1.2294     2.8328    -5.4626  C.3     1  <O>11       0.0305
  32 H1       -3.1290     2.9760    -5.6450  H       1  <O>11       0.0423
  33 H2       -3.7370     1.7780    -4.4770  H       1  <O>11       0.0423
  34 H3       -5.8771     2.6240    -9.2912  H       1  <O>11       0.1921
  35 H4       -1.0310     1.8180    -4.3850  H       1  <O>11       0.1492
  36 H5       -0.3060    -0.7860    -5.3230  H       1  <O>11       0.0558
  37 H6        0.3010     0.4120    -6.4910  H       1  <O>11       0.0558
  38 H7        3.1263     1.3948    -3.0655  H       1  <O>11       0.0480
  39 H8        3.6906     2.4641    -4.3703  H       1  <O>11       0.0480
  40 H9        1.6954     3.1610    -2.1633  H       1  <O>11       0.0479
  41 H10       3.3427     3.8083    -2.3581  H       1  <O>11       0.0479
  42 H11      -0.0835     3.8078    -4.0528  H       1  <O>11       0.0479
  43 H12       0.4901     4.8595    -5.3699  H       1  <O>11       0.0479
  44 H13       0.3881     2.4458    -6.0365  H       1  <O>11       0.0480
  45 H14       2.0314     3.1206    -6.1437  H       1  <O>11       0.0480
  46 H15      -8.4675    -0.6075    -7.0514  H       1  <O>11       0.0625
  47 H16      -8.2145    -1.8829    -5.0100  H       1  <O>11       0.0618
  48 H17      -6.2699    -1.5395    -3.6012  H       1  <O>11       0.0618
  49 H18      -4.5853     0.0762    -4.2366  H       1  <O>11       0.0624
  50 H19       4.3618     5.3551    -4.5045  H       1  <O>11       0.0637
  51 H20       5.2839     7.5989    -4.4153  H       1  <O>11       0.0647
  52 H21       1.6348     9.0387    -2.9033  H       1  <O>11       0.0647
  53 H22       0.6998     6.8053    -2.9909  H       1  <O>11       0.0637
@<TRIPOS>BOND
     1     1     2    2
     2     2     3    1
     3     3     4    1
     4     4     5   ar
     5     5     6   ar
     6     6     7   ar
     7     7     8    2
     8     7     9   ar
     9     9    10   ar
    10    10    11   ar
    11    11    12   ar
    12    12    13   ar
    13    13    14   ar
    14     4    14   ar
    15     9    14   ar
    16     2    15   am
    17    15    16    1
    18    16    17    1
    19    17    18    2
    20    17    19   am
    21    19    20    1
    22    20    21    1
    23    21    22    1
    24    22    23    1
    25    23    24   ar
    26    24    25   ar
    27    25    26   ar
    28    26    27    1
    29    26    28   ar
    30    28    29   ar
    31    23    29   ar
    32    22    30    1
    33    30    31    1
    34    19    31    1
    35     3    32    1
    36     3    33    1
    37     6    34    1
    38    15    35    1
    39    16    36    1
    40    16    37    1
    41    20    38    1
    42    20    39    1
    43    21    40    1
    44    21    41    1
    45    30    42    1
    46    30    43    1
    47    31    44    1
    48    31    45    1
    49    10    46    1
    50    11    47    1
    51    12    48    1
    52    13    49    1
    53    24    50    1
    54    25    51    1
    55    28    52    1
    56    29    53    1
@<TRIPOS>MOLECULE
mol7_1_11
 53 56 0 0 0
SMALL
USER_CHARGES
****
VDW energy = -40.12
@<TRIPOS>ATOM
   1 O1       -2.3975     0.2168    -6.7381  O.2     1  <O>11      -0.2754
   2 C1       -2.2902     1.0382    -5.8398  C.2     1  <O>11       0.2193
   3 C2       -3.4340     1.9380    -5.5120  C.3     1  <O>11       0.0685
   4 C3       -4.5760     1.6380    -6.4140  C.ar    1  <O>11       0.0780
   5 N1       -4.6990     2.3145    -7.6333  N.ar    1  <O>11      -0.1748
   6 N2       -5.7871     2.1278    -8.4154  N.ar    1  <O>11      -0.2425
   7 C4       -6.7518     1.2687    -8.0097  C.ar    1  <O>11       0.2725
   8 O2       -7.9001     1.1952    -8.8207  O.2     1  <O>11      -0.2658
   9 C5       -6.6558     0.4773    -6.8562  C.ar    1  <O>11       0.0496
  10 C6       -7.6347    -0.4621    -6.4596  C.ar    1  <O>11      -0.0487
  11 C7       -7.4937    -1.1960    -5.2814  C.ar    1  <O>11      -0.0610
  12 C8       -6.3783    -0.9988    -4.4735  C.ar    1  <O>11      -0.0611
  13 C9       -5.4067    -0.0693    -4.8441  C.ar    1  <O>11      -0.0521
  14 C10      -5.5292     0.6772    -6.0394  C.ar    1  <O>11       0.0108
  15 N3       -1.1210     1.1320    -5.1350  N.am    1  <O>11      -0.3064
  16 C11      -0.9911     2.1128    -4.0612  C.3     1  <O>11       0.0883
  17 C12       0.3689     2.0117    -3.4564  C.2     1  <O>11       0.2328
  18 O3        1.1293     2.9666    -3.5017  O.2     1  <O>11      -0.2739
  19 N4        0.7619     0.8582    -2.8567  N.am    1  <O>11      -0.2972
  20 C13       2.0656     0.6277    -2.2263  C.3     1  <O>11       0.0305
  21 C14       2.7756    -0.5813    -2.8736  C.3     1  <O>11       0.0280
  22 N5        1.8676    -1.8150    -2.8519  N.pl3   1  <O>11      -0.3269
  23 C15       2.3070    -3.0694    -2.2973  C.ar    1  <O>11       0.0299
  24 C16       2.5762    -3.1812    -0.9220  C.ar    1  <O>11      -0.0379
  25 C17       3.0150    -4.3970    -0.3859  C.ar    1  <O>11      -0.0247
  26 C18       3.1838    -5.5107    -1.2132  C.ar    1  <O>11       0.1235
  27 F1        3.6152    -6.7036    -0.6947  F       1  <O>11      -0.2055
  28 C19       2.9102    -5.3997    -2.5818  C.ar    1  <O>11      -0.0247
  29 C20       2.4708    -4.1921    -3.1263  C.ar    1  <O>11      -0.0379
  30 C21       0.4988    -1.5234    -3.4755  C.3     1  <O>11       0.0280
  31 C22      -0.1293    -0.2998    -2.7917  C.3     1  <O>11       0.0305
  32 H1       -3.1290     2.9760    -5.6450  H       1  <O>11       0.0423
  33 H2       -3.7370     1.7780    -4.4770  H       1  <O>11       0.0423
  34 H3       -5.8771     2.6240    -9.2912  H       1  <O>11       0.1921
  35 H4       -0.3393     0.5156    -5.3591  H       1  <O>11       0.1492
  36 H5       -1.1356     3.1145    -4.4659  H       1  <O>11       0.0558
  37 H6       -1.7444     1.9172    -3.2981  H       1  <O>11       0.0558
  38 H7        2.6852     1.5156    -2.3499  H       1  <O>11       0.0480
  39 H8        1.9213     0.4311    -1.1646  H       1  <O>11       0.0480
  40 H9        3.0273    -0.3389    -3.9071  H       1  <O>11       0.0479
  41 H10       3.6894    -0.8003    -2.3198  H       1  <O>11       0.0479
  42 H11       0.6214    -1.3210    -4.5397  H       1  <O>11       0.0479
  43 H12      -0.1510    -2.3877    -3.3418  H       1  <O>11       0.0479
  44 H13      -1.0667    -0.0555    -3.2902  H       1  <O>11       0.0480
  45 H14      -0.3262    -0.5384    -1.7457  H       1  <O>11       0.0480
  46 H15      -8.4675    -0.6075    -7.0514  H       1  <O>11       0.0625
  47 H16      -8.2145    -1.8829    -5.0100  H       1  <O>11       0.0618
  48 H17      -6.2699    -1.5395    -3.6012  H       1  <O>11       0.0618
  49 H18      -4.5853     0.0762    -4.2366  H       1  <O>11       0.0624
  50 H19       2.4498    -2.3633    -0.3054  H       1  <O>11       0.0637
  51 H20       3.2146    -4.4715     0.6239  H       1  <O>11       0.0647
  52 H21       3.0348    -6.2203    -3.1951  H       1  <O>11       0.0647
  53 H22       2.2667    -4.1238    -4.1356  H       1  <O>11       0.0637
@<TRIPOS>BOND
     1     1     2    2
     2     2     3    1
     3     3     4    1
     4     4     5   ar
     5     5     6   ar
     6     6     7   ar
     7     7     8    2
     8     7     9   ar
     9     9    10   ar
    10    10    11   ar
    11    11    12   ar
    12    12    13   ar
    13    13    14   ar
    14     4    14   ar
    15     9    14   ar
    16     2    15   am
    17    15    16    1
    18    16    17    1
    19    17    18    2
    20    17    19   am
    21    19    20    1
    22    20    21    1
    23    21    22    1
    24    22    23    1
    25    23    24   ar
    26    24    25   ar
    27    25    26   ar
    28    26    27    1
    29    26    28   ar
    30    28    29   ar
    31    23    29   ar
    32    22    30    1
    33    30    31    1
    34    19    31    1
    35     3    32    1
    36     3    33    1
    37     6    34    1
    38    15    35    1
    39    16    36    1
    40    16    37    1
    41    20    38    1
    42    20    39    1
    43    21    40    1
    44    21    41    1
    45    30    42    1
    46    30    43    1
    47    31    44    1
    48    31    45    1
    49    10    46    1
    50    11    47    1
    51    12    48    1
    52    13    49    1
    53    24    50    1
    54    25    51    1
    55    28    52    1
    56    29    53    1
@<TRIPOS>MOLECULE
mol7_1_12
 53 56 0 0 0
SMALL
USER_CHARGES
****
VDW energy = -35.72
@<TRIPOS>ATOM
   1 O1       -2.3975     0.2168    -6.7381  O.2     1  <O>11      -0.2754
   2 C1       -2.2902     1.0382    -5.8398  C.2     1  <O>11       0.2193
   3 C2       -3.4340     1.9380    -5.5120  C.3     1  <O>11       0.0685
   4 C3       -4.5760     1.6380    -6.4140  C.ar    1  <O>11       0.0780
   5 N1       -4.6990     2.3145    -7.6333  N.ar    1  <O>11      -0.1748
   6 N2       -5.7871     2.1278    -8.4154  N.ar    1  <O>11      -0.2425
   7 C4       -6.7518     1.2687    -8.0097  C.ar    1  <O>11       0.2725
   8 O2       -7.9001     1.1952    -8.8207  O.2     1  <O>11      -0.2658
   9 C5       -6.6558     0.4773    -6.8562  C.ar    1  <O>11       0.0496
  10 C6       -7.6347    -0.4621    -6.4596  C.ar    1  <O>11      -0.0487
  11 C7       -7.4937    -1.1960    -5.2814  C.ar    1  <O>11      -0.0610
  12 C8       -6.3783    -0.9988    -4.4735  C.ar    1  <O>11      -0.0611
  13 C9       -5.4067    -0.0693    -4.8441  C.ar    1  <O>11      -0.0521
  14 C10      -5.5292     0.6772    -6.0394  C.ar    1  <O>11       0.0108
  15 N3       -1.1210     1.1320    -5.1350  N.am    1  <O>11      -0.3064
  16 C11      -0.0010     0.2520    -5.4560  C.3     1  <O>11       0.0883
  17 C12       1.1450     0.5540    -4.5500  C.2     1  <O>11       0.2328
  18 O3        1.0410     1.4310    -3.7060  O.2     1  <O>11      -0.2739
  19 N4        2.3040    -0.1450    -4.6640  N.am    1  <O>11      -0.2972
  20 C13       3.5010     0.0510    -3.8400  C.3     1  <O>11       0.0305
  21 C14       4.7220     0.3810    -4.7260  C.3     1  <O>11       0.0280
  22 N5        4.9040    -0.6840    -5.8120  N.pl3   1  <O>11      -0.3269
  23 C15       6.1570    -1.3690    -5.9990  C.ar    1  <O>11       0.0299
  24 C16       6.2900    -2.3420    -7.0050  C.ar    1  <O>11      -0.0379
  25 C17       7.5040    -3.0160    -7.1780  C.ar    1  <O>11      -0.0247
  26 C18       8.5950    -2.7230    -6.3550  C.ar    1  <O>11       0.1235
  27 F1        9.7860    -3.3810    -6.5180  F       1  <O>11      -0.2055
  28 C19       8.4630    -1.7500    -5.3570  C.ar    1  <O>11      -0.0247
  29 C20       7.2570    -1.0710    -5.1770  C.ar    1  <O>11      -0.0379
  30 C21       3.6200    -0.8950    -6.6210  C.3     1  <O>11       0.0280
  31 C22       2.4540    -1.1980    -5.6680  C.3     1  <O>11       0.0305
  32 H1       -3.1290     2.9760    -5.6450  H       1  <O>11       0.0423
  33 H2       -3.7370     1.7780    -4.4770  H       1  <O>11       0.0423
  34 H3       -5.8771     2.6240    -9.2912  H       1  <O>11       0.1921
  35 H4       -1.0310     1.8180    -4.3850  H       1  <O>11       0.1492
  36 H5       -0.3060    -0.7860    -5.3230  H       1  <O>11       0.0558
  37 H6        0.3010     0.4120    -6.4910  H       1  <O>11       0.0558
  38 H7        3.3280     0.8740    -3.1470  H       1  <O>11       0.0480
  39 H8        3.7030    -0.8600    -3.2780  H       1  <O>11       0.0480
  40 H9        4.5710     1.3530    -5.1980  H       1  <O>11       0.0479
  41 H10       5.6180     0.4150    -4.1050  H       1  <O>11       0.0479
  42 H11       3.3980     0.0080    -7.1900  H       1  <O>11       0.0479
  43 H12       3.7570    -1.7320    -7.3050  H       1  <O>11       0.0479
  44 H13       1.5330    -1.2730    -6.2450  H       1  <O>11       0.0480
  45 H14       2.6440    -2.1460    -5.1630  H       1  <O>11       0.0480
  46 H15      -8.4675    -0.6075    -7.0514  H       1  <O>11       0.0625
  47 H16      -8.2145    -1.8829    -5.0100  H       1  <O>11       0.0618
  48 H17      -6.2699    -1.5395    -3.6012  H       1  <O>11       0.0618
  49 H18      -4.5853     0.0762    -4.2366  H       1  <O>11       0.0624
  50 H19       5.4891    -2.5600    -7.6183  H       1  <O>11       0.0637
  51 H20       7.5941    -3.7319    -7.9158  H       1  <O>11       0.0647
  52 H21       9.2668    -1.5323    -4.7474  H       1  <O>11       0.0647
  53 H22       7.1733    -0.3516    -4.4418  H       1  <O>11       0.0637
@<TRIPOS>BOND
     1     1     2    2
     2     2     3    1
     3     3     4    1
     4     4     5   ar
     5     5     6   ar
     6     6     7   ar
     7     7     8    2
     8     7     9   ar
     9     9    10   ar
    10    10    11   ar
    11    11    12   ar
    12    12    13   ar
    13    13    14   ar
    14     4    14   ar
    15     9    14   ar
    16     2    15   am
    17    15    16    1
    18    16    17    1
    19    17    18    2
    20    17    19   am
    21    19    20    1
    22    20    21    1
    23    21    22    1
    24    22    23    1
    25    23    24   ar
    26    24    25   ar
    27    25    26   ar
    28    26    27    1
    29    26    28   ar
    30    28    29   ar
    31    23    29   ar
    32    22    30    1
    33    30    31    1
    34    19    31    1
    35     3    32    1
    36     3    33    1
    37     6    34    1
    38    15    35    1
    39    16    36    1
    40    16    37    1
    41    20    38    1
    42    20    39    1
    43    21    40    1
    44    21    41    1
    45    30    42    1
    46    30    43    1
    47    31    44    1
    48    31    45    1
    49    10    46    1
    50    11    47    1
    51    12    48    1
    52    13    49    1
    53    24    50    1
    54    25    51    1
    55    28    52    1
    56    29    53    1
@<TRIPOS>MOLECULE
mol7_1_13
 53 56 0 0 0
SMALL
USER_CHARGES
****
VDW energy = -34.93
@<TRIPOS>ATOM
   1 O1       -2.3975     0.2168    -6.7381  O.2     1  <O>11      -0.2754
   2 C1       -2.2902     1.0382    -5.8398  C.2     1  <O>11       0.2193
   3 C2       -3.4340     1.9380    -5.5120  C.3     1  <O>11       0.0685
   4 C3       -3.5344     2.0965    -4.0380  C.ar    1  <O>11       0.0780
   5 N1       -3.4184     3.3675    -3.4631  N.ar    1  <O>11      -0.1748
   6 N2       -3.4033     3.5139    -2.1182  N.ar    1  <O>11      -0.2425
   7 C4       -3.5136     2.4160    -1.3336  C.ar    1  <O>11       0.2725
   8 O2       -3.3924     2.6277     0.0529  O.2     1  <O>11      -0.2658
   9 C5       -3.7367     1.1232    -1.8289  C.ar    1  <O>11       0.0496
  10 C6       -3.9092    -0.0167    -1.0111  C.ar    1  <O>11      -0.0487
  11 C7       -4.0957    -1.2820    -1.5687  C.ar    1  <O>11      -0.0610
  12 C8       -4.1040    -1.4336    -2.9517  C.ar    1  <O>11      -0.0611
  13 C9       -3.9260    -0.3215    -3.7743  C.ar    1  <O>11      -0.0521
  14 C10      -3.7442     0.9699    -3.2263  C.ar    1  <O>11       0.0108
  15 N3       -1.1210     1.1320    -5.1350  N.am    1  <O>11      -0.3064
  16 C11      -0.0010     0.2520    -5.4560  C.3     1  <O>11       0.0883
  17 C12       1.1450     0.5540    -4.5500  C.2     1  <O>11       0.2328
  18 O3        1.0410     1.4310    -3.7060  O.2     1  <O>11      -0.2739
  19 N4        2.3040    -0.1450    -4.6640  N.am    1  <O>11      -0.2972
  20 C13       2.5599    -1.2174    -5.6308  C.3     1  <O>11       0.0305
  21 C14       2.9541    -2.5214    -4.9036  C.3     1  <O>11       0.0280
  22 N5        4.1281    -2.2741    -3.9511  N.pl3   1  <O>11      -0.3269
  23 C15       5.3281    -3.0685    -4.0053  C.ar    1  <O>11       0.0299
  24 C16       6.3875    -2.8145    -3.1167  C.ar    1  <O>11      -0.0379
  25 C17       7.5581    -3.5787    -3.1782  C.ar    1  <O>11      -0.0247
  26 C18       7.6806    -4.6036    -4.1205  C.ar    1  <O>11       0.1235
  27 F1        8.8252    -5.3543    -4.1872  F       1  <O>11      -0.2055
  28 C19       6.6228    -4.8592    -5.0014  C.ar    1  <O>11      -0.0247
  29 C20       5.4505    -4.1038    -4.9475  C.ar    1  <O>11      -0.0379
  30 C21       3.8435    -1.1169    -2.9879  C.3     1  <O>11       0.0280
  31 C22       3.4411     0.1319    -3.7867  C.3     1  <O>11       0.0305
  32 H1       -4.3581     1.5045    -5.8945  H       1  <O>11       0.0423
  33 H2       -3.2724     2.9132    -5.9719  H       1  <O>11       0.0423
  34 H3       -3.3110     4.4320    -1.7059  H       1  <O>11       0.1921
  35 H4       -1.0310     1.8180    -4.3850  H       1  <O>11       0.1492
  36 H5       -0.3060    -0.7860    -5.3230  H       1  <O>11       0.0558
  37 H6        0.3010     0.4120    -6.4910  H       1  <O>11       0.0558
  38 H7        1.6589    -1.3927    -6.2181  H       1  <O>11       0.0480
  39 H8        3.3716    -0.9178    -6.2926  H       1  <O>11       0.0480
  40 H9        2.0992    -2.8867    -4.3326  H       1  <O>11       0.0479
  41 H10       3.2440    -3.2707    -5.6412  H       1  <O>11       0.0479
  42 H11       3.0307    -1.3958    -2.3170  H       1  <O>11       0.0479
  43 H12       4.7391    -0.9026    -2.4055  H       1  <O>11       0.0479
  44 H13       3.1695     0.9262    -3.0924  H       1  <O>11       0.0480
  45 H14       4.2880     0.4544    -4.3938  H       1  <O>11       0.0480
  46 H15      -3.8970     0.0888     0.0154  H       1  <O>11       0.0625
  47 H16      -4.2270    -2.1029    -0.9572  H       1  <O>11       0.0618
  48 H17      -4.2417    -2.3677    -3.3683  H       1  <O>11       0.0618
  49 H18      -3.9268    -0.4426    -4.7991  H       1  <O>11       0.0624
  50 H19       6.3014    -2.0615    -2.4162  H       1  <O>11       0.0637
  51 H20       8.3336    -3.3848    -2.5256  H       1  <O>11       0.0647
  52 H21       6.7110    -5.6149    -5.6987  H       1  <O>11       0.0647
  53 H22       4.6751    -4.3052    -5.5981  H       1  <O>11       0.0637
@<TRIPOS>BOND
     1     1     2    2
     2     2     3    1
     3     3     4    1
     4     4     5   ar
     5     5     6   ar
     6     6     7   ar
     7     7     8    2
     8     7     9   ar
     9     9    10   ar
    10    10    11   ar
    11    11    12   ar
    12    12    13   ar
    13    13    14   ar
    14     4    14   ar
    15     9    14   ar
    16     2    15   am
    17    15    16    1
    18    16    17    1
    19    17    18    2
    20    17    19   am
    21    19    20    1
    22    20    21    1
    23    21    22    1
    24    22    23    1
    25    23    24   ar
    26    24    25   ar
    27    25    26   ar
    28    26    27    1
    29    26    28   ar
    30    28    29   ar
    31    23    29   ar
    32    22    30    1
    33    30    31    1
    34    19    31    1
    35     3    32    1
    36     3    33    1
    37     6    34    1
    38    15    35    1
    39    16    36    1
    40    16    37    1
    41    20    38    1
    42    20    39    1
    43    21    40    1
    44    21    41    1
    45    30    42    1
    46    30    43    1
    47    31    44    1
    48    31    45    1
    49    10    46    1
    50    11    47    1
    51    12    48    1
    52    13    49    1
    53    24    50    1
    54    25    51    1
    55    28    52    1
    56    29    53    1
@<TRIPOS>MOLECULE
mol7_1_14
 53 56 0 0 0
SMALL
USER_CHARGES
****
VDW energy = -34.79
@<TRIPOS>ATOM
   1 O1       -2.3975     0.2168    -6.7381  O.2     1  <O>11      -0.2754
   2 C1       -2.2902     1.0382    -5.8398  C.2     1  <O>11       0.2193
   3 C2       -3.4340     1.9380    -5.5120  C.3     1  <O>11       0.0685
   4 C3       -4.5760     1.6380    -6.4140  C.ar    1  <O>11       0.0780
   5 N1       -5.5261     0.6796    -6.0423  N.ar    1  <O>11      -0.1748
   6 N2       -6.5113     0.3216    -6.8977  N.ar    1  <O>11      -0.2425
   7 C4       -6.5744     0.9107    -8.1152  C.ar    1  <O>11       0.2725
   8 O2       -7.5624     0.4231    -8.9915  O.2     1  <O>11      -0.2658
   9 C5       -5.7262     1.9502    -8.5230  C.ar    1  <O>11       0.0496
  10 C6       -5.8253     2.6064    -9.7710  C.ar    1  <O>11      -0.0487
  11 C7       -4.9280     3.6130   -10.1292  C.ar    1  <O>11      -0.0610
  12 C8       -3.9106     3.9762    -9.2524  C.ar    1  <O>11      -0.0611
  13 C9       -3.7917     3.3331    -8.0205  C.ar    1  <O>11      -0.0521
  14 C10      -4.6976     2.3165    -7.6375  C.ar    1  <O>11       0.0108
  15 N3       -1.1210     1.1320    -5.1350  N.am    1  <O>11      -0.3064
  16 C11      -0.0010     0.2520    -5.4560  C.3     1  <O>11       0.0883
  17 C12       1.1450     0.5540    -4.5500  C.2     1  <O>11       0.2328
  18 O3        1.0410     1.4310    -3.7060  O.2     1  <O>11      -0.2739
  19 N4        2.3040    -0.1450    -4.6640  N.am    1  <O>11      -0.2972
  20 C13       3.5010     0.0510    -3.8400  C.3     1  <O>11       0.0305
  21 C14       4.7220     0.3810    -4.7260  C.3     1  <O>11       0.0280
  22 N5        4.9040    -0.6840    -5.8120  N.pl3   1  <O>11      -0.3269
  23 C15       6.1570    -1.3690    -5.9990  C.ar    1  <O>11       0.0299
  24 C16       6.2900    -2.3420    -7.0050  C.ar    1  <O>11      -0.0379
  25 C17       7.5040    -3.0160    -7.1780  C.ar    1  <O>11      -0.0247
  26 C18       8.5950    -2.7230    -6.3550  C.ar    1  <O>11       0.1235
  27 F1        9.7860    -3.3810    -6.5180  F       1  <O>11      -0.2055
  28 C19       8.4630    -1.7500    -5.3570  C.ar    1  <O>11      -0.0247
  29 C20       7.2570    -1.0710    -5.1770  C.ar    1  <O>11      -0.0379
  30 C21       3.6200    -0.8950    -6.6210  C.3     1  <O>11       0.0280
  31 C22       2.4540    -1.1980    -5.6680  C.3     1  <O>11       0.0305
  32 H1       -3.1290     2.9760    -5.6450  H       1  <O>11       0.0423
  33 H2       -3.7370     1.7780    -4.4770  H       1  <O>11       0.0423
  34 H3       -7.1909    -0.3767    -6.6298  H       1  <O>11       0.1921
  35 H4       -1.0310     1.8180    -4.3850  H       1  <O>11       0.1492
  36 H5       -0.3060    -0.7860    -5.3230  H       1  <O>11       0.0558
  37 H6        0.3010     0.4120    -6.4910  H       1  <O>11       0.0558
  38 H7        3.3280     0.8740    -3.1470  H       1  <O>11       0.0480
  39 H8        3.7030    -0.8600    -3.2780  H       1  <O>11       0.0480
  40 H9        4.5710     1.3530    -5.1980  H       1  <O>11       0.0479
  41 H10       5.6180     0.4150    -4.1050  H       1  <O>11       0.0479
  42 H11       3.3980     0.0080    -7.1900  H       1  <O>11       0.0479
  43 H12       3.7570    -1.7320    -7.3050  H       1  <O>11       0.0479
  44 H13       1.5330    -1.2730    -6.2450  H       1  <O>11       0.0480
  45 H14       2.6440    -2.1460    -5.1630  H       1  <O>11       0.0480
  46 H15      -6.5738     2.3364   -10.4282  H       1  <O>11       0.0625
  47 H16      -5.0187     4.0868   -11.0415  H       1  <O>11       0.0618
  48 H17      -3.2448     4.7203    -9.5132  H       1  <O>11       0.0618
  49 H18      -3.0306     3.6033    -7.3781  H       1  <O>11       0.0624
  50 H19       5.4891    -2.5600    -7.6183  H       1  <O>11       0.0637
  51 H20       7.5941    -3.7319    -7.9158  H       1  <O>11       0.0647
  52 H21       9.2668    -1.5323    -4.7474  H       1  <O>11       0.0647
  53 H22       7.1733    -0.3516    -4.4418  H       1  <O>11       0.0637
@<TRIPOS>BOND
     1     1     2    2
     2     2     3    1
     3     3     4    1
     4     4     5   ar
     5     5     6   ar
     6     6     7   ar
     7     7     8    2
     8     7     9   ar
     9     9    10   ar
    10    10    11   ar
    11    11    12   ar
    12    12    13   ar
    13    13    14   ar
    14     4    14   ar
    15     9    14   ar
    16     2    15   am
    17    15    16    1
    18    16    17    1
    19    17    18    2
    20    17    19   am
    21    19    20    1
    22    20    21    1
    23    21    22    1
    24    22    23    1
    25    23    24   ar
    26    24    25   ar
    27    25    26   ar
    28    26    27    1
    29    26    28   ar
    30    28    29   ar
    31    23    29   ar
    32    22    30    1
    33    30    31    1
    34    19    31    1
    35     3    32    1
    36     3    33    1
    37     6    34    1
    38    15    35    1
    39    16    36    1
    40    16    37    1
    41    20    38    1
    42    20    39    1
    43    21    40    1
    44    21    41    1
    45    30    42    1
    46    30    43    1
    47    31    44    1
    48    31    45    1
    49    10    46    1
    50    11    47    1
    51    12    48    1
    52    13    49    1
    53    24    50    1
    54    25    51    1
    55    28    52    1
    56    29    53    1
@<TRIPOS>MOLECULE
mol7_1_15
 53 56 0 0 0
SMALL
USER_CHARGES
****
VDW energy = -34.48
@<TRIPOS>ATOM
   1 O1       -2.3975     0.2168    -6.7381  O.2     1  <O>11      -0.2754
   2 C1       -2.2902     1.0382    -5.8398  C.2     1  <O>11       0.2193
   3 C2       -3.4340     1.9380    -5.5120  C.3     1  <O>11       0.0685
   4 C3       -4.5760     1.6381    -6.4141  C.ar    1  <O>11       0.0780
   5 N1       -4.6989     2.3147    -7.6333  N.ar    1  <O>11      -0.1748
   6 N2       -5.7869     2.1281    -8.4155  N.ar    1  <O>11      -0.2425
   7 C4       -6.7517     1.2690    -8.0099  C.ar    1  <O>11       0.2725
   8 O2       -7.8999     1.1955    -8.8210  O.2     1  <O>11      -0.2658
   9 C5       -6.6557     0.4774    -6.8564  C.ar    1  <O>11       0.0496
  10 C6       -7.6347    -0.4619    -6.4600  C.ar    1  <O>11      -0.0487
  11 C7       -7.4938    -1.1959    -5.2818  C.ar    1  <O>11      -0.0610
  12 C8       -6.3784    -0.9988    -4.4739  C.ar    1  <O>11      -0.0611
  13 C9       -5.4068    -0.0693    -4.8444  C.ar    1  <O>11      -0.0521
  14 C10      -5.5292     0.6772    -6.0396  C.ar    1  <O>11       0.0108
  15 N3       -1.1210     1.1320    -5.1350  N.am    1  <O>11      -0.3064
  16 C11      -0.0010     0.2520    -5.4560  C.3     1  <O>11       0.0883
  17 C12       1.1450     0.5540    -4.5500  C.2     1  <O>11       0.2328
  18 O3        1.5672    -0.3063    -3.7924  O.2     1  <O>11      -0.2739
  19 N4        1.7182     1.7853    -4.5665  N.am    1  <O>11      -0.2972
  20 C13       1.3094     2.9033    -5.4227  C.3     1  <O>11       0.0305
  21 C14       2.4934     3.3845    -6.2895  C.3     1  <O>11       0.0280
  22 N5        3.7075     3.7075    -5.4129  N.pl3   1  <O>11      -0.3269
  23 C15       4.3778     4.9801    -5.4862  C.ar    1  <O>11       0.0299
  24 C16       5.4892     5.2444    -4.6667  C.ar    1  <O>11      -0.0379
  25 C17       6.1323     6.4855    -4.7295  C.ar    1  <O>11      -0.0247
  26 C18       5.6775     7.4699    -5.6113  C.ar    1  <O>11       0.1235
  27 F1        6.3018     8.6881    -5.6762  F       1  <O>11      -0.2055
  28 C19       4.5740     7.2036    -6.4308  C.ar    1  <O>11      -0.0247
  29 C20       3.9262     5.9686    -6.3769  C.ar    1  <O>11      -0.0379
  30 C21       4.0759     2.5342    -4.4989  C.3     1  <O>11       0.0280
  31 C22       2.8435     2.1051    -3.6886  C.3     1  <O>11       0.0305
  32 H1       -3.1290     2.9760    -5.6449  H       1  <O>11       0.0423
  33 H2       -3.7371     1.7779    -4.4770  H       1  <O>11       0.0423
  34 H3       -5.8768     2.6243    -9.2913  H       1  <O>11       0.1921
  35 H4       -1.0310     1.8180    -4.3850  H       1  <O>11       0.1492
  36 H5       -0.3060    -0.7860    -5.3230  H       1  <O>11       0.0558
  37 H6        0.3010     0.4120    -6.4910  H       1  <O>11       0.0558
  38 H7        0.4977     2.5783    -6.0731  H       1  <O>11       0.0480
  39 H8        0.9659     3.7269    -4.7979  H       1  <O>11       0.0480
  40 H9        2.7612     2.6001    -6.9989  H       1  <O>11       0.0479
  41 H10       2.1980     4.2813    -6.8354  H       1  <O>11       0.0479
  42 H11       4.4205     1.6968    -5.1058  H       1  <O>11       0.0479
  43 H12       4.8693     2.8415    -3.8182  H       1  <O>11       0.0479
  44 H13       3.0949     1.2250    -3.0977  H       1  <O>11       0.0480
  45 H14       2.5544     2.9189    -3.0224  H       1  <O>11       0.0480
  46 H15      -8.4675    -0.6073    -7.0519  H       1  <O>11       0.0625
  47 H16      -8.2146    -1.8828    -5.0105  H       1  <O>11       0.0618
  48 H17      -6.2701    -1.5396    -3.6016  H       1  <O>11       0.0618
  49 H18      -4.5854     0.0761    -4.2368  H       1  <O>11       0.0624
  50 H19       5.8320     4.5201    -4.0163  H       1  <O>11       0.0637
  51 H20       6.9452     6.6747    -4.1226  H       1  <O>11       0.0647
  52 H21       4.2356     7.9290    -7.0823  H       1  <O>11       0.0647
  53 H22       3.1174     5.7817    -6.9900  H       1  <O>11       0.0637
@<TRIPOS>BOND
     1     1     2    2
     2     2     3    1
     3     3     4    1
     4     4     5   ar
     5     5     6   ar
     6     6     7   ar
     7     7     8    2
     8     7     9   ar
     9     9    10   ar
    10    10    11   ar
    11    11    12   ar
    12    12    13   ar
    13    13    14   ar
    14     4    14   ar
    15     9    14   ar
    16     2    15   am
    17    15    16    1
    18    16    17    1
    19    17    18    2
    20    17    19   am
    21    19    20    1
    22    20    21    1
    23    21    22    1
    24    22    23    1
    25    23    24   ar
    26    24    25   ar
    27    25    26   ar
    28    26    27    1
    29    26    28   ar
    30    28    29   ar
    31    23    29   ar
    32    22    30    1
    33    30    31    1
    34    19    31    1
    35     3    32    1
    36     3    33    1
    37     6    34    1
    38    15    35    1
    39    16    36    1
    40    16    37    1
    41    20    38    1
    42    20    39    1
    43    21    40    1
    44    21    41    1
    45    30    42    1
    46    30    43    1
    47    31    44    1
    48    31    45    1
    49    10    46    1
    50    11    47    1
    51    12    48    1
    52    13    49    1
    53    24    50    1
    54    25    51    1
    55    28    52    1
    56    29    53    1
@<TRIPOS>MOLECULE
mol7_1_16
 53 56 0 0 0
SMALL
USER_CHARGES
****
VDW energy = -32.79
@<TRIPOS>ATOM
   1 O1       -2.3975     0.2168    -6.7381  O.2     1  <O>11      -0.2754
   2 C1       -2.2902     1.0382    -5.8398  C.2     1  <O>11       0.2193
   3 C2       -3.4340     1.9380    -5.5120  C.3     1  <O>11       0.0685
   4 C3       -3.5344     2.0965    -4.0380  C.ar    1  <O>11       0.0780
   5 N1       -3.4184     3.3675    -3.4631  N.ar    1  <O>11      -0.1748
   6 N2       -3.4033     3.5139    -2.1182  N.ar    1  <O>11      -0.2425
   7 C4       -3.5136     2.4160    -1.3336  C.ar    1  <O>11       0.2725
   8 O2       -3.3924     2.6277     0.0529  O.2     1  <O>11      -0.2658
   9 C5       -3.7367     1.1232    -1.8289  C.ar    1  <O>11       0.0496
  10 C6       -3.9092    -0.0167    -1.0111  C.ar    1  <O>11      -0.0487
  11 C7       -4.0957    -1.2820    -1.5687  C.ar    1  <O>11      -0.0610
  12 C8       -4.1040    -1.4336    -2.9517  C.ar    1  <O>11      -0.0611
  13 C9       -3.9260    -0.3215    -3.7743  C.ar    1  <O>11      -0.0521
  14 C10      -3.7442     0.9699    -3.2263  C.ar    1  <O>11       0.0108
  15 N3       -1.1210     1.1320    -5.1350  N.am    1  <O>11      -0.3064
  16 C11      -0.0010     0.2520    -5.4560  C.3     1  <O>11       0.0883
  17 C12       1.1450     0.5540    -4.5500  C.2     1  <O>11       0.2328
  18 O3        1.0410     1.4310    -3.7060  O.2     1  <O>11      -0.2739
  19 N4        2.3040    -0.1450    -4.6640  N.am    1  <O>11      -0.2972
  20 C13       3.5010     0.0510    -3.8400  C.3     1  <O>11       0.0305
  21 C14       4.7220     0.3810    -4.7260  C.3     1  <O>11       0.0280
  22 N5        4.9040    -0.6840    -5.8120  N.pl3   1  <O>11      -0.3269
  23 C15       6.1570    -1.3690    -5.9990  C.ar    1  <O>11       0.0299
  24 C16       6.2900    -2.3420    -7.0050  C.ar    1  <O>11      -0.0379
  25 C17       7.5040    -3.0160    -7.1780  C.ar    1  <O>11      -0.0247
  26 C18       8.5950    -2.7230    -6.3550  C.ar    1  <O>11       0.1235
  27 F1        9.7860    -3.3810    -6.5180  F       1  <O>11      -0.2055
  28 C19       8.4630    -1.7500    -5.3570  C.ar    1  <O>11      -0.0247
  29 C20       7.2570    -1.0710    -5.1770  C.ar    1  <O>11      -0.0379
  30 C21       3.6200    -0.8950    -6.6210  C.3     1  <O>11       0.0280
  31 C22       2.4540    -1.1980    -5.6680  C.3     1  <O>11       0.0305
  32 H1       -4.3581     1.5045    -5.8945  H       1  <O>11       0.0423
  33 H2       -3.2724     2.9132    -5.9719  H       1  <O>11       0.0423
  34 H3       -3.3110     4.4320    -1.7059  H       1  <O>11       0.1921
  35 H4       -1.0310     1.8180    -4.3850  H       1  <O>11       0.1492
  36 H5       -0.3060    -0.7860    -5.3230  H       1  <O>11       0.0558
  37 H6        0.3010     0.4120    -6.4910  H       1  <O>11       0.0558
  38 H7        3.3280     0.8740    -3.1470  H       1  <O>11       0.0480
  39 H8        3.7030    -0.8600    -3.2780  H       1  <O>11       0.0480
  40 H9        4.5710     1.3530    -5.1980  H       1  <O>11       0.0479
  41 H10       5.6180     0.4150    -4.1050  H       1  <O>11       0.0479
  42 H11       3.3980     0.0080    -7.1900  H       1  <O>11       0.0479
  43 H12       3.7570    -1.7320    -7.3050  H       1  <O>11       0.0479
  44 H13       1.5330    -1.2730    -6.2450  H       1  <O>11       0.0480
  45 H14       2.6440    -2.1460    -5.1630  H       1  <O>11       0.0480
  46 H15      -3.8970     0.0888     0.0154  H       1  <O>11       0.0625
  47 H16      -4.2270    -2.1029    -0.9572  H       1  <O>11       0.0618
  48 H17      -4.2417    -2.3677    -3.3683  H       1  <O>11       0.0618
  49 H18      -3.9268    -0.4426    -4.7991  H       1  <O>11       0.0624
  50 H19       5.4891    -2.5600    -7.6183  H       1  <O>11       0.0637
  51 H20       7.5941    -3.7319    -7.9158  H       1  <O>11       0.0647
  52 H21       9.2668    -1.5323    -4.7474  H       1  <O>11       0.0647
  53 H22       7.1733    -0.3516    -4.4418  H       1  <O>11       0.0637
@<TRIPOS>BOND
     1     1     2    2
     2     2     3    1
     3     3     4    1
     4     4     5   ar
     5     5     6   ar
     6     6     7   ar
     7     7     8    2
     8     7     9   ar
     9     9    10   ar
    10    10    11   ar
    11    11    12   ar
    12    12    13   ar
    13    13    14   ar
    14     4    14   ar
    15     9    14   ar
    16     2    15   am
    17    15    16    1
    18    16    17    1
    19    17    18    2
    20    17    19   am
    21    19    20    1
    22    20    21    1
    23    21    22    1
    24    22    23    1
    25    23    24   ar
    26    24    25   ar
    27    25    26   ar
    28    26    27    1
    29    26    28   ar
    30    28    29   ar
    31    23    29   ar
    32    22    30    1
    33    30    31    1
    34    19    31    1
    35     3    32    1
    36     3    33    1
    37     6    34    1
    38    15    35    1
    39    16    36    1
    40    16    37    1
    41    20    38    1
    42    20    39    1
    43    21    40    1
    44    21    41    1
    45    30    42    1
    46    30    43    1
    47    31    44    1
    48    31    45    1
    49    10    46    1
    50    11    47    1
    51    12    48    1
    52    13    49    1
    53    24    50    1
    54    25    51    1
    55    28    52    1
    56    29    53    1
@<TRIPOS>MOLECULE
mol7_1_17
 53 56 0 0 0
SMALL
USER_CHARGES
****
VDW energy = -32.23
@<TRIPOS>ATOM
   1 O1       -2.3975     0.2168    -6.7381  O.2     1  <O>11      -0.2754
   2 C1       -2.2902     1.0382    -5.8398  C.2     1  <O>11       0.2193
   3 C2       -3.4340     1.9380    -5.5120  C.3     1  <O>11       0.0685
   4 C3       -4.5760     1.6380    -6.4140  C.ar    1  <O>11       0.0780
   5 N1       -5.7991     1.2203    -5.8765  N.ar    1  <O>11      -0.1748
   6 N2       -6.8135     0.8442    -6.6889  N.ar    1  <O>11      -0.2425
   7 C4       -6.6353     0.8875    -8.0304  C.ar    1  <O>11       0.2725
   8 O2       -7.6935     0.3907    -8.8147  O.2     1  <O>11      -0.2658
   9 C5       -5.4808     1.3902    -8.6474  C.ar    1  <O>11       0.0496
  10 C6       -5.3137     1.4900   -10.0475  C.ar    1  <O>11      -0.0487
  11 C7       -4.1254     1.9700   -10.5990  C.ar    1  <O>11      -0.0610
  12 C8       -3.0796     2.3501    -9.7636  C.ar    1  <O>11      -0.0611
  13 C9       -3.2232     2.2498    -8.3800  C.ar    1  <O>11      -0.0521
  14 C10      -4.4238     1.7734    -7.8035  C.ar    1  <O>11       0.0108
  15 N3       -1.1210     1.1320    -5.1350  N.am    1  <O>11      -0.3064
  16 C11      -0.0010     0.2520    -5.4560  C.3     1  <O>11       0.0883
  17 C12       1.1450     0.5540    -4.5500  C.2     1  <O>11       0.2328
  18 O3        1.0410     1.4310    -3.7060  O.2     1  <O>11      -0.2739
  19 N4        2.3040    -0.1450    -4.6640  N.am    1  <O>11      -0.2972
  20 C13       2.5599    -1.2174    -5.6308  C.3     1  <O>11       0.0305
  21 C14       2.9541    -2.5214    -4.9036  C.3     1  <O>11       0.0280
  22 N5        4.1281    -2.2741    -3.9511  N.pl3   1  <O>11      -0.3269
  23 C15       5.3281    -3.0685    -4.0053  C.ar    1  <O>11       0.0299
  24 C16       6.3875    -2.8145    -3.1167  C.ar    1  <O>11      -0.0379
  25 C17       7.5581    -3.5787    -3.1782  C.ar    1  <O>11      -0.0247
  26 C18       7.6806    -4.6036    -4.1205  C.ar    1  <O>11       0.1235
  27 F1        8.8252    -5.3543    -4.1872  F       1  <O>11      -0.2055
  28 C19       6.6228    -4.8592    -5.0014  C.ar    1  <O>11      -0.0247
  29 C20       5.4505    -4.1038    -4.9475  C.ar    1  <O>11      -0.0379
  30 C21       3.8435    -1.1169    -2.9879  C.3     1  <O>11       0.0280
  31 C22       3.4411     0.1319    -3.7867  C.3     1  <O>11       0.0305
  32 H1       -3.1290     2.9760    -5.6450  H       1  <O>11       0.0423
  33 H2       -3.7370     1.7780    -4.4770  H       1  <O>11       0.0423
  34 H3       -7.6926     0.5351    -6.2978  H       1  <O>11       0.1921
  35 H4       -1.0310     1.8180    -4.3850  H       1  <O>11       0.1492
  36 H5       -0.3060    -0.7860    -5.3230  H       1  <O>11       0.0558
  37 H6        0.3010     0.4120    -6.4910  H       1  <O>11       0.0558
  38 H7        1.6589    -1.3927    -6.2181  H       1  <O>11       0.0480
  39 H8        3.3716    -0.9178    -6.2926  H       1  <O>11       0.0480
  40 H9        2.0992    -2.8867    -4.3326  H       1  <O>11       0.0479
  41 H10       3.2440    -3.2707    -5.6412  H       1  <O>11       0.0479
  42 H11       3.0307    -1.3958    -2.3170  H       1  <O>11       0.0479
  43 H12       4.7391    -0.9026    -2.4055  H       1  <O>11       0.0479
  44 H13       3.1695     0.9262    -3.0924  H       1  <O>11       0.0480
  45 H14       4.2880     0.4544    -4.3938  H       1  <O>11       0.0480
  46 H15      -6.0834     1.2030   -10.6721  H       1  <O>11       0.0625
  47 H16      -4.0224     2.0429   -11.6232  H       1  <O>11       0.0618
  48 H17      -2.1990     2.7059   -10.1673  H       1  <O>11       0.0618
  49 H18      -2.4409     2.5275    -7.7669  H       1  <O>11       0.0624
  50 H19       6.3014    -2.0615    -2.4162  H       1  <O>11       0.0637
  51 H20       8.3336    -3.3848    -2.5256  H       1  <O>11       0.0647
  52 H21       6.7110    -5.6149    -5.6987  H       1  <O>11       0.0647
  53 H22       4.6751    -4.3052    -5.5981  H       1  <O>11       0.0637
@<TRIPOS>BOND
     1     1     2    2
     2     2     3    1
     3     3     4    1
     4     4     5   ar
     5     5     6   ar
     6     6     7   ar
     7     7     8    2
     8     7     9   ar
     9     9    10   ar
    10    10    11   ar
    11    11    12   ar
    12    12    13   ar
    13    13    14   ar
    14     4    14   ar
    15     9    14   ar
    16     2    15   am
    17    15    16    1
    18    16    17    1
    19    17    18    2
    20    17    19   am
    21    19    20    1
    22    20    21    1
    23    21    22    1
    24    22    23    1
    25    23    24   ar
    26    24    25   ar
    27    25    26   ar
    28    26    27    1
    29    26    28   ar
    30    28    29   ar
    31    23    29   ar
    32    22    30    1
    33    30    31    1
    34    19    31    1
    35     3    32    1
    36     3    33    1
    37     6    34    1
    38    15    35    1
    39    16    36    1
    40    16    37    1
    41    20    38    1
    42    20    39    1
    43    21    40    1
    44    21    41    1
    45    30    42    1
    46    30    43    1
    47    31    44    1
    48    31    45    1
    49    10    46    1
    50    11    47    1
    51    12    48    1
    52    13    49    1
    53    24    50    1
    54    25    51    1
    55    28    52    1
    56    29    53    1
@<TRIPOS>MOLECULE
mol7_1_18
 53 56 0 0 0
SMALL
USER_CHARGES
****
VDW energy = -31.72
@<TRIPOS>ATOM
   1 O1       -2.3975     0.2168    -6.7381  O.2     1  <O>11      -0.2754
   2 C1       -2.2902     1.0382    -5.8398  C.2     1  <O>11       0.2193
   3 C2       -3.4340     1.9380    -5.5120  C.3     1  <O>11       0.0685
   4 C3       -3.5344     2.0965    -4.0380  C.ar    1  <O>11       0.0780
   5 N1       -3.4184     3.3675    -3.4631  N.ar    1  <O>11      -0.1748
   6 N2       -3.4033     3.5139    -2.1182  N.ar    1  <O>11      -0.2425
   7 C4       -3.5136     2.4160    -1.3336  C.ar    1  <O>11       0.2725
   8 O2       -3.3924     2.6277     0.0529  O.2     1  <O>11      -0.2658
   9 C5       -3.7367     1.1232    -1.8289  C.ar    1  <O>11       0.0496
  10 C6       -3.9092    -0.0167    -1.0111  C.ar    1  <O>11      -0.0487
  11 C7       -4.0957    -1.2820    -1.5687  C.ar    1  <O>11      -0.0610
  12 C8       -4.1040    -1.4336    -2.9517  C.ar    1  <O>11      -0.0611
  13 C9       -3.9260    -0.3215    -3.7743  C.ar    1  <O>11      -0.0521
  14 C10      -3.7442     0.9699    -3.2263  C.ar    1  <O>11       0.0108
  15 N3       -1.1210     1.1320    -5.1350  N.am    1  <O>11      -0.3064
  16 C11      -0.0010     0.2520    -5.4560  C.3     1  <O>11       0.0883
  17 C12       1.1450     0.5540    -4.5500  C.2     1  <O>11       0.2328
  18 O3        1.5672    -0.3063    -3.7924  O.2     1  <O>11      -0.2739
  19 N4        1.7182     1.7853    -4.5665  N.am    1  <O>11      -0.2972
  20 C13       1.3094     2.9033    -5.4227  C.3     1  <O>11       0.0305
  21 C14       2.4934     3.3845    -6.2895  C.3     1  <O>11       0.0280
  22 N5        3.7075     3.7075    -5.4129  N.pl3   1  <O>11      -0.3269
  23 C15       4.3778     4.9801    -5.4862  C.ar    1  <O>11       0.0299
  24 C16       5.4892     5.2444    -4.6667  C.ar    1  <O>11      -0.0379
  25 C17       6.1323     6.4855    -4.7295  C.ar    1  <O>11      -0.0247
  26 C18       5.6775     7.4699    -5.6113  C.ar    1  <O>11       0.1235
  27 F1        6.3018     8.6881    -5.6762  F       1  <O>11      -0.2055
  28 C19       4.5740     7.2036    -6.4308  C.ar    1  <O>11      -0.0247
  29 C20       3.9262     5.9686    -6.3769  C.ar    1  <O>11      -0.0379
  30 C21       4.0759     2.5342    -4.4989  C.3     1  <O>11       0.0280
  31 C22       2.8435     2.1051    -3.6886  C.3     1  <O>11       0.0305
  32 H1       -4.3581     1.5045    -5.8945  H       1  <O>11       0.0423
  33 H2       -3.2724     2.9132    -5.9719  H       1  <O>11       0.0423
  34 H3       -3.3110     4.4320    -1.7059  H       1  <O>11       0.1921
  35 H4       -1.0310     1.8180    -4.3850  H       1  <O>11       0.1492
  36 H5       -0.3060    -0.7860    -5.3230  H       1  <O>11       0.0558
  37 H6        0.3010     0.4120    -6.4910  H       1  <O>11       0.0558
  38 H7        0.4977     2.5783    -6.0731  H       1  <O>11       0.0480
  39 H8        0.9659     3.7269    -4.7979  H       1  <O>11       0.0480
  40 H9        2.7612     2.6001    -6.9989  H       1  <O>11       0.0479
  41 H10       2.1980     4.2813    -6.8354  H       1  <O>11       0.0479
  42 H11       4.4205     1.6968    -5.1058  H       1  <O>11       0.0479
  43 H12       4.8693     2.8415    -3.8182  H       1  <O>11       0.0479
  44 H13       3.0949     1.2250    -3.0977  H       1  <O>11       0.0480
  45 H14       2.5544     2.9189    -3.0224  H       1  <O>11       0.0480
  46 H15      -3.8970     0.0888     0.0154  H       1  <O>11       0.0625
  47 H16      -4.2270    -2.1029    -0.9572  H       1  <O>11       0.0618
  48 H17      -4.2417    -2.3677    -3.3683  H       1  <O>11       0.0618
  49 H18      -3.9268    -0.4426    -4.7991  H       1  <O>11       0.0624
  50 H19       5.8320     4.5201    -4.0163  H       1  <O>11       0.0637
  51 H20       6.9452     6.6747    -4.1226  H       1  <O>11       0.0647
  52 H21       4.2356     7.9290    -7.0823  H       1  <O>11       0.0647
  53 H22       3.1174     5.7817    -6.9900  H       1  <O>11       0.0637
@<TRIPOS>BOND
     1     1     2    2
     2     2     3    1
     3     3     4    1
     4     4     5   ar
     5     5     6   ar
     6     6     7   ar
     7     7     8    2
     8     7     9   ar
     9     9    10   ar
    10    10    11   ar
    11    11    12   ar
    12    12    13   ar
    13    13    14   ar
    14     4    14   ar
    15     9    14   ar
    16     2    15   am
    17    15    16    1
    18    16    17    1
    19    17    18    2
    20    17    19   am
    21    19    20    1
    22    20    21    1
    23    21    22    1
    24    22    23    1
    25    23    24   ar
    26    24    25   ar
    27    25    26   ar
    28    26    27    1
    29    26    28   ar
    30    28    29   ar
    31    23    29   ar
    32    22    30    1
    33    30    31    1
    34    19    31    1
    35     3    32    1
    36     3    33    1
    37     6    34    1
    38    15    35    1
    39    16    36    1
    40    16    37    1
    41    20    38    1
    42    20    39    1
    43    21    40    1
    44    21    41    1
    45    30    42    1
    46    30    43    1
    47    31    44    1
    48    31    45    1
    49    10    46    1
    50    11    47    1
    51    12    48    1
    52    13    49    1
    53    24    50    1
    54    25    51    1
    55    28    52    1
    56    29    53    1
@<TRIPOS>MOLECULE
mol7_1_19
 53 56 0 0 0
SMALL
USER_CHARGES
****
VDW energy = -30.63
@<TRIPOS>ATOM
   1 O1       -2.3975     0.2168    -6.7381  O.2     1  <O>11      -0.2754
   2 C1       -2.2902     1.0382    -5.8398  C.2     1  <O>11       0.2193
   3 C2       -3.4340     1.9380    -5.5120  C.3     1  <O>11       0.0685
   4 C3       -3.5344     2.0965    -4.0380  C.ar    1  <O>11       0.0780
   5 N1       -3.4184     3.3675    -3.4631  N.ar    1  <O>11      -0.1748
   6 N2       -3.4033     3.5139    -2.1182  N.ar    1  <O>11      -0.2425
   7 C4       -3.5136     2.4160    -1.3336  C.ar    1  <O>11       0.2725
   8 O2       -3.3924     2.6277     0.0529  O.2     1  <O>11      -0.2658
   9 C5       -3.7367     1.1232    -1.8289  C.ar    1  <O>11       0.0496
  10 C6       -3.9092    -0.0167    -1.0111  C.ar    1  <O>11      -0.0487
  11 C7       -4.0957    -1.2820    -1.5687  C.ar    1  <O>11      -0.0610
  12 C8       -4.1040    -1.4336    -2.9517  C.ar    1  <O>11      -0.0611
  13 C9       -3.9260    -0.3215    -3.7743  C.ar    1  <O>11      -0.0521
  14 C10      -3.7442     0.9699    -3.2263  C.ar    1  <O>11       0.0108
  15 N3       -1.1210     1.1320    -5.1350  N.am    1  <O>11      -0.3064
  16 C11      -0.0010     0.2520    -5.4560  C.3     1  <O>11       0.0883
  17 C12       1.1450     0.5540    -4.5500  C.2     1  <O>11       0.2328
  18 O3        2.2037     0.9473    -5.0155  O.2     1  <O>11      -0.2739
  19 N4        1.0119     0.3908    -3.2082  N.am    1  <O>11      -0.2972
  20 C13       2.0553     0.6506    -2.2112  C.3     1  <O>11       0.0305
  21 C14       2.3398    -0.6190    -1.3795  C.3     1  <O>11       0.0280
  22 N5        1.0451    -1.1660    -0.7702  N.pl3   1  <O>11      -0.3269
  23 C15       0.9227    -1.4264     0.6410  C.ar    1  <O>11       0.0299
  24 C16      -0.2804    -1.9279     1.1678  C.ar    1  <O>11      -0.0379
  25 C17      -0.4027    -2.1689     2.5408  C.ar    1  <O>11      -0.0247
  26 C18       0.6724    -1.9175     3.3978  C.ar    1  <O>11       0.1235
  27 F1        0.5583    -2.1495     4.7436  F       1  <O>11      -0.2055
  28 C19       1.8718    -1.4232     2.8713  C.ar    1  <O>11      -0.0247
  29 C20       2.0047    -1.1808     1.5033  C.ar    1  <O>11      -0.0379
  30 C21      -0.0366    -1.3803    -1.8340  C.3     1  <O>11       0.0280
  31 C22      -0.2446    -0.0811    -2.6268  C.3     1  <O>11       0.0305
  32 H1       -4.3581     1.5045    -5.8945  H       1  <O>11       0.0423
  33 H2       -3.2724     2.9132    -5.9719  H       1  <O>11       0.0423
  34 H3       -3.3110     4.4320    -1.7059  H       1  <O>11       0.1921
  35 H4       -1.0310     1.8180    -4.3850  H       1  <O>11       0.1492
  36 H5       -0.3060    -0.7860    -5.3230  H       1  <O>11       0.0558
  37 H6        0.3010     0.4120    -6.4910  H       1  <O>11       0.0558
  38 H7        2.9685     0.9579    -2.7203  H       1  <O>11       0.0480
  39 H8        1.7254     1.4474    -1.5457  H       1  <O>11       0.0480
  40 H9        2.7823    -1.3794    -2.0247  H       1  <O>11       0.0479
  41 H10       3.0369    -0.3743    -0.5771  H       1  <O>11       0.0479
  42 H11       0.2757    -2.1736    -2.5133  H       1  <O>11       0.0479
  43 H12      -0.9702    -1.6630    -1.3485  H       1  <O>11       0.0479
  44 H13      -0.9605    -0.2635    -3.4275  H       1  <O>11       0.0480
  45 H14      -0.6365     0.6857    -1.9574  H       1  <O>11       0.0480
  46 H15      -3.8970     0.0888     0.0154  H       1  <O>11       0.0625
  47 H16      -4.2270    -2.1029    -0.9572  H       1  <O>11       0.0618
  48 H17      -4.2417    -2.3677    -3.3683  H       1  <O>11       0.0618
  49 H18      -3.9268    -0.4426    -4.7991  H       1  <O>11       0.0624
  50 H19      -1.0764    -2.1190     0.5395  H       1  <O>11       0.0637
  51 H20      -1.2897    -2.5334     2.9218  H       1  <O>11       0.0647
  52 H21       2.6669    -1.2360     3.5020  H       1  <O>11       0.0647
  53 H22       2.8956    -0.8218     1.1258  H       1  <O>11       0.0637
@<TRIPOS>BOND
     1     1     2    2
     2     2     3    1
     3     3     4    1
     4     4     5   ar
     5     5     6   ar
     6     6     7   ar
     7     7     8    2
     8     7     9   ar
     9     9    10   ar
    10    10    11   ar
    11    11    12   ar
    12    12    13   ar
    13    13    14   ar
    14     4    14   ar
    15     9    14   ar
    16     2    15   am
    17    15    16    1
    18    16    17    1
    19    17    18    2
    20    17    19   am
    21    19    20    1
    22    20    21    1
    23    21    22    1
    24    22    23    1
    25    23    24   ar
    26    24    25   ar
    27    25    26   ar
    28    26    27    1
    29    26    28   ar
    30    28    29   ar
    31    23    29   ar
    32    22    30    1
    33    30    31    1
    34    19    31    1
    35     3    32    1
    36     3    33    1
    37     6    34    1
    38    15    35    1
    39    16    36    1
    40    16    37    1
    41    20    38    1
    42    20    39    1
    43    21    40    1
    44    21    41    1
    45    30    42    1
    46    30    43    1
    47    31    44    1
    48    31    45    1
    49    10    46    1
    50    11    47    1
    51    12    48    1
    52    13    49    1
    53    24    50    1
    54    25    51    1
    55    28    52    1
    56    29    53    1
@<TRIPOS>MOLECULE
mol7_1_20
 53 56 0 0 0
SMALL
USER_CHARGES
****
VDW energy = -30.19
@<TRIPOS>ATOM
   1 O1       -2.3975     0.2168    -6.7381  O.2     1  <O>11      -0.2754
   2 C1       -2.2902     1.0382    -5.8398  C.2     1  <O>11       0.2193
   3 C2       -3.4340     1.9380    -5.5120  C.3     1  <O>11       0.0685
   4 C3       -4.5760     1.6380    -6.4140  C.ar    1  <O>11       0.0780
   5 N1       -5.7991     1.2203    -5.8765  N.ar    1  <O>11      -0.1748
   6 N2       -6.8135     0.8442    -6.6889  N.ar    1  <O>11      -0.2425
   7 C4       -6.6353     0.8875    -8.0304  C.ar    1  <O>11       0.2725
   8 O2       -7.6935     0.3907    -8.8147  O.2     1  <O>11      -0.2658
   9 C5       -5.4808     1.3902    -8.6474  C.ar    1  <O>11       0.0496
  10 C6       -5.3137     1.4900   -10.0475  C.ar    1  <O>11      -0.0487
  11 C7       -4.1254     1.9700   -10.5990  C.ar    1  <O>11      -0.0610
  12 C8       -3.0796     2.3501    -9.7636  C.ar    1  <O>11      -0.0611
  13 C9       -3.2232     2.2498    -8.3800  C.ar    1  <O>11      -0.0521
  14 C10      -4.4238     1.7734    -7.8035  C.ar    1  <O>11       0.0108
  15 N3       -1.1210     1.1320    -5.1350  N.am    1  <O>11      -0.3064
  16 C11      -0.0010     0.2520    -5.4560  C.3     1  <O>11       0.0883
  17 C12       1.1450     0.5540    -4.5500  C.2     1  <O>11       0.2328
  18 O3        1.0410     1.4310    -3.7060  O.2     1  <O>11      -0.2739
  19 N4        2.3040    -0.1450    -4.6640  N.am    1  <O>11      -0.2972
  20 C13       3.5010     0.0510    -3.8400  C.3     1  <O>11       0.0305
  21 C14       4.7220     0.3810    -4.7260  C.3     1  <O>11       0.0280
  22 N5        4.9040    -0.6840    -5.8120  N.pl3   1  <O>11      -0.3269
  23 C15       6.1570    -1.3690    -5.9990  C.ar    1  <O>11       0.0299
  24 C16       6.2900    -2.3420    -7.0050  C.ar    1  <O>11      -0.0379
  25 C17       7.5040    -3.0160    -7.1780  C.ar    1  <O>11      -0.0247
  26 C18       8.5950    -2.7230    -6.3550  C.ar    1  <O>11       0.1235
  27 F1        9.7860    -3.3810    -6.5180  F       1  <O>11      -0.2055
  28 C19       8.4630    -1.7500    -5.3570  C.ar    1  <O>11      -0.0247
  29 C20       7.2570    -1.0710    -5.1770  C.ar    1  <O>11      -0.0379
  30 C21       3.6200    -0.8950    -6.6210  C.3     1  <O>11       0.0280
  31 C22       2.4540    -1.1980    -5.6680  C.3     1  <O>11       0.0305
  32 H1       -3.1290     2.9760    -5.6450  H       1  <O>11       0.0423
  33 H2       -3.7370     1.7780    -4.4770  H       1  <O>11       0.0423
  34 H3       -7.6926     0.5351    -6.2978  H       1  <O>11       0.1921
  35 H4       -1.0310     1.8180    -4.3850  H       1  <O>11       0.1492
  36 H5       -0.3060    -0.7860    -5.3230  H       1  <O>11       0.0558
  37 H6        0.3010     0.4120    -6.4910  H       1  <O>11       0.0558
  38 H7        3.3280     0.8740    -3.1470  H       1  <O>11       0.0480
  39 H8        3.7030    -0.8600    -3.2780  H       1  <O>11       0.0480
  40 H9        4.5710     1.3530    -5.1980  H       1  <O>11       0.0479
  41 H10       5.6180     0.4150    -4.1050  H       1  <O>11       0.0479
  42 H11       3.3980     0.0080    -7.1900  H       1  <O>11       0.0479
  43 H12       3.7570    -1.7320    -7.3050  H       1  <O>11       0.0479
  44 H13       1.5330    -1.2730    -6.2450  H       1  <O>11       0.0480
  45 H14       2.6440    -2.1460    -5.1630  H       1  <O>11       0.0480
  46 H15      -6.0834     1.2030   -10.6721  H       1  <O>11       0.0625
  47 H16      -4.0224     2.0429   -11.6232  H       1  <O>11       0.0618
  48 H17      -2.1990     2.7059   -10.1673  H       1  <O>11       0.0618
  49 H18      -2.4409     2.5275    -7.7669  H       1  <O>11       0.0624
  50 H19       5.4891    -2.5600    -7.6183  H       1  <O>11       0.0637
  51 H20       7.5941    -3.7319    -7.9158  H       1  <O>11       0.0647
  52 H21       9.2668    -1.5323    -4.7474  H       1  <O>11       0.0647
  53 H22       7.1733    -0.3516    -4.4418  H       1  <O>11       0.0637
@<TRIPOS>BOND
     1     1     2    2
     2     2     3    1
     3     3     4    1
     4     4     5   ar
     5     5     6   ar
     6     6     7   ar
     7     7     8    2
     8     7     9   ar
     9     9    10   ar
    10    10    11   ar
    11    11    12   ar
    12    12    13   ar
    13    13    14   ar
    14     4    14   ar
    15     9    14   ar
    16     2    15   am
    17    15    16    1
    18    16    17    1
    19    17    18    2
    20    17    19   am
    21    19    20    1
    22    20    21    1
    23    21    22    1
    24    22    23    1
    25    23    24   ar
    26    24    25   ar
    27    25    26   ar
    28    26    27    1
    29    26    28   ar
    30    28    29   ar
    31    23    29   ar
    32    22    30    1
    33    30    31    1
    34    19    31    1
    35     3    32    1
    36     3    33    1
    37     6    34    1
    38    15    35    1
    39    16    36    1
    40    16    37    1
    41    20    38    1
    42    20    39    1
    43    21    40    1
    44    21    41    1
    45    30    42    1
    46    30    43    1
    47    31    44    1
    48    31    45    1
    49    10    46    1
    50    11    47    1
    51    12    48    1
    52    13    49    1
    53    24    50    1
    54    25    51    1
    55    28    52    1
    56    29    53    1
@<TRIPOS>MOLECULE
mol7_1_21
 53 56 0 0 0
SMALL
USER_CHARGES
****
VDW energy = -29.48
@<TRIPOS>ATOM
   1 O1       -2.3975     0.2168    -6.7381  O.2     1  <O>11      -0.2754
   2 C1       -2.2902     1.0382    -5.8398  C.2     1  <O>11       0.2193
   3 C2       -3.4340     1.9380    -5.5120  C.3     1  <O>11       0.0685
   4 C3       -3.5344     2.0965    -4.0380  C.ar    1  <O>11       0.0780
   5 N1       -3.4184     3.3675    -3.4631  N.ar    1  <O>11      -0.1748
   6 N2       -3.4033     3.5139    -2.1182  N.ar    1  <O>11      -0.2425
   7 C4       -3.5136     2.4160    -1.3336  C.ar    1  <O>11       0.2725
   8 O2       -3.3924     2.6277     0.0529  O.2     1  <O>11      -0.2658
   9 C5       -3.7367     1.1232    -1.8289  C.ar    1  <O>11       0.0496
  10 C6       -3.9092    -0.0167    -1.0111  C.ar    1  <O>11      -0.0487
  11 C7       -4.0957    -1.2820    -1.5687  C.ar    1  <O>11      -0.0610
  12 C8       -4.1040    -1.4336    -2.9517  C.ar    1  <O>11      -0.0611
  13 C9       -3.9260    -0.3215    -3.7743  C.ar    1  <O>11      -0.0521
  14 C10      -3.7442     0.9699    -3.2263  C.ar    1  <O>11       0.0108
  15 N3       -1.1210     1.1320    -5.1350  N.am    1  <O>11      -0.3064
  16 C11      -0.0010     0.2520    -5.4560  C.3     1  <O>11       0.0883
  17 C12      -0.1824    -1.0572    -4.7643  C.2     1  <O>11       0.2328
  18 O3       -1.1625    -1.2444    -4.0596  O.2     1  <O>11      -0.2739
  19 N4        0.7423    -2.0403    -4.9169  N.am    1  <O>11      -0.2972
  20 C13       1.9592    -1.9458    -5.7296  C.3     1  <O>11       0.0305
  21 C14       1.9872    -3.0613    -6.7972  C.3     1  <O>11       0.0280
  22 N5        1.8006    -4.4355    -6.1465  N.pl3   1  <O>11      -0.3269
  23 C15       2.7288    -5.5132    -6.3726  C.ar    1  <O>11       0.0299
  24 C16       2.5284    -6.7622    -5.7591  C.ar    1  <O>11      -0.0379
  25 C17       3.4374    -7.8050    -5.9694  C.ar    1  <O>11      -0.0247
  26 C18       4.5487    -7.6140    -6.7953  C.ar    1  <O>11       0.1235
  27 F1        5.4436    -8.6307    -7.0036  F       1  <O>11      -0.2055
  28 C19       4.7443    -6.3714    -7.4100  C.ar    1  <O>11      -0.0247
  29 C20       3.8430    -5.3252    -7.2079  C.ar    1  <O>11      -0.0379
  30 C21       0.5459    -4.4821    -5.2683  C.3     1  <O>11       0.0280
  31 C22       0.5861    -3.3327    -4.2500  C.3     1  <O>11       0.0305
  32 H1       -4.3581     1.5045    -5.8945  H       1  <O>11       0.0423
  33 H2       -3.2724     2.9132    -5.9719  H       1  <O>11       0.0423
  34 H3       -3.3110     4.4320    -1.7059  H       1  <O>11       0.1921
  35 H4       -1.0310     1.8180    -4.3850  H       1  <O>11       0.1492
  36 H5        0.0368     0.0918    -6.5335  H       1  <O>11       0.0558
  37 H6        0.9293     0.7132    -5.1246  H       1  <O>11       0.0558
  38 H7        1.9851    -0.9753    -6.2244  H       1  <O>11       0.0480
  39 H8        2.8307    -2.0471    -5.0840  H       1  <O>11       0.0480
  40 H9        1.1831    -2.8917    -7.5149  H       1  <O>11       0.0479
  41 H10       2.9465    -3.0386    -7.3156  H       1  <O>11       0.0479
  42 H11      -0.3395    -4.3796    -5.8960  H       1  <O>11       0.0479
  43 H12       0.5094    -5.4343    -4.7399  H       1  <O>11       0.0479
  44 H13      -0.3425    -3.3290    -3.6805  H       1  <O>11       0.0480
  45 H14       1.4268    -3.4867    -3.5723  H       1  <O>11       0.0480
  46 H15      -3.8970     0.0888     0.0154  H       1  <O>11       0.0625
  47 H16      -4.2270    -2.1029    -0.9572  H       1  <O>11       0.0618
  48 H17      -4.2417    -2.3677    -3.3683  H       1  <O>11       0.0618
  49 H18      -3.9268    -0.4426    -4.7991  H       1  <O>11       0.0624
  50 H19       1.7076    -6.9105    -5.1513  H       1  <O>11       0.0637
  51 H20       3.2867    -8.7183    -5.5132  H       1  <O>11       0.0647
  52 H21       5.5645    -6.2275    -8.0196  H       1  <O>11       0.0647
  53 H22       3.9944    -4.4154    -7.6710  H       1  <O>11       0.0637
@<TRIPOS>BOND
     1     1     2    2
     2     2     3    1
     3     3     4    1
     4     4     5   ar
     5     5     6   ar
     6     6     7   ar
     7     7     8    2
     8     7     9   ar
     9     9    10   ar
    10    10    11   ar
    11    11    12   ar
    12    12    13   ar
    13    13    14   ar
    14     4    14   ar
    15     9    14   ar
    16     2    15   am
    17    15    16    1
    18    16    17    1
    19    17    18    2
    20    17    19   am
    21    19    20    1
    22    20    21    1
    23    21    22    1
    24    22    23    1
    25    23    24   ar
    26    24    25   ar
    27    25    26   ar
    28    26    27    1
    29    26    28   ar
    30    28    29   ar
    31    23    29   ar
    32    22    30    1
    33    30    31    1
    34    19    31    1
    35     3    32    1
    36     3    33    1
    37     6    34    1
    38    15    35    1
    39    16    36    1
    40    16    37    1
    41    20    38    1
    42    20    39    1
    43    21    40    1
    44    21    41    1
    45    30    42    1
    46    30    43    1
    47    31    44    1
    48    31    45    1
    49    10    46    1
    50    11    47    1
    51    12    48    1
    52    13    49    1
    53    24    50    1
    54    25    51    1
    55    28    52    1
    56    29    53    1
@<TRIPOS>MOLECULE
mol7_1_22
 53 56 0 0 0
SMALL
USER_CHARGES
****
VDW energy = -29.28
@<TRIPOS>ATOM
   1 O1       -2.3975     0.2168    -6.7381  O.2     1  <O>11      -0.2754
   2 C1       -2.2902     1.0382    -5.8398  C.2     1  <O>11       0.2193
   3 C2       -3.4340     1.9380    -5.5120  C.3     1  <O>11       0.0685
   4 C3       -4.5760     1.6381    -6.4141  C.ar    1  <O>11       0.0780
   5 N1       -5.7991     1.2204    -5.8767  N.ar    1  <O>11      -0.1748
   6 N2       -6.8135     0.8443    -6.6891  N.ar    1  <O>11      -0.2425
   7 C4       -6.6352     0.8877    -8.0307  C.ar    1  <O>11       0.2725
   8 O2       -7.6934     0.3910    -8.8150  O.2     1  <O>11      -0.2658
   9 C5       -5.4806     1.3905    -8.6476  C.ar    1  <O>11       0.0496
  10 C6       -5.3134     1.4903   -10.0476  C.ar    1  <O>11      -0.0487
  11 C7       -4.1251     1.9704   -10.5990  C.ar    1  <O>11      -0.0610
  12 C8       -3.0794     2.3504    -9.7636  C.ar    1  <O>11      -0.0611
  13 C9       -3.2230     2.2500    -8.3799  C.ar    1  <O>11      -0.0521
  14 C10      -4.4237     1.7736    -7.8035  C.ar    1  <O>11       0.0108
  15 N3       -1.1210     1.1320    -5.1350  N.am    1  <O>11      -0.3064
  16 C11      -0.0010     0.2520    -5.4560  C.3     1  <O>11       0.0883
  17 C12       1.1450     0.5540    -4.5500  C.2     1  <O>11       0.2328
  18 O3        1.5672    -0.3063    -3.7924  O.2     1  <O>11      -0.2739
  19 N4        1.7182     1.7853    -4.5665  N.am    1  <O>11      -0.2972
  20 C13       1.3094     2.9033    -5.4227  C.3     1  <O>11       0.0305
  21 C14       2.4934     3.3845    -6.2895  C.3     1  <O>11       0.0280
  22 N5        3.7075     3.7075    -5.4129  N.pl3   1  <O>11      -0.3269
  23 C15       4.3778     4.9801    -5.4862  C.ar    1  <O>11       0.0299
  24 C16       5.4892     5.2444    -4.6667  C.ar    1  <O>11      -0.0379
  25 C17       6.1323     6.4855    -4.7295  C.ar    1  <O>11      -0.0247
  26 C18       5.6775     7.4699    -5.6113  C.ar    1  <O>11       0.1235
  27 F1        6.3018     8.6881    -5.6762  F       1  <O>11      -0.2055
  28 C19       4.5740     7.2036    -6.4308  C.ar    1  <O>11      -0.0247
  29 C20       3.9262     5.9686    -6.3769  C.ar    1  <O>11      -0.0379
  30 C21       4.0759     2.5342    -4.4989  C.3     1  <O>11       0.0280
  31 C22       2.8435     2.1051    -3.6886  C.3     1  <O>11       0.0305
  32 H1       -3.1290     2.9760    -5.6449  H       1  <O>11       0.0423
  33 H2       -3.7371     1.7779    -4.4770  H       1  <O>11       0.0423
  34 H3       -7.6926     0.5352    -6.2981  H       1  <O>11       0.1921
  35 H4       -1.0310     1.8180    -4.3850  H       1  <O>11       0.1492
  36 H5       -0.3060    -0.7860    -5.3230  H       1  <O>11       0.0558
  37 H6        0.3010     0.4120    -6.4910  H       1  <O>11       0.0558
  38 H7        0.4977     2.5783    -6.0731  H       1  <O>11       0.0480
  39 H8        0.9659     3.7269    -4.7979  H       1  <O>11       0.0480
  40 H9        2.7612     2.6001    -6.9989  H       1  <O>11       0.0479
  41 H10       2.1980     4.2813    -6.8354  H       1  <O>11       0.0479
  42 H11       4.4205     1.6968    -5.1058  H       1  <O>11       0.0479
  43 H12       4.8693     2.8415    -3.8182  H       1  <O>11       0.0479
  44 H13       3.0949     1.2250    -3.0977  H       1  <O>11       0.0480
  45 H14       2.5544     2.9189    -3.0224  H       1  <O>11       0.0480
  46 H15      -6.0831     1.2034   -10.6723  H       1  <O>11       0.0625
  47 H16      -4.0220     2.0434   -11.6233  H       1  <O>11       0.0618
  48 H17      -2.1987     2.7062   -10.1672  H       1  <O>11       0.0618
  49 H18      -2.4407     2.5276    -7.7668  H       1  <O>11       0.0624
  50 H19       5.8320     4.5201    -4.0163  H       1  <O>11       0.0637
  51 H20       6.9452     6.6747    -4.1226  H       1  <O>11       0.0647
  52 H21       4.2356     7.9290    -7.0823  H       1  <O>11       0.0647
  53 H22       3.1174     5.7817    -6.9900  H       1  <O>11       0.0637
@<TRIPOS>BOND
     1     1     2    2
     2     2     3    1
     3     3     4    1
     4     4     5   ar
     5     5     6   ar
     6     6     7   ar
     7     7     8    2
     8     7     9   ar
     9     9    10   ar
    10    10    11   ar
    11    11    12   ar
    12    12    13   ar
    13    13    14   ar
    14     4    14   ar
    15     9    14   ar
    16     2    15   am
    17    15    16    1
    18    16    17    1
    19    17    18    2
    20    17    19   am
    21    19    20    1
    22    20    21    1
    23    21    22    1
    24    22    23    1
    25    23    24   ar
    26    24    25   ar
    27    25    26   ar
    28    26    27    1
    29    26    28   ar
    30    28    29   ar
    31    23    29   ar
    32    22    30    1
    33    30    31    1
    34    19    31    1
    35     3    32    1
    36     3    33    1
    37     6    34    1
    38    15    35    1
    39    16    36    1
    40    16    37    1
    41    20    38    1
    42    20    39    1
    43    21    40    1
    44    21    41    1
    45    30    42    1
    46    30    43    1
    47    31    44    1
    48    31    45    1
    49    10    46    1
    50    11    47    1
    51    12    48    1
    52    13    49    1
    53    24    50    1
    54    25    51    1
    55    28    52    1
    56    29    53    1
@<TRIPOS>MOLECULE
mol7_1_23
 53 56 0 0 0
SMALL
USER_CHARGES
****
VDW energy = -27.93
@<TRIPOS>ATOM
   1 O1       -2.3975     0.2168    -6.7381  O.2     1  <O>11      -0.2754
   2 C1       -2.2902     1.0382    -5.8398  C.2     1  <O>11       0.2193
   3 C2       -3.4340     1.9380    -5.5120  C.3     1  <O>11       0.0685
   4 C3       -4.5760     1.6380    -6.4140  C.ar    1  <O>11       0.0780
   5 N1       -5.7991     1.2203    -5.8765  N.ar    1  <O>11      -0.1748
   6 N2       -6.8135     0.8442    -6.6889  N.ar    1  <O>11      -0.2425
   7 C4       -6.6353     0.8875    -8.0304  C.ar    1  <O>11       0.2725
   8 O2       -7.6935     0.3907    -8.8147  O.2     1  <O>11      -0.2658
   9 C5       -5.4808     1.3902    -8.6474  C.ar    1  <O>11       0.0496
  10 C6       -5.3137     1.4900   -10.0475  C.ar    1  <O>11      -0.0487
  11 C7       -4.1254     1.9700   -10.5990  C.ar    1  <O>11      -0.0610
  12 C8       -3.0796     2.3501    -9.7636  C.ar    1  <O>11      -0.0611
  13 C9       -3.2232     2.2498    -8.3800  C.ar    1  <O>11      -0.0521
  14 C10      -4.4238     1.7734    -7.8035  C.ar    1  <O>11       0.0108
  15 N3       -1.1210     1.1320    -5.1350  N.am    1  <O>11      -0.3064
  16 C11      -0.0013     0.2515    -5.4555  C.3     1  <O>11       0.0883
  17 C12      -0.1830    -1.0573    -4.7631  C.2     1  <O>11       0.2328
  18 O3       -1.1632    -1.2439    -4.0584  O.2     1  <O>11      -0.2739
  19 N4        0.7413    -2.0408    -4.9153  N.am    1  <O>11      -0.2972
  20 C13       1.9583    -1.9470    -5.7279  C.3     1  <O>11       0.0305
  21 C14       1.9860    -3.0630    -6.7949  C.3     1  <O>11       0.0280
  22 N5        1.7989    -4.4369    -6.1436  N.pl3   1  <O>11      -0.3269
  23 C15       2.7268    -5.5150    -6.3692  C.ar    1  <O>11       0.0299
  24 C16       2.5260    -6.7636    -5.7551  C.ar    1  <O>11      -0.0379
  25 C17       3.4347    -7.8068    -5.9648  C.ar    1  <O>11      -0.0247
  26 C18       4.5461    -7.6165    -6.7907  C.ar    1  <O>11       0.1235
  27 F1        5.4408    -8.6336    -6.9985  F       1  <O>11      -0.2055
  28 C19       4.7421    -6.3743    -7.4060  C.ar    1  <O>11      -0.0247
  29 C20       3.8411    -5.3277    -7.2045  C.ar    1  <O>11      -0.0379
  30 C21       0.5442    -4.4827    -5.2654  C.3     1  <O>11       0.0280
  31 C22       0.5848    -3.3328    -4.2477  C.3     1  <O>11       0.0305
  32 H1       -3.1290     2.9760    -5.6450  H       1  <O>11       0.0423
  33 H2       -3.7370     1.7780    -4.4770  H       1  <O>11       0.0423
  34 H3       -7.6926     0.5351    -6.2978  H       1  <O>11       0.1921
  35 H4       -1.0308     1.8183    -4.3853  H       1  <O>11       0.1492
  36 H5        0.0365     0.0908    -6.5330  H       1  <O>11       0.0558
  37 H6        0.9292     0.7126    -5.1243  H       1  <O>11       0.0558
  38 H7        1.9845    -0.9767    -6.2232  H       1  <O>11       0.0480
  39 H8        2.8298    -2.0483    -5.0822  H       1  <O>11       0.0480
  40 H9        1.1820    -2.8936    -7.5128  H       1  <O>11       0.0479
  41 H10       2.9453    -3.0409    -7.3134  H       1  <O>11       0.0479
  42 H11      -0.3411    -4.3802    -5.8932  H       1  <O>11       0.0479
  43 H12       0.5074    -5.4346    -4.7366  H       1  <O>11       0.0479
  44 H13      -0.3439    -3.3285    -3.6782  H       1  <O>11       0.0480
  45 H14       1.4254    -3.4867    -3.5699  H       1  <O>11       0.0480
  46 H15      -6.0834     1.2030   -10.6721  H       1  <O>11       0.0625
  47 H16      -4.0224     2.0429   -11.6232  H       1  <O>11       0.0618
  48 H17      -2.1990     2.7059   -10.1673  H       1  <O>11       0.0618
  49 H18      -2.4409     2.5275    -7.7669  H       1  <O>11       0.0624
  50 H19       1.7052    -6.9113    -5.1472  H       1  <O>11       0.0637
  51 H20       3.2838    -8.7198    -5.5081  H       1  <O>11       0.0647
  52 H21       5.5624    -6.2309    -8.0157  H       1  <O>11       0.0647
  53 H22       3.9929    -4.4182    -7.6680  H       1  <O>11       0.0637
@<TRIPOS>BOND
     1     1     2    2
     2     2     3    1
     3     3     4    1
     4     4     5   ar
     5     5     6   ar
     6     6     7   ar
     7     7     8    2
     8     7     9   ar
     9     9    10   ar
    10    10    11   ar
    11    11    12   ar
    12    12    13   ar
    13    13    14   ar
    14     4    14   ar
    15     9    14   ar
    16     2    15   am
    17    15    16    1
    18    16    17    1
    19    17    18    2
    20    17    19   am
    21    19    20    1
    22    20    21    1
    23    21    22    1
    24    22    23    1
    25    23    24   ar
    26    24    25   ar
    27    25    26   ar
    28    26    27    1
    29    26    28   ar
    30    28    29   ar
    31    23    29   ar
    32    22    30    1
    33    30    31    1
    34    19    31    1
    35     3    32    1
    36     3    33    1
    37     6    34    1
    38    15    35    1
    39    16    36    1
    40    16    37    1
    41    20    38    1
    42    20    39    1
    43    21    40    1
    44    21    41    1
    45    30    42    1
    46    30    43    1
    47    31    44    1
    48    31    45    1
    49    10    46    1
    50    11    47    1
    51    12    48    1
    52    13    49    1
    53    24    50    1
    54    25    51    1
    55    28    52    1
    56    29    53    1
@<TRIPOS>MOLECULE
mol7_1_24
 53 56 0 0 0
SMALL
USER_CHARGES
****
VDW energy = -27.68
@<TRIPOS>ATOM
   1 O1       -2.3975     0.2168    -6.7381  O.2     1  <O>11      -0.2754
   2 C1       -2.2902     1.0382    -5.8398  C.2     1  <O>11       0.2193
   3 C2       -3.4340     1.9380    -5.5120  C.3     1  <O>11       0.0685
   4 C3       -4.5760     1.6380    -6.4140  C.ar    1  <O>11       0.0780
   5 N1       -4.4560     0.6340    -7.3820  N.ar    1  <O>11      -0.1748
   6 N2       -5.4480     0.4210    -8.2770  N.ar    1  <O>11      -0.2425
   7 C4       -6.5650     1.1840    -8.2180  C.ar    1  <O>11       0.2725
   8 O2       -7.5140     0.9770    -9.2370  O.2     1  <O>11      -0.2658
   9 C5       -6.8060     2.1370    -7.2180  C.ar    1  <O>11       0.0496
  10 C6       -7.9950     2.8950    -7.1200  C.ar    1  <O>11      -0.0487
  11 C7       -8.1590     3.8520    -6.1180  C.ar    1  <O>11      -0.0610
  12 C8       -7.1360     4.0760    -5.2020  C.ar    1  <O>11      -0.0611
  13 C9       -5.9520     3.3440    -5.2890  C.ar    1  <O>11      -0.0521
  14 C10      -5.7720     2.3640    -6.2930  C.ar    1  <O>11       0.0108
  15 N3       -1.1210     1.1320    -5.1350  N.am    1  <O>11      -0.3064
  16 C11      -0.0010     0.2520    -5.4560  C.3     1  <O>11       0.0883
  17 C12       1.1450     0.5540    -4.5500  C.2     1  <O>11       0.2328
  18 O3        1.0410     1.4310    -3.7060  O.2     1  <O>11      -0.2739
  19 N4        2.3040    -0.1450    -4.6640  N.am    1  <O>11      -0.2972
  20 C13       3.5010     0.0510    -3.8400  C.3     1  <O>11       0.0305
  21 C14       4.7220     0.3810    -4.7260  C.3     1  <O>11       0.0280
  22 N5        4.9040    -0.6840    -5.8120  N.pl3   1  <O>11      -0.3269
  23 C15       6.1570    -1.3690    -5.9990  C.ar    1  <O>11       0.0299
  24 C16       6.2900    -2.3420    -7.0050  C.ar    1  <O>11      -0.0379
  25 C17       7.5040    -3.0160    -7.1780  C.ar    1  <O>11      -0.0247
  26 C18       8.5950    -2.7230    -6.3550  C.ar    1  <O>11       0.1235
  27 F1        9.7860    -3.3810    -6.5180  F       1  <O>11      -0.2055
  28 C19       8.4630    -1.7500    -5.3570  C.ar    1  <O>11      -0.0247
  29 C20       7.2570    -1.0710    -5.1770  C.ar    1  <O>11      -0.0379
  30 C21       3.6200    -0.8950    -6.6210  C.3     1  <O>11       0.0280
  31 C22       2.4540    -1.1980    -5.6680  C.3     1  <O>11       0.0305
  32 H1       -3.1290     2.9760    -5.6450  H       1  <O>11       0.0423
  33 H2       -3.7370     1.7780    -4.4770  H       1  <O>11       0.0423
  34 H3       -5.3550    -0.2990    -8.9800  H       1  <O>11       0.1921
  35 H4       -1.0310     1.8180    -4.3850  H       1  <O>11       0.1492
  36 H5       -0.3060    -0.7860    -5.3230  H       1  <O>11       0.0558
  37 H6        0.3010     0.4120    -6.4910  H       1  <O>11       0.0558
  38 H7        3.3280     0.8740    -3.1470  H       1  <O>11       0.0480
  39 H8        3.7030    -0.8600    -3.2780  H       1  <O>11       0.0480
  40 H9        4.5710     1.3530    -5.1980  H       1  <O>11       0.0479
  41 H10       5.6180     0.4150    -4.1050  H       1  <O>11       0.0479
  42 H11       3.3980     0.0080    -7.1900  H       1  <O>11       0.0479
  43 H12       3.7570    -1.7320    -7.3050  H       1  <O>11       0.0479
  44 H13       1.5330    -1.2730    -6.2450  H       1  <O>11       0.0480
  45 H14       2.6440    -2.1460    -5.1630  H       1  <O>11       0.0480
  46 H15      -8.7544     2.7380    -7.8009  H       1  <O>11       0.0625
  47 H16      -9.0363     4.3920    -6.0565  H       1  <O>11       0.0618
  48 H17      -7.2531     4.7828    -4.4592  H       1  <O>11       0.0618
  49 H18      -5.1951     3.5202    -4.6100  H       1  <O>11       0.0624
  50 H19       5.4891    -2.5600    -7.6183  H       1  <O>11       0.0637
  51 H20       7.5941    -3.7319    -7.9158  H       1  <O>11       0.0647
  52 H21       9.2668    -1.5323    -4.7474  H       1  <O>11       0.0647
  53 H22       7.1733    -0.3516    -4.4418  H       1  <O>11       0.0637
@<TRIPOS>BOND
     1     1     2    2
     2     2     3    1
     3     3     4    1
     4     4     5   ar
     5     5     6   ar
     6     6     7   ar
     7     7     8    2
     8     7     9   ar
     9     9    10   ar
    10    10    11   ar
    11    11    12   ar
    12    12    13   ar
    13    13    14   ar
    14     4    14   ar
    15     9    14   ar
    16     2    15   am
    17    15    16    1
    18    16    17    1
    19    17    18    2
    20    17    19   am
    21    19    20    1
    22    20    21    1
    23    21    22    1
    24    22    23    1
    25    23    24   ar
    26    24    25   ar
    27    25    26   ar
    28    26    27    1
    29    26    28   ar
    30    28    29   ar
    31    23    29   ar
    32    22    30    1
    33    30    31    1
    34    19    31    1
    35     3    32    1
    36     3    33    1
    37     6    34    1
    38    15    35    1
    39    16    36    1
    40    16    37    1
    41    20    38    1
    42    20    39    1
    43    21    40    1
    44    21    41    1
    45    30    42    1
    46    30    43    1
    47    31    44    1
    48    31    45    1
    49    10    46    1
    50    11    47    1
    51    12    48    1
    52    13    49    1
    53    24    50    1
    54    25    51    1
    55    28    52    1
    56    29    53    1
@<TRIPOS>MOLECULE
mol7_1_25
 53 56 0 0 0
SMALL
USER_CHARGES
****
VDW energy = -27.31
@<TRIPOS>ATOM
   1 O1       -2.3975     0.2168    -6.7381  O.2     1  <O>11      -0.2754
   2 C1       -2.2902     1.0382    -5.8398  C.2     1  <O>11       0.2193
   3 C2       -3.4340     1.9380    -5.5120  C.3     1  <O>11       0.0685
   4 C3       -4.5760     1.6380    -6.4140  C.ar    1  <O>11       0.0780
   5 N1       -5.0828     2.6362    -7.2543  N.ar    1  <O>11      -0.1748
   6 N2       -6.1863     2.4084    -8.0033  N.ar    1  <O>11      -0.2425
   7 C4       -6.7889     1.1976    -7.9390  C.ar    1  <O>11       0.2725
   8 O2       -7.9860     1.0594    -8.6668  O.2     1  <O>11      -0.2658
   9 C5       -6.2858     0.1146    -7.2039  C.ar    1  <O>11       0.0496
  10 C6       -6.8807    -1.1674    -7.1797  C.ar    1  <O>11      -0.0487
  11 C7       -6.3473    -2.1947    -6.4007  C.ar    1  <O>11      -0.0610
  12 C8       -5.2167    -1.9583    -5.6250  C.ar    1  <O>11      -0.0611
  13 C9       -4.6218    -0.6968    -5.6292  C.ar    1  <O>11      -0.0521
  14 C10      -5.1440     0.3537    -6.4194  C.ar    1  <O>11       0.0108
  15 N3       -1.1210     1.1320    -5.1350  N.am    1  <O>11      -0.3064
  16 C11      -0.0010     0.2520    -5.4560  C.3     1  <O>11       0.0883
  17 C12       1.1450     0.5540    -4.5500  C.2     1  <O>11       0.2328
  18 O3        1.0410     1.4310    -3.7060  O.2     1  <O>11      -0.2739
  19 N4        2.3040    -0.1450    -4.6640  N.am    1  <O>11      -0.2972
  20 C13       3.5010     0.0510    -3.8400  C.3     1  <O>11       0.0305
  21 C14       4.7220     0.3810    -4.7260  C.3     1  <O>11       0.0280
  22 N5        4.9040    -0.6840    -5.8120  N.pl3   1  <O>11      -0.3269
  23 C15       6.1570    -1.3690    -5.9990  C.ar    1  <O>11       0.0299
  24 C16       6.2900    -2.3420    -7.0050  C.ar    1  <O>11      -0.0379
  25 C17       7.5040    -3.0160    -7.1780  C.ar    1  <O>11      -0.0247
  26 C18       8.5950    -2.7230    -6.3550  C.ar    1  <O>11       0.1235
  27 F1        9.7860    -3.3810    -6.5180  F       1  <O>11      -0.2055
  28 C19       8.4630    -1.7500    -5.3570  C.ar    1  <O>11      -0.0247
  29 C20       7.2570    -1.0710    -5.1770  C.ar    1  <O>11      -0.0379
  30 C21       3.6200    -0.8950    -6.6210  C.3     1  <O>11       0.0280
  31 C22       2.4540    -1.1980    -5.6680  C.3     1  <O>11       0.0305
  32 H1       -3.1290     2.9760    -5.6450  H       1  <O>11       0.0423
  33 H2       -3.7370     1.7780    -4.4770  H       1  <O>11       0.0423
  34 H3       -6.5548     3.1337    -8.6027  H       1  <O>11       0.1921
  35 H4       -1.0310     1.8180    -4.3850  H       1  <O>11       0.1492
  36 H5       -0.3060    -0.7860    -5.3230  H       1  <O>11       0.0558
  37 H6        0.3010     0.4120    -6.4910  H       1  <O>11       0.0558
  38 H7        3.3280     0.8740    -3.1470  H       1  <O>11       0.0480
  39 H8        3.7030    -0.8600    -3.2780  H       1  <O>11       0.0480
  40 H9        4.5710     1.3530    -5.1980  H       1  <O>11       0.0479
  41 H10       5.6180     0.4150    -4.1050  H       1  <O>11       0.0479
  42 H11       3.3980     0.0080    -7.1900  H       1  <O>11       0.0479
  43 H12       3.7570    -1.7320    -7.3050  H       1  <O>11       0.0479
  44 H13       1.5330    -1.2730    -6.2450  H       1  <O>11       0.0480
  45 H14       2.6440    -2.1460    -5.1630  H       1  <O>11       0.0480
  46 H15      -7.7234    -1.3465    -7.7477  H       1  <O>11       0.0625
  47 H16      -6.7900    -3.1269    -6.3997  H       1  <O>11       0.0618
  48 H17      -4.8188    -2.7153    -5.0473  H       1  <O>11       0.0618
  49 H18      -3.7873    -0.5271    -5.0463  H       1  <O>11       0.0624
  50 H19       5.4891    -2.5600    -7.6183  H       1  <O>11       0.0637
  51 H20       7.5941    -3.7319    -7.9158  H       1  <O>11       0.0647
  52 H21       9.2668    -1.5323    -4.7474  H       1  <O>11       0.0647
  53 H22       7.1733    -0.3516    -4.4418  H       1  <O>11       0.0637
@<TRIPOS>BOND
     1     1     2    2
     2     2     3    1
     3     3     4    1
     4     4     5   ar
     5     5     6   ar
     6     6     7   ar
     7     7     8    2
     8     7     9   ar
     9     9    10   ar
    10    10    11   ar
    11    11    12   ar
    12    12    13   ar
    13    13    14   ar
    14     4    14   ar
    15     9    14   ar
    16     2    15   am
    17    15    16    1
    18    16    17    1
    19    17    18    2
    20    17    19   am
    21    19    20    1
    22    20    21    1
    23    21    22    1
    24    22    23    1
    25    23    24   ar
    26    24    25   ar
    27    25    26   ar
    28    26    27    1
    29    26    28   ar
    30    28    29   ar
    31    23    29   ar
    32    22    30    1
    33    30    31    1
    34    19    31    1
    35     3    32    1
    36     3    33    1
    37     6    34    1
    38    15    35    1
    39    16    36    1
    40    16    37    1
    41    20    38    1
    42    20    39    1
    43    21    40    1
    44    21    41    1
    45    30    42    1
    46    30    43    1
    47    31    44    1
    48    31    45    1
    49    10    46    1
    50    11    47    1
    51    12    48    1
    52    13    49    1
    53    24    50    1
    54    25    51    1
    55    28    52    1
    56    29    53    1
@<TRIPOS>MOLECULE
mol7_1_26
 53 56 0 0 0
SMALL
USER_CHARGES
****
VDW energy = -27.06
@<TRIPOS>ATOM
   1 O1       -2.3975     0.2168    -6.7381  O.2     1  <O>11      -0.2754
   2 C1       -2.2902     1.0382    -5.8398  C.2     1  <O>11       0.2193
   3 C2       -3.4340     1.9380    -5.5120  C.3     1  <O>11       0.0685
   4 C3       -4.5760     1.6380    -6.4140  C.ar    1  <O>11       0.0780
   5 N1       -5.7991     1.2203    -5.8765  N.ar    1  <O>11      -0.1748
   6 N2       -6.8135     0.8442    -6.6889  N.ar    1  <O>11      -0.2425
   7 C4       -6.6353     0.8875    -8.0304  C.ar    1  <O>11       0.2725
   8 O2       -7.6935     0.3907    -8.8147  O.2     1  <O>11      -0.2658
   9 C5       -5.4808     1.3902    -8.6474  C.ar    1  <O>11       0.0496
  10 C6       -5.3137     1.4900   -10.0475  C.ar    1  <O>11      -0.0487
  11 C7       -4.1254     1.9700   -10.5990  C.ar    1  <O>11      -0.0610
  12 C8       -3.0796     2.3501    -9.7636  C.ar    1  <O>11      -0.0611
  13 C9       -3.2232     2.2498    -8.3800  C.ar    1  <O>11      -0.0521
  14 C10      -4.4238     1.7734    -7.8035  C.ar    1  <O>11       0.0108
  15 N3       -1.1210     1.1320    -5.1350  N.am    1  <O>11      -0.3064
  16 C11      -0.9911     2.1128    -4.0612  C.3     1  <O>11       0.0883
  17 C12       0.3689     2.0117    -3.4564  C.2     1  <O>11       0.2328
  18 O3        1.1663     1.1899    -3.8818  O.2     1  <O>11      -0.2739
  19 N4        0.7201     2.8322    -2.4326  N.am    1  <O>11      -0.2972
  20 C13      -0.1385     3.8568    -1.8298  C.3     1  <O>11       0.0305
  21 C14       0.5306     5.2458    -1.9170  C.3     1  <O>11       0.0280
  22 N5        1.9380     5.2055    -1.3134  N.pl3   1  <O>11      -0.3269
  23 C15       2.3495     6.1296    -0.2882  C.ar    1  <O>11       0.0299
  24 C16       3.6487     6.0647     0.2450  C.ar    1  <O>11      -0.0379
  25 C17       4.0438     6.9548     1.2498  C.ar    1  <O>11      -0.0247
  26 C18       3.1510     7.9185     1.7271  C.ar    1  <O>11       0.1235
  27 F1        3.5312     8.7918     2.7124  F       1  <O>11      -0.2055
  28 C19       1.8592     7.9857     1.1915  C.ar    1  <O>11      -0.0247
  29 C20       1.4556     7.1035     0.1881  C.ar    1  <O>11      -0.0379
  30 C21       2.7901     4.0934    -1.9337  C.3     1  <O>11       0.0280
  31 C22       2.0477     2.7530    -1.8240  C.3     1  <O>11       0.0305
  32 H1       -3.1290     2.9760    -5.6450  H       1  <O>11       0.0423
  33 H2       -3.7370     1.7780    -4.4770  H       1  <O>11       0.0423
  34 H3       -7.6926     0.5351    -6.2978  H       1  <O>11       0.1921
  35 H4       -0.3393     0.5156    -5.3591  H       1  <O>11       0.1492
  36 H5       -1.1356     3.1145    -4.4659  H       1  <O>11       0.0558
  37 H6       -1.7444     1.9172    -3.2981  H       1  <O>11       0.0558
  38 H7       -1.0904     3.8835    -2.3595  H       1  <O>11       0.0480
  39 H8       -0.3125     3.6090    -0.7834  H       1  <O>11       0.0480
  40 H9        0.5972     5.5473    -2.9634  H       1  <O>11       0.0479
  41 H10      -0.0728     5.9705    -1.3688  H       1  <O>11       0.0479
  42 H11       2.9740     4.3211    -2.9838  H       1  <O>11       0.0479
  43 H12       3.7397     4.0271    -1.4036  H       1  <O>11       0.0479
  44 H13       2.6266     1.9829    -2.3325  H       1  <O>11       0.0480
  45 H14       1.9407     2.4904    -0.7708  H       1  <O>11       0.0480
  46 H15      -6.0834     1.2030   -10.6721  H       1  <O>11       0.0625
  47 H16      -4.0224     2.0429   -11.6232  H       1  <O>11       0.0618
  48 H17      -2.1990     2.7059   -10.1673  H       1  <O>11       0.0618
  49 H18      -2.4409     2.5275    -7.7669  H       1  <O>11       0.0624
  50 H19       4.3136     5.3578    -0.1060  H       1  <O>11       0.0637
  51 H20       4.9976     6.8996     1.6398  H       1  <O>11       0.0647
  52 H21       1.1977     8.6958     1.5427  H       1  <O>11       0.0647
  53 H22       0.5027     7.1663    -0.2031  H       1  <O>11       0.0637
@<TRIPOS>BOND
     1     1     2    2
     2     2     3    1
     3     3     4    1
     4     4     5   ar
     5     5     6   ar
     6     6     7   ar
     7     7     8    2
     8     7     9   ar
     9     9    10   ar
    10    10    11   ar
    11    11    12   ar
    12    12    13   ar
    13    13    14   ar
    14     4    14   ar
    15     9    14   ar
    16     2    15   am
    17    15    16    1
    18    16    17    1
    19    17    18    2
    20    17    19   am
    21    19    20    1
    22    20    21    1
    23    21    22    1
    24    22    23    1
    25    23    24   ar
    26    24    25   ar
    27    25    26   ar
    28    26    27    1
    29    26    28   ar
    30    28    29   ar
    31    23    29   ar
    32    22    30    1
    33    30    31    1
    34    19    31    1
    35     3    32    1
    36     3    33    1
    37     6    34    1
    38    15    35    1
    39    16    36    1
    40    16    37    1
    41    20    38    1
    42    20    39    1
    43    21    40    1
    44    21    41    1
    45    30    42    1
    46    30    43    1
    47    31    44    1
    48    31    45    1
    49    10    46    1
    50    11    47    1
    51    12    48    1
    52    13    49    1
    53    24    50    1
    54    25    51    1
    55    28    52    1
    56    29    53    1
@<TRIPOS>MOLECULE
mol7_1_27
 53 56 0 0 0
SMALL
USER_CHARGES
****
VDW energy = -24.49
@<TRIPOS>ATOM
   1 O1       -2.3975     0.2168    -6.7381  O.2     1  <O>11      -0.2754
   2 C1       -2.2902     1.0382    -5.8398  C.2     1  <O>11       0.2193
   3 C2       -3.4340     1.9380    -5.5120  C.3     1  <O>11       0.0685
   4 C3       -4.5760     1.6380    -6.4140  C.ar    1  <O>11       0.0780
   5 N1       -5.7991     1.2203    -5.8765  N.ar    1  <O>11      -0.1748
   6 N2       -6.8135     0.8442    -6.6889  N.ar    1  <O>11      -0.2425
   7 C4       -6.6353     0.8875    -8.0304  C.ar    1  <O>11       0.2725
   8 O2       -7.6935     0.3907    -8.8147  O.2     1  <O>11      -0.2658
   9 C5       -5.4808     1.3902    -8.6474  C.ar    1  <O>11       0.0496
  10 C6       -5.3137     1.4900   -10.0475  C.ar    1  <O>11      -0.0487
  11 C7       -4.1254     1.9700   -10.5990  C.ar    1  <O>11      -0.0610
  12 C8       -3.0796     2.3501    -9.7636  C.ar    1  <O>11      -0.0611
  13 C9       -3.2232     2.2498    -8.3800  C.ar    1  <O>11      -0.0521
  14 C10      -4.4238     1.7734    -7.8035  C.ar    1  <O>11       0.0108
  15 N3       -1.1210     1.1320    -5.1350  N.am    1  <O>11      -0.3064
  16 C11      -0.9911     2.1128    -4.0612  C.3     1  <O>11       0.0883
  17 C12      -1.5728     1.5561    -2.8054  C.2     1  <O>11       0.2328
  18 O3       -2.0581     0.4350    -2.8023  O.2     1  <O>11      -0.2739
  19 N4       -1.5640     2.2956    -1.6661  N.am    1  <O>11      -0.2972
  20 C13      -1.0162     3.6493    -1.5341  C.3     1  <O>11       0.0305
  21 C14       0.0735     3.6899    -0.4406  C.3     1  <O>11       0.0280
  22 N5       -0.4642     3.1246     0.8778  N.pl3   1  <O>11      -0.3269
  23 C15      -0.3798     3.8652     2.1101  C.ar    1  <O>11       0.0299
  24 C16      -0.8839     3.3173     3.3027  C.ar    1  <O>11      -0.0379
  25 C17      -0.8128     4.0426     4.4972  C.ar    1  <O>11      -0.0247
  26 C18      -0.2353     5.3152     4.5144  C.ar    1  <O>11       0.1235
  27 F1       -0.1645     6.0315     5.6806  F       1  <O>11      -0.2055
  28 C19       0.2712     5.8577     3.3272  C.ar    1  <O>11      -0.0247
  29 C20       0.2065     5.1420     2.1307  C.ar    1  <O>11      -0.0379
  30 C21      -1.0707     1.7299     0.6920  C.3     1  <O>11       0.0280
  31 C22      -2.1272     1.7713    -0.4223  C.3     1  <O>11       0.0305
  32 H1       -3.1290     2.9760    -5.6450  H       1  <O>11       0.0423
  33 H2       -3.7370     1.7780    -4.4770  H       1  <O>11       0.0423
  34 H3       -7.6926     0.5351    -6.2978  H       1  <O>11       0.1921
  35 H4       -0.3393     0.5156    -5.3591  H       1  <O>11       0.1492
  36 H5        0.0632     2.3404    -3.9039  H       1  <O>11       0.0558
  37 H6       -1.5223     3.0240    -4.3359  H       1  <O>11       0.0558
  38 H7       -0.5808     3.9539    -2.4855  H       1  <O>11       0.0480
  39 H8       -1.8178     4.3363    -1.2656  H       1  <O>11       0.0480
  40 H9        0.9291     3.0951    -0.7639  H       1  <O>11       0.0479
  41 H10       0.3881     4.7225    -0.2848  H       1  <O>11       0.0479
  42 H11      -0.2839     1.0262     0.4198  H       1  <O>11       0.0479
  43 H12      -1.5376     1.4116     1.6236  H       1  <O>11       0.0479
  44 H13      -2.4991     0.7625    -0.5978  H       1  <O>11       0.0480
  45 H14      -2.9517     2.4123    -0.1076  H       1  <O>11       0.0480
  46 H15      -6.0834     1.2030   -10.6721  H       1  <O>11       0.0625
  47 H16      -4.0224     2.0429   -11.6232  H       1  <O>11       0.0618
  48 H17      -2.1990     2.7059   -10.1673  H       1  <O>11       0.0618
  49 H18      -2.4409     2.5275    -7.7669  H       1  <O>11       0.0624
  50 H19      -1.3080     2.3764     3.2970  H       1  <O>11       0.0637
  51 H20      -1.1880     3.6364     5.3685  H       1  <O>11       0.0647
  52 H21       0.6974     6.7975     3.3369  H       1  <O>11       0.0647
  53 H22       0.5885     5.5497     1.2630  H       1  <O>11       0.0637
@<TRIPOS>BOND
     1     1     2    2
     2     2     3    1
     3     3     4    1
     4     4     5   ar
     5     5     6   ar
     6     6     7   ar
     7     7     8    2
     8     7     9   ar
     9     9    10   ar
    10    10    11   ar
    11    11    12   ar
    12    12    13   ar
    13    13    14   ar
    14     4    14   ar
    15     9    14   ar
    16     2    15   am
    17    15    16    1
    18    16    17    1
    19    17    18    2
    20    17    19   am
    21    19    20    1
    22    20    21    1
    23    21    22    1
    24    22    23    1
    25    23    24   ar
    26    24    25   ar
    27    25    26   ar
    28    26    27    1
    29    26    28   ar
    30    28    29   ar
    31    23    29   ar
    32    22    30    1
    33    30    31    1
    34    19    31    1
    35     3    32    1
    36     3    33    1
    37     6    34    1
    38    15    35    1
    39    16    36    1
    40    16    37    1
    41    20    38    1
    42    20    39    1
    43    21    40    1
    44    21    41    1
    45    30    42    1
    46    30    43    1
    47    31    44    1
    48    31    45    1
    49    10    46    1
    50    11    47    1
    51    12    48    1
    52    13    49    1
    53    24    50    1
    54    25    51    1
    55    28    52    1
    56    29    53    1
@<TRIPOS>MOLECULE
mol7_1_28
 53 56 0 0 0
SMALL
USER_CHARGES
****
VDW energy = -24.04
@<TRIPOS>ATOM
   1 O1       -2.3975     0.2168    -6.7381  O.2     1  <O>11      -0.2754
   2 C1       -2.2902     1.0382    -5.8398  C.2     1  <O>11       0.2193
   3 C2       -3.4340     1.9380    -5.5120  C.3     1  <O>11       0.0685
   4 C3       -4.5760     1.6380    -6.4140  C.ar    1  <O>11       0.0780
   5 N1       -5.7991     1.2203    -5.8765  N.ar    1  <O>11      -0.1748
   6 N2       -6.8135     0.8442    -6.6889  N.ar    1  <O>11      -0.2425
   7 C4       -6.6353     0.8875    -8.0304  C.ar    1  <O>11       0.2725
   8 O2       -7.6935     0.3907    -8.8147  O.2     1  <O>11      -0.2658
   9 C5       -5.4808     1.3902    -8.6474  C.ar    1  <O>11       0.0496
  10 C6       -5.3137     1.4900   -10.0475  C.ar    1  <O>11      -0.0487
  11 C7       -4.1254     1.9700   -10.5990  C.ar    1  <O>11      -0.0610
  12 C8       -3.0796     2.3501    -9.7636  C.ar    1  <O>11      -0.0611
  13 C9       -3.2232     2.2498    -8.3800  C.ar    1  <O>11      -0.0521
  14 C10      -4.4238     1.7734    -7.8035  C.ar    1  <O>11       0.0108
  15 N3       -1.1210     1.1320    -5.1350  N.am    1  <O>11      -0.3064
  16 C11      -0.9911     2.1128    -4.0612  C.3     1  <O>11       0.0883
  17 C12      -0.6186     3.4368    -4.6386  C.2     1  <O>11       0.2328
  18 O3       -0.4712     3.5566    -5.8453  O.2     1  <O>11      -0.2739
  19 N4       -0.4425     4.5086    -3.8231  N.am    1  <O>11      -0.2972
  20 C13      -0.5868     4.5009    -2.3639  C.3     1  <O>11       0.0305
  21 C14      -1.6440     5.5343    -1.9174  C.3     1  <O>11       0.0280
  22 N5       -1.3176     6.9194    -2.4848  N.pl3   1  <O>11      -0.3269
  23 C15      -1.2156     8.0801    -1.6384  C.ar    1  <O>11       0.0299
  24 C16      -0.9137     9.3368    -2.1915  C.ar    1  <O>11      -0.0379
  25 C17      -0.8025    10.4619    -1.3670  C.ar    1  <O>11      -0.0247
  26 C18      -0.9958    10.3452     0.0123  C.ar    1  <O>11       0.1235
  27 F1       -0.8862    11.4428     0.8255  F       1  <O>11      -0.2055
  28 C19      -1.3017     9.0942     0.5614  C.ar    1  <O>11      -0.0247
  29 C20      -1.4162     7.9661    -0.2523  C.ar    1  <O>11      -0.0379
  30 C21      -1.1274     6.8797    -4.0046  C.3     1  <O>11       0.0280
  31 C22      -0.0783     5.8173    -4.3655  C.3     1  <O>11       0.0305
  32 H1       -3.1290     2.9760    -5.6450  H       1  <O>11       0.0423
  33 H2       -3.7370     1.7780    -4.4770  H       1  <O>11       0.0423
  34 H3       -7.6926     0.5351    -6.2978  H       1  <O>11       0.1921
  35 H4       -0.3393     0.5156    -5.3591  H       1  <O>11       0.1492
  36 H5       -1.9408     2.2003    -3.5335  H       1  <O>11       0.0558
  37 H6       -0.2175     1.7883    -3.3652  H       1  <O>11       0.0558
  38 H7       -0.8971     3.5078    -2.0398  H       1  <O>11       0.0480
  39 H8        0.3705     4.7489    -1.9071  H       1  <O>11       0.0480
  40 H9       -2.6258     5.2216    -2.2760  H       1  <O>11       0.0479
  41 H10      -1.6563     5.5882    -0.8281  H       1  <O>11       0.0479
  42 H11      -2.0752     6.6302    -4.4819  H       1  <O>11       0.0479
  43 H12      -0.7904     7.8558    -4.3525  H       1  <O>11       0.0479
  44 H13      -0.0038     5.7445    -5.4499  H       1  <O>11       0.0480
  45 H14       0.8870     6.1160    -3.9547  H       1  <O>11       0.0480
  46 H15      -6.0834     1.2030   -10.6721  H       1  <O>11       0.0625
  47 H16      -4.0224     2.0429   -11.6232  H       1  <O>11       0.0618
  48 H17      -2.1990     2.7059   -10.1673  H       1  <O>11       0.0618
  49 H18      -2.4409     2.5275    -7.7669  H       1  <O>11       0.0624
  50 H19      -0.7737     9.4299    -3.2098  H       1  <O>11       0.0637
  51 H20      -0.5769    11.3809    -1.7787  H       1  <O>11       0.0647
  52 H21      -1.4441     9.0052     1.5797  H       1  <O>11       0.0647
  53 H22      -1.6479     7.0502     0.1631  H       1  <O>11       0.0637
@<TRIPOS>BOND
     1     1     2    2
     2     2     3    1
     3     3     4    1
     4     4     5   ar
     5     5     6   ar
     6     6     7   ar
     7     7     8    2
     8     7     9   ar
     9     9    10   ar
    10    10    11   ar
    11    11    12   ar
    12    12    13   ar
    13    13    14   ar
    14     4    14   ar
    15     9    14   ar
    16     2    15   am
    17    15    16    1
    18    16    17    1
    19    17    18    2
    20    17    19   am
    21    19    20    1
    22    20    21    1
    23    21    22    1
    24    22    23    1
    25    23    24   ar
    26    24    25   ar
    27    25    26   ar
    28    26    27    1
    29    26    28   ar
    30    28    29   ar
    31    23    29   ar
    32    22    30    1
    33    30    31    1
    34    19    31    1
    35     3    32    1
    36     3    33    1
    37     6    34    1
    38    15    35    1
    39    16    36    1
    40    16    37    1
    41    20    38    1
    42    20    39    1
    43    21    40    1
    44    21    41    1
    45    30    42    1
    46    30    43    1
    47    31    44    1
    48    31    45    1
    49    10    46    1
    50    11    47    1
    51    12    48    1
    52    13    49    1
    53    24    50    1
    54    25    51    1
    55    28    52    1
    56    29    53    1
@<TRIPOS>MOLECULE
mol7_1_29
 53 56 0 0 0
SMALL
USER_CHARGES
****
VDW energy = -21.78
@<TRIPOS>ATOM
   1 O1       -2.3975     0.2168    -6.7381  O.2     1  <O>11      -0.2754
   2 C1       -2.2902     1.0382    -5.8398  C.2     1  <O>11       0.2193
   3 C2       -3.4340     1.9380    -5.5120  C.3     1  <O>11       0.0685
   4 C3       -4.5760     1.6380    -6.4140  C.ar    1  <O>11       0.0780
   5 N1       -5.7991     1.2203    -5.8765  N.ar    1  <O>11      -0.1748
   6 N2       -6.8135     0.8442    -6.6889  N.ar    1  <O>11      -0.2425
   7 C4       -6.6353     0.8875    -8.0304  C.ar    1  <O>11       0.2725
   8 O2       -7.6935     0.3907    -8.8147  O.2     1  <O>11      -0.2658
   9 C5       -5.4808     1.3902    -8.6474  C.ar    1  <O>11       0.0496
  10 C6       -5.3137     1.4900   -10.0475  C.ar    1  <O>11      -0.0487
  11 C7       -4.1254     1.9700   -10.5990  C.ar    1  <O>11      -0.0610
  12 C8       -3.0796     2.3501    -9.7636  C.ar    1  <O>11      -0.0611
  13 C9       -3.2232     2.2498    -8.3800  C.ar    1  <O>11      -0.0521
  14 C10      -4.4238     1.7734    -7.8035  C.ar    1  <O>11       0.0108
  15 N3       -1.1210     1.1320    -5.1350  N.am    1  <O>11      -0.3064
  16 C11      -0.9911     2.1128    -4.0612  C.3     1  <O>11       0.0883
  17 C12      -0.6186     3.4368    -4.6386  C.2     1  <O>11       0.2328
  18 O3       -0.4712     3.5566    -5.8453  O.2     1  <O>11      -0.2739
  19 N4       -0.4425     4.5086    -3.8231  N.am    1  <O>11      -0.2972
  20 C13      -0.0773     5.8599    -4.2599  C.3     1  <O>11       0.0305
  21 C14       1.2253     6.3201    -3.5698  C.3     1  <O>11       0.0280
  22 N5        1.1051     6.1890    -2.0483  N.pl3   1  <O>11      -0.3269
  23 C15       1.3759     7.2967    -1.1686  C.ar    1  <O>11       0.0299
  24 C16       1.2553     7.1426     0.2235  C.ar    1  <O>11      -0.0379
  25 C17       1.5065     8.2227     1.0769  C.ar    1  <O>11      -0.0247
  26 C18       1.8842     9.4616     0.5515  C.ar    1  <O>11       0.1235
  27 F1        2.1296    10.5238     1.3818  F       1  <O>11      -0.2055
  28 C19       2.0092     9.6124    -0.8347  C.ar    1  <O>11      -0.0247
  29 C20       1.7623     8.5411    -1.6946  C.ar    1  <O>11      -0.0379
  30 C21       0.6764     4.7781    -1.6322  C.3     1  <O>11       0.0280
  31 C22      -0.6110     4.3902    -2.3750  C.3     1  <O>11       0.0305
  32 H1       -3.1290     2.9760    -5.6450  H       1  <O>11       0.0423
  33 H2       -3.7370     1.7780    -4.4770  H       1  <O>11       0.0423
  34 H3       -7.6926     0.5351    -6.2978  H       1  <O>11       0.1921
  35 H4       -0.3393     0.5156    -5.3591  H       1  <O>11       0.1492
  36 H5       -1.9408     2.2003    -3.5335  H       1  <O>11       0.0558
  37 H6       -0.2175     1.7883    -3.3652  H       1  <O>11       0.0558
  38 H7        0.0697     5.8599    -5.3397  H       1  <O>11       0.0480
  39 H8       -0.8805     6.5495    -4.0033  H       1  <O>11       0.0480
  40 H9        2.0542     5.7026    -3.9191  H       1  <O>11       0.0479
  41 H10       1.4179     7.3630    -3.8246  H       1  <O>11       0.0479
  42 H11       1.4670     4.0706    -1.8832  H       1  <O>11       0.0479
  43 H12       0.4963     4.7569    -0.5578  H       1  <O>11       0.0479
  44 H13      -0.8668     3.3600    -2.1298  H       1  <O>11       0.0480
  45 H14      -1.4187     5.0503    -2.0561  H       1  <O>11       0.0480
  46 H15      -6.0834     1.2030   -10.6721  H       1  <O>11       0.0625
  47 H16      -4.0224     2.0429   -11.6232  H       1  <O>11       0.0618
  48 H17      -2.1990     2.7059   -10.1673  H       1  <O>11       0.0618
  49 H18      -2.4409     2.5275    -7.7669  H       1  <O>11       0.0624
  50 H19       0.9804     6.2293     0.6176  H       1  <O>11       0.0637
  51 H20       1.4125     8.1042     2.0978  H       1  <O>11       0.0647
  52 H21       2.2872    10.5263    -1.2254  H       1  <O>11       0.0647
  53 H22       1.8634     8.6627    -2.7144  H       1  <O>11       0.0637
@<TRIPOS>BOND
     1     1     2    2
     2     2     3    1
     3     3     4    1
     4     4     5   ar
     5     5     6   ar
     6     6     7   ar
     7     7     8    2
     8     7     9   ar
     9     9    10   ar
    10    10    11   ar
    11    11    12   ar
    12    12    13   ar
    13    13    14   ar
    14     4    14   ar
    15     9    14   ar
    16     2    15   am
    17    15    16    1
    18    16    17    1
    19    17    18    2
    20    17    19   am
    21    19    20    1
    22    20    21    1
    23    21    22    1
    24    22    23    1
    25    23    24   ar
    26    24    25   ar
    27    25    26   ar
    28    26    27    1
    29    26    28   ar
    30    28    29   ar
    31    23    29   ar
    32    22    30    1
    33    30    31    1
    34    19    31    1
    35     3    32    1
    36     3    33    1
    37     6    34    1
    38    15    35    1
    39    16    36    1
    40    16    37    1
    41    20    38    1
    42    20    39    1
    43    21    40    1
    44    21    41    1
    45    30    42    1
    46    30    43    1
    47    31    44    1
    48    31    45    1
    49    10    46    1
    50    11    47    1
    51    12    48    1
    52    13    49    1
    53    24    50    1
    54    25    51    1
    55    28    52    1
    56    29    53    1
@<TRIPOS>MOLECULE
mol7_1_30
 53 56 0 0 0
SMALL
USER_CHARGES
****
VDW energy = 0.87
@<TRIPOS>ATOM
   1 O1       -2.3975     0.2168    -6.7381  O.2     1  <O>11      -0.2754
   2 C1       -2.2902     1.0382    -5.8398  C.2     1  <O>11       0.2193
   3 C2       -3.4340     1.9380    -5.5120  C.3     1  <O>11       0.0685
   4 C3       -3.5344     2.0965    -4.0380  C.ar    1  <O>11       0.0780
   5 N1       -3.4184     3.3675    -3.4631  N.ar    1  <O>11      -0.1748
   6 N2       -3.4033     3.5139    -2.1182  N.ar    1  <O>11      -0.2425
   7 C4       -3.5136     2.4160    -1.3336  C.ar    1  <O>11       0.2725
   8 O2       -3.3924     2.6277     0.0529  O.2     1  <O>11      -0.2658
   9 C5       -3.7367     1.1232    -1.8289  C.ar    1  <O>11       0.0496
  10 C6       -3.9092    -0.0167    -1.0111  C.ar    1  <O>11      -0.0487
  11 C7       -4.0957    -1.2820    -1.5687  C.ar    1  <O>11      -0.0610
  12 C8       -4.1040    -1.4336    -2.9517  C.ar    1  <O>11      -0.0611
  13 C9       -3.9260    -0.3215    -3.7743  C.ar    1  <O>11      -0.0521
  14 C10      -3.7442     0.9699    -3.2263  C.ar    1  <O>11       0.0108
  15 N3       -1.1210     1.1320    -5.1350  N.am    1  <O>11      -0.3064
  16 C11      -0.9911     2.1128    -4.0612  C.3     1  <O>11       0.0883
  17 C12       0.3689     2.0117    -3.4564  C.2     1  <O>11       0.2328
  18 O3        0.4922     1.7138    -2.2782  O.2     1  <O>11      -0.2739
  19 N4        1.4696     2.2518    -4.2151  N.am    1  <O>11      -0.2972
  20 C13       2.8575     2.1868    -3.7464  C.3     1  <O>11       0.0305
  21 C14       3.5721     3.5362    -3.9767  C.3     1  <O>11       0.0280
  22 N5        3.4488     3.9688    -5.4411  N.pl3   1  <O>11      -0.3269
  23 C15       4.6042     4.3113    -6.2298  C.ar    1  <O>11       0.0299
  24 C16       4.4558     4.7038    -7.5716  C.ar    1  <O>11      -0.0379
  25 C17       5.5798     5.0244    -8.3409  C.ar    1  <O>11      -0.0247
  26 C18       6.8581     4.9617    -7.7792  C.ar    1  <O>11       0.1235
  27 F1        7.9630     5.2725    -8.5279  F       1  <O>11      -0.2055
  28 C19       7.0042     4.5760    -6.4413  C.ar    1  <O>11      -0.0247
  29 C20       5.8896     4.2555    -5.6649  C.ar    1  <O>11      -0.0379
  30 C21       1.9898     3.9794    -5.9090  C.3     1  <O>11       0.0280
  31 C22       1.3481     2.6125    -5.6274  C.3     1  <O>11       0.0305
  32 H1       -4.3581     1.5045    -5.8945  H       1  <O>11       0.0423
  33 H2       -3.2724     2.9132    -5.9719  H       1  <O>11       0.0423
  34 H3       -3.3110     4.4320    -1.7059  H       1  <O>11       0.1921
  35 H4       -0.3393     0.5156    -5.3591  H       1  <O>11       0.1492
  36 H5       -1.1356     3.1145    -4.4659  H       1  <O>11       0.0558
  37 H6       -1.7444     1.9172    -3.2981  H       1  <O>11       0.0558
  38 H7        2.8654     1.9541    -2.6818  H       1  <O>11       0.0480
  39 H8        3.3845     1.4055    -4.2924  H       1  <O>11       0.0480
  40 H9        3.1189     4.2962    -3.3384  H       1  <O>11       0.0479
  41 H10       4.6276     3.4320    -3.7225  H       1  <O>11       0.0479
  42 H11       1.4428     4.7544    -5.3716  H       1  <O>11       0.0479
  43 H12       1.9545     4.1839    -6.9786  H       1  <O>11       0.0479
  44 H13       0.2927     2.6530    -5.8946  H       1  <O>11       0.0480
  45 H14       1.8466     1.8538    -6.2321  H       1  <O>11       0.0480
  46 H15      -3.8970     0.0888     0.0154  H       1  <O>11       0.0625
  47 H16      -4.2270    -2.1029    -0.9572  H       1  <O>11       0.0618
  48 H17      -4.2417    -2.3677    -3.3683  H       1  <O>11       0.0618
  49 H18      -3.9268    -0.4426    -4.7991  H       1  <O>11       0.0624
  50 H19       3.5142     4.7556    -7.9909  H       1  <O>11       0.0637
  51 H20       5.4645     5.3081    -9.3264  H       1  <O>11       0.0647
  52 H21       7.9470     4.5282    -6.0243  H       1  <O>11       0.0647
  53 H22       6.0092     3.9781    -4.6781  H       1  <O>11       0.0637
@<TRIPOS>BOND
     1     1     2    2
     2     2     3    1
     3     3     4    1
     4     4     5   ar
     5     5     6   ar
     6     6     7   ar
     7     7     8    2
     8     7     9   ar
     9     9    10   ar
    10    10    11   ar
    11    11    12   ar
    12    12    13   ar
    13    13    14   ar
    14     4    14   ar
    15     9    14   ar
    16     2    15   am
    17    15    16    1
    18    16    17    1
    19    17    18    2
    20    17    19   am
    21    19    20    1
    22    20    21    1
    23    21    22    1
    24    22    23    1
    25    23    24   ar
    26    24    25   ar
    27    25    26   ar
    28    26    27    1
    29    26    28   ar
    30    28    29   ar
    31    23    29   ar
    32    22    30    1
    33    30    31    1
    34    19    31    1
    35     3    32    1
    36     3    33    1
    37     6    34    1
    38    15    35    1
    39    16    36    1
    40    16    37    1
    41    20    38    1
    42    20    39    1
    43    21    40    1
    44    21    41    1
    45    30    42    1
    46    30    43    1
    47    31    44    1
    48    31    45    1
    49    10    46    1
    50    11    47    1
    51    12    48    1
    52    13    49    1
    53    24    50    1
    54    25    51    1
    55    28    52    1
    56    29    53    1
