@<TRIPOS>MOLECULE
mol74_1_1
 39 42 0 0 0
SMALL
USER_CHARGES
****
VDW energy = -37.71
@<TRIPOS>ATOM
   1 O1        6.7938    -0.2446    -2.0599  O.2     1  <O>11      -0.2658
   2 C1        7.4213     0.9528    -1.6663  C.ar    1  <O>11       0.2725
   3 N1        6.7347     1.7343    -0.7968  N.ar    1  <O>11      -0.2425
   4 N2        7.2340     2.9457    -0.4598  N.ar    1  <O>11      -0.1750
   5 C2        8.4134     3.3437    -0.9933  C.ar    1  <O>11       0.0736
   6 C3        8.8350     4.7170    -0.6550  C.3     1  <O>11       0.0171
   7 C4        8.3028     5.6629    -1.6702  C.ar    1  <O>11      -0.0408
   8 C5        6.9175     5.7779    -1.8746  C.ar    1  <O>11      -0.0555
   9 C6        6.4178     6.6598    -2.8398  C.ar    1  <O>11      -0.0256
  10 C7        7.2921     7.4360    -3.6043  C.ar    1  <O>11       0.1311
  11 F1        6.8094     8.2990    -4.5523  F       1  <O>11      -0.2049
  12 C8        8.6733     7.3263    -3.3961  C.ar    1  <O>11       0.0177
  13 C9        9.5616     8.1223    -4.1765  C.ar    1  <O>11      -0.0123
  14 C10       9.4918     9.5154    -4.1412  C.ar    1  <O>11      -0.0358
  15 C11      10.3646    10.2342    -4.9375  C.ar    1  <O>11       0.0281
  16 N3       11.2873     9.6696    -5.7428  N.ar    1  <O>11      -0.2632
  17 C12      11.3668     8.3296    -5.7671  C.ar    1  <O>11       0.0281
  18 C13      10.5252     7.5275    -4.9975  C.ar    1  <O>11      -0.0358
  19 C14       9.1803     6.4500    -2.4348  C.ar    1  <O>11      -0.0477
  20 C15       9.2100     2.5349    -1.8162  C.ar    1  <O>11       0.0106
  21 C16      10.4688     2.9255    -2.3277  C.ar    1  <O>11      -0.0521
  22 C17      11.1965     2.0826    -3.1684  C.ar    1  <O>11      -0.0611
  23 C18      10.6797     0.8410    -3.5204  C.ar    1  <O>11      -0.0610
  24 C19       9.4353     0.4418    -3.0314  C.ar    1  <O>11      -0.0487
  25 C20       8.6875     1.2787    -2.1714  C.ar    1  <O>11       0.0496
  26 H1        5.8603     1.4136    -0.4062  H       1  <O>11       0.1921
  27 H2        9.9243     4.7707    -0.6448  H       1  <O>11       0.0377
  28 H3        8.4489     4.9842     0.3287  H       1  <O>11       0.0377
  29 H4        6.2658     5.2100    -1.3109  H       1  <O>11       0.0621
  30 H5        5.3994     6.7369    -2.9872  H       1  <O>11       0.0646
  31 H6        8.8072     9.9965    -3.5371  H       1  <O>11       0.0639
  32 H7       10.3064    11.2643    -4.9140  H       1  <O>11       0.0830
  33 H8       12.0711     7.8804    -6.3730  H       1  <O>11       0.0830
  34 H9       10.6129     6.4998    -5.0333  H       1  <O>11       0.0639
  35 H10      10.1992     6.3804    -2.2859  H       1  <O>11       0.0627
  36 H11      10.8555     3.8484    -2.0753  H       1  <O>11       0.0624
  37 H12      12.1168     2.3803    -3.5283  H       1  <O>11       0.0618
  38 H13      11.2155     0.2156    -4.1423  H       1  <O>11       0.0618
  39 H14       9.0548    -0.4786    -3.3016  H       1  <O>11       0.0625
@<TRIPOS>BOND
     1     1     2    2
     2     2     3   ar
     3     3     4   ar
     4     4     5   ar
     5     5     6    1
     6     6     7    1
     7     7     8   ar
     8     8     9   ar
     9     9    10   ar
    10    10    11    1
    11    10    12   ar
    12    12    13    1
    13    13    14   ar
    14    14    15   ar
    15    15    16   ar
    16    16    17   ar
    17    17    18   ar
    18    13    18   ar
    19    12    19   ar
    20     7    19   ar
    21     5    20   ar
    22    20    21   ar
    23    21    22   ar
    24    22    23   ar
    25    23    24   ar
    26    24    25   ar
    27     2    25   ar
    28    20    25   ar
    29     3    26    1
    30     6    27    1
    31     6    28    1
    32     8    29    1
    33     9    30    1
    34    14    31    1
    35    15    32    1
    36    17    33    1
    37    18    34    1
    38    19    35    1
    39    21    36    1
    40    22    37    1
    41    23    38    1
    42    24    39    1
@<TRIPOS>MOLECULE
mol74_1_2
 39 42 0 0 0
SMALL
USER_CHARGES
****
VDW energy = -37.69
@<TRIPOS>ATOM
   1 O1        6.7938    -0.2446    -2.0599  O.2     1  <O>11      -0.2658
   2 C1        7.4213     0.9528    -1.6663  C.ar    1  <O>11       0.2725
   3 N1        6.7347     1.7343    -0.7968  N.ar    1  <O>11      -0.2425
   4 N2        7.2340     2.9457    -0.4598  N.ar    1  <O>11      -0.1750
   5 C2        8.4134     3.3437    -0.9933  C.ar    1  <O>11       0.0736
   6 C3        8.8350     4.7170    -0.6550  C.3     1  <O>11       0.0171
   7 C4        9.6503     4.6931     0.5874  C.ar    1  <O>11      -0.0408
   8 C5       11.0447     4.5362     0.5173  C.ar    1  <O>11      -0.0555
   9 C6       11.8102     4.5011     1.6885  C.ar    1  <O>11      -0.0256
  10 C7       11.1945     4.6265     2.9362  C.ar    1  <O>11       0.1311
  11 F1       11.9378     4.5904     4.0862  F       1  <O>11      -0.2049
  12 C8        9.8047     4.7896     3.0060  C.ar    1  <O>11       0.0177
  13 C9        9.1810     4.9199     4.2810  C.ar    1  <O>11      -0.0123
  14 C10       9.0049     6.1744     4.8660  C.ar    1  <O>11      -0.0358
  15 C11       8.4139     6.2363     6.1149  C.ar    1  <O>11       0.0281
  16 N3        7.9889     5.1557     6.8007  N.ar    1  <O>11      -0.2632
  17 C12       8.1433     3.9488     6.2333  C.ar    1  <O>11       0.0281
  18 C13       8.7300     3.7943     4.9780  C.ar    1  <O>11      -0.0358
  19 C14       9.0336     4.8267     1.8428  C.ar    1  <O>11      -0.0477
  20 C15       9.2100     2.5349    -1.8162  C.ar    1  <O>11       0.0106
  21 C16      10.4688     2.9255    -2.3277  C.ar    1  <O>11      -0.0521
  22 C17      11.1965     2.0826    -3.1684  C.ar    1  <O>11      -0.0611
  23 C18      10.6797     0.8410    -3.5204  C.ar    1  <O>11      -0.0610
  24 C19       9.4353     0.4418    -3.0314  C.ar    1  <O>11      -0.0487
  25 C20       8.6875     1.2787    -2.1714  C.ar    1  <O>11       0.0496
  26 H1        5.8603     1.4136    -0.4062  H       1  <O>11       0.1921
  27 H2        7.9533     5.3397    -0.4986  H       1  <O>11       0.0377
  28 H3        9.4290     5.1268    -1.4719  H       1  <O>11       0.0377
  29 H4       11.5064     4.4464    -0.4013  H       1  <O>11       0.0621
  30 H5       12.8336     4.3821     1.6301  H       1  <O>11       0.0646
  31 H6        9.3075     7.0329     4.3800  H       1  <O>11       0.0639
  32 H7        8.2908     7.1650     6.5478  H       1  <O>11       0.0830
  33 H8        7.8183     3.1112     6.7411  H       1  <O>11       0.0830
  34 H9        8.8311     2.8539     4.5650  H       1  <O>11       0.0639
  35 H10       8.0111     4.9522     1.9050  H       1  <O>11       0.0627
  36 H11      10.8555     3.8484    -2.0753  H       1  <O>11       0.0624
  37 H12      12.1168     2.3803    -3.5283  H       1  <O>11       0.0618
  38 H13      11.2155     0.2156    -4.1423  H       1  <O>11       0.0618
  39 H14       9.0548    -0.4786    -3.3016  H       1  <O>11       0.0625
@<TRIPOS>BOND
     1     1     2    2
     2     2     3   ar
     3     3     4   ar
     4     4     5   ar
     5     5     6    1
     6     6     7    1
     7     7     8   ar
     8     8     9   ar
     9     9    10   ar
    10    10    11    1
    11    10    12   ar
    12    12    13    1
    13    13    14   ar
    14    14    15   ar
    15    15    16   ar
    16    16    17   ar
    17    17    18   ar
    18    13    18   ar
    19    12    19   ar
    20     7    19   ar
    21     5    20   ar
    22    20    21   ar
    23    21    22   ar
    24    22    23   ar
    25    23    24   ar
    26    24    25   ar
    27     2    25   ar
    28    20    25   ar
    29     3    26    1
    30     6    27    1
    31     6    28    1
    32     8    29    1
    33     9    30    1
    34    14    31    1
    35    15    32    1
    36    17    33    1
    37    18    34    1
    38    19    35    1
    39    21    36    1
    40    22    37    1
    41    23    38    1
    42    24    39    1
@<TRIPOS>MOLECULE
mol74_1_3
 39 42 0 0 0
SMALL
USER_CHARGES
****
VDW energy = -37.60
@<TRIPOS>ATOM
   1 O1        6.7938    -0.2446    -2.0599  O.2     1  <O>11      -0.2658
   2 C1        7.4213     0.9528    -1.6663  C.ar    1  <O>11       0.2725
   3 N1        6.7347     1.7343    -0.7968  N.ar    1  <O>11      -0.2425
   4 N2        7.2340     2.9457    -0.4598  N.ar    1  <O>11      -0.1750
   5 C2        8.4134     3.3437    -0.9933  C.ar    1  <O>11       0.0736
   6 C3        8.8350     4.7170    -0.6550  C.3     1  <O>11       0.0171
   7 C4        8.3028     5.6629    -1.6702  C.ar    1  <O>11      -0.0408
   8 C5        7.0433     6.2596    -1.4919  C.ar    1  <O>11      -0.0555
   9 C6        6.5376     7.1405    -2.4547  C.ar    1  <O>11      -0.0256
  10 C7        7.2827     7.4371    -3.5984  C.ar    1  <O>11       0.1311
  11 F1        6.7922     8.2964    -4.5456  F       1  <O>11      -0.2049
  12 C8        8.5416     6.8474    -3.7733  C.ar    1  <O>11       0.0177
  13 C9        9.2998     7.1551    -4.9404  C.ar    1  <O>11      -0.0123
  14 C10       9.6838     8.4674    -5.2183  C.ar    1  <O>11      -0.0358
  15 C11      10.3988     8.7080    -6.3774  C.ar    1  <O>11       0.0281
  16 N3       10.7554     7.7477    -7.2546  N.ar    1  <O>11      -0.2632
  17 C12      10.4004     6.4820    -6.9818  C.ar    1  <O>11       0.0281
  18 C13       9.6777     6.1499    -5.8366  C.ar    1  <O>11      -0.0358
  19 C14       9.0543     5.9684    -2.8175  C.ar    1  <O>11      -0.0477
  20 C15       9.2100     2.5349    -1.8162  C.ar    1  <O>11       0.0106
  21 C16      10.4688     2.9255    -2.3277  C.ar    1  <O>11      -0.0521
  22 C17      11.1965     2.0826    -3.1684  C.ar    1  <O>11      -0.0611
  23 C18      10.6797     0.8410    -3.5204  C.ar    1  <O>11      -0.0610
  24 C19       9.4353     0.4418    -3.0314  C.ar    1  <O>11      -0.0487
  25 C20       8.6875     1.2787    -2.1714  C.ar    1  <O>11       0.0496
  26 H1        5.8603     1.4136    -0.4062  H       1  <O>11       0.1921
  27 H2        9.9243     4.7707    -0.6448  H       1  <O>11       0.0377
  28 H3        8.4489     4.9842     0.3287  H       1  <O>11       0.0377
  29 H4        6.4890     6.0475    -0.6476  H       1  <O>11       0.0621
  30 H5        5.6102     7.5726    -2.3192  H       1  <O>11       0.0646
  31 H6        9.4409     9.2378    -4.5761  H       1  <O>11       0.0639
  32 H7       10.6760     9.6804    -6.5835  H       1  <O>11       0.0830
  33 H8       10.6700     5.7333    -7.6388  H       1  <O>11       0.0830
  34 H9        9.4229     5.1672    -5.6511  H       1  <O>11       0.0639
  35 H10       9.9848     5.5432    -2.9535  H       1  <O>11       0.0627
  36 H11      10.8555     3.8484    -2.0753  H       1  <O>11       0.0624
  37 H12      12.1168     2.3803    -3.5283  H       1  <O>11       0.0618
  38 H13      11.2155     0.2156    -4.1423  H       1  <O>11       0.0618
  39 H14       9.0548    -0.4786    -3.3016  H       1  <O>11       0.0625
@<TRIPOS>BOND
     1     1     2    2
     2     2     3   ar
     3     3     4   ar
     4     4     5   ar
     5     5     6    1
     6     6     7    1
     7     7     8   ar
     8     8     9   ar
     9     9    10   ar
    10    10    11    1
    11    10    12   ar
    12    12    13    1
    13    13    14   ar
    14    14    15   ar
    15    15    16   ar
    16    16    17   ar
    17    17    18   ar
    18    13    18   ar
    19    12    19   ar
    20     7    19   ar
    21     5    20   ar
    22    20    21   ar
    23    21    22   ar
    24    22    23   ar
    25    23    24   ar
    26    24    25   ar
    27     2    25   ar
    28    20    25   ar
    29     3    26    1
    30     6    27    1
    31     6    28    1
    32     8    29    1
    33     9    30    1
    34    14    31    1
    35    15    32    1
    36    17    33    1
    37    18    34    1
    38    19    35    1
    39    21    36    1
    40    22    37    1
    41    23    38    1
    42    24    39    1
@<TRIPOS>MOLECULE
mol74_1_4
 39 42 0 0 0
SMALL
USER_CHARGES
****
VDW energy = -37.44
@<TRIPOS>ATOM
   1 O1        6.7938    -0.2446    -2.0599  O.2     1  <O>11      -0.2658
   2 C1        7.4213     0.9528    -1.6663  C.ar    1  <O>11       0.2725
   3 N1        6.7347     1.7343    -0.7968  N.ar    1  <O>11      -0.2425
   4 N2        7.2340     2.9457    -0.4598  N.ar    1  <O>11      -0.1750
   5 C2        8.4134     3.3437    -0.9933  C.ar    1  <O>11       0.0736
   6 C3        8.8350     4.7170    -0.6550  C.3     1  <O>11       0.0171
   7 C4        8.3028     5.6629    -1.6702  C.ar    1  <O>11      -0.0408
   8 C5        7.0433     6.2596    -1.4919  C.ar    1  <O>11      -0.0555
   9 C6        6.5376     7.1405    -2.4547  C.ar    1  <O>11      -0.0256
  10 C7        7.2827     7.4371    -3.5984  C.ar    1  <O>11       0.1311
  11 F1        6.7922     8.2964    -4.5456  F       1  <O>11      -0.2049
  12 C8        8.5416     6.8474    -3.7733  C.ar    1  <O>11       0.0177
  13 C9        9.2998     7.1551    -4.9404  C.ar    1  <O>11      -0.0123
  14 C10       8.7997     6.8747    -6.2125  C.ar    1  <O>11      -0.0358
  15 C11       9.5905     7.1747    -7.3067  C.ar    1  <O>11       0.0281
  16 N3       10.8161     7.7305    -7.2197  N.ar    1  <O>11      -0.2632
  17 C12      11.2933     8.0153    -5.9976  C.ar    1  <O>11       0.0281
  18 C13      10.5639     7.7452    -4.8404  C.ar    1  <O>11      -0.0358
  19 C14       9.0543     5.9684    -2.8175  C.ar    1  <O>11      -0.0477
  20 C15       9.2100     2.5349    -1.8162  C.ar    1  <O>11       0.0106
  21 C16      10.4688     2.9255    -2.3277  C.ar    1  <O>11      -0.0521
  22 C17      11.1965     2.0826    -3.1684  C.ar    1  <O>11      -0.0611
  23 C18      10.6797     0.8410    -3.5204  C.ar    1  <O>11      -0.0610
  24 C19       9.4353     0.4418    -3.0314  C.ar    1  <O>11      -0.0487
  25 C20       8.6875     1.2787    -2.1714  C.ar    1  <O>11       0.0496
  26 H1        5.8603     1.4136    -0.4062  H       1  <O>11       0.1921
  27 H2        9.9243     4.7707    -0.6448  H       1  <O>11       0.0377
  28 H3        8.4489     4.9842     0.3287  H       1  <O>11       0.0377
  29 H4        6.4890     6.0475    -0.6476  H       1  <O>11       0.0621
  30 H5        5.6102     7.5726    -2.3192  H       1  <O>11       0.0646
  31 H6        7.8648     6.4549    -6.3336  H       1  <O>11       0.0639
  32 H7        9.2205     6.9605    -8.2460  H       1  <O>11       0.0830
  33 H8       12.2270     8.4465    -5.9122  H       1  <O>11       0.0830
  34 H9       10.9549     7.9796    -3.9145  H       1  <O>11       0.0639
  35 H10       9.9848     5.5432    -2.9535  H       1  <O>11       0.0627
  36 H11      10.8555     3.8484    -2.0753  H       1  <O>11       0.0624
  37 H12      12.1168     2.3803    -3.5283  H       1  <O>11       0.0618
  38 H13      11.2155     0.2156    -4.1423  H       1  <O>11       0.0618
  39 H14       9.0548    -0.4786    -3.3016  H       1  <O>11       0.0625
@<TRIPOS>BOND
     1     1     2    2
     2     2     3   ar
     3     3     4   ar
     4     4     5   ar
     5     5     6    1
     6     6     7    1
     7     7     8   ar
     8     8     9   ar
     9     9    10   ar
    10    10    11    1
    11    10    12   ar
    12    12    13    1
    13    13    14   ar
    14    14    15   ar
    15    15    16   ar
    16    16    17   ar
    17    17    18   ar
    18    13    18   ar
    19    12    19   ar
    20     7    19   ar
    21     5    20   ar
    22    20    21   ar
    23    21    22   ar
    24    22    23   ar
    25    23    24   ar
    26    24    25   ar
    27     2    25   ar
    28    20    25   ar
    29     3    26    1
    30     6    27    1
    31     6    28    1
    32     8    29    1
    33     9    30    1
    34    14    31    1
    35    15    32    1
    36    17    33    1
    37    18    34    1
    38    19    35    1
    39    21    36    1
    40    22    37    1
    41    23    38    1
    42    24    39    1
@<TRIPOS>MOLECULE
mol74_1_5
 39 42 0 0 0
SMALL
USER_CHARGES
****
VDW energy = -35.61
@<TRIPOS>ATOM
   1 O1        6.7938    -0.2446    -2.0599  O.2     1  <O>11      -0.2658
   2 C1        7.4213     0.9528    -1.6663  C.ar    1  <O>11       0.2725
   3 N1        6.7347     1.7343    -0.7968  N.ar    1  <O>11      -0.2425
   4 N2        7.2340     2.9457    -0.4598  N.ar    1  <O>11      -0.1750
   5 C2        8.4134     3.3437    -0.9933  C.ar    1  <O>11       0.0736
   6 C3        8.8350     4.7170    -0.6550  C.3     1  <O>11       0.0171
   7 C4        8.3028     5.6629    -1.6702  C.ar    1  <O>11      -0.0408
   8 C5        8.6592     5.5260    -3.0224  C.ar    1  <O>11      -0.0555
   9 C6        8.1675     6.4249    -3.9758  C.ar    1  <O>11      -0.0256
  10 C7        7.3148     7.4625    -3.5915  C.ar    1  <O>11       0.1311
  11 F1        6.8323     8.3471    -4.5195  F       1  <O>11      -0.2049
  12 C8        6.9539     7.5952    -2.2442  C.ar    1  <O>11       0.0177
  13 C9        6.0814     8.6538    -1.8569  C.ar    1  <O>11      -0.0123
  14 C10       4.6980     8.4722    -1.8458  C.ar    1  <O>11      -0.0358
  15 C11       3.9010     9.5427    -1.4829  C.ar    1  <O>11       0.0281
  16 N3        4.3808    10.7528    -1.1304  N.ar    1  <O>11      -0.2632
  17 C12       5.7122    10.9254    -1.1256  C.ar    1  <O>11       0.0281
  18 C13       6.5894     9.9008    -1.4787  C.ar    1  <O>11      -0.0358
  19 C14       7.4389     6.7025    -1.2867  C.ar    1  <O>11      -0.0477
  20 C15       9.2100     2.5349    -1.8162  C.ar    1  <O>11       0.0106
  21 C16      10.4688     2.9255    -2.3277  C.ar    1  <O>11      -0.0521
  22 C17      11.1965     2.0826    -3.1684  C.ar    1  <O>11      -0.0611
  23 C18      10.6797     0.8410    -3.5204  C.ar    1  <O>11      -0.0610
  24 C19       9.4353     0.4418    -3.0314  C.ar    1  <O>11      -0.0487
  25 C20       8.6875     1.2787    -2.1714  C.ar    1  <O>11       0.0496
  26 H1        5.8603     1.4136    -0.4062  H       1  <O>11       0.1921
  27 H2        9.9243     4.7707    -0.6448  H       1  <O>11       0.0377
  28 H3        8.4489     4.9842     0.3287  H       1  <O>11       0.0377
  29 H4        9.2860     4.7596    -3.3137  H       1  <O>11       0.0621
  30 H5        8.4360     6.3208    -4.9668  H       1  <O>11       0.0646
  31 H6        4.2807     7.5637    -2.1015  H       1  <O>11       0.0639
  32 H7        2.8779     9.4073    -1.4816  H       1  <O>11       0.0830
  33 H8        6.0975    11.8431    -0.8527  H       1  <O>11       0.0830
  34 H9        7.6087    10.0618    -1.4611  H       1  <O>11       0.0639
  35 H10       7.1630     6.8061    -0.2976  H       1  <O>11       0.0627
  36 H11      10.8555     3.8484    -2.0753  H       1  <O>11       0.0624
  37 H12      12.1168     2.3803    -3.5283  H       1  <O>11       0.0618
  38 H13      11.2155     0.2156    -4.1423  H       1  <O>11       0.0618
  39 H14       9.0548    -0.4786    -3.3016  H       1  <O>11       0.0625
@<TRIPOS>BOND
     1     1     2    2
     2     2     3   ar
     3     3     4   ar
     4     4     5   ar
     5     5     6    1
     6     6     7    1
     7     7     8   ar
     8     8     9   ar
     9     9    10   ar
    10    10    11    1
    11    10    12   ar
    12    12    13    1
    13    13    14   ar
    14    14    15   ar
    15    15    16   ar
    16    16    17   ar
    17    17    18   ar
    18    13    18   ar
    19    12    19   ar
    20     7    19   ar
    21     5    20   ar
    22    20    21   ar
    23    21    22   ar
    24    22    23   ar
    25    23    24   ar
    26    24    25   ar
    27     2    25   ar
    28    20    25   ar
    29     3    26    1
    30     6    27    1
    31     6    28    1
    32     8    29    1
    33     9    30    1
    34    14    31    1
    35    15    32    1
    36    17    33    1
    37    18    34    1
    38    19    35    1
    39    21    36    1
    40    22    37    1
    41    23    38    1
    42    24    39    1
@<TRIPOS>MOLECULE
mol74_1_6
 39 42 0 0 0
SMALL
USER_CHARGES
****
VDW energy = -35.23
@<TRIPOS>ATOM
   1 O1        6.7938    -0.2446    -2.0599  O.2     1  <O>11      -0.2658
   2 C1        7.4213     0.9528    -1.6663  C.ar    1  <O>11       0.2725
   3 N1        6.7347     1.7343    -0.7968  N.ar    1  <O>11      -0.2425
   4 N2        7.2340     2.9457    -0.4598  N.ar    1  <O>11      -0.1750
   5 C2        8.4134     3.3437    -0.9933  C.ar    1  <O>11       0.0736
   6 C3        8.8350     4.7170    -0.6550  C.3     1  <O>11       0.0171
   7 C4        8.3028     5.6629    -1.6702  C.ar    1  <O>11      -0.0408
   8 C5        8.7373     6.9989    -1.6911  C.ar    1  <O>11      -0.0555
   9 C6        8.2260     7.8920    -2.6396  C.ar    1  <O>11      -0.0256
  10 C7        7.2832     7.4613    -3.5761  C.ar    1  <O>11       0.1311
  11 F1        6.7771     8.3312    -4.5054  F       1  <O>11      -0.2049
  12 C8        6.8548     6.1274    -3.5598  C.ar    1  <O>11       0.0177
  13 C9        5.8947     5.6915    -4.5189  C.ar    1  <O>11      -0.0123
  14 C10       4.5281     5.7663    -4.2477  C.ar    1  <O>11      -0.0358
  15 C11       3.6448     5.3071    -5.2077  C.ar    1  <O>11       0.0281
  16 N3        4.0244     4.7969    -6.3970  N.ar    1  <O>11      -0.2632
  17 C12       5.3382     4.7380    -6.6667  C.ar    1  <O>11       0.0281
  18 C13       6.2979     5.1776    -5.7557  C.ar    1  <O>11      -0.0358
  19 C14       7.3602     5.2295    -2.6178  C.ar    1  <O>11      -0.0477
  20 C15       9.2100     2.5349    -1.8162  C.ar    1  <O>11       0.0106
  21 C16      10.4688     2.9255    -2.3277  C.ar    1  <O>11      -0.0521
  22 C17      11.1965     2.0826    -3.1684  C.ar    1  <O>11      -0.0611
  23 C18      10.6797     0.8410    -3.5204  C.ar    1  <O>11      -0.0610
  24 C19       9.4353     0.4418    -3.0314  C.ar    1  <O>11      -0.0487
  25 C20       8.6875     1.2787    -2.1714  C.ar    1  <O>11       0.0496
  26 H1        5.8603     1.4136    -0.4062  H       1  <O>11       0.1921
  27 H2        9.9243     4.7707    -0.6448  H       1  <O>11       0.0377
  28 H3        8.4489     4.9842     0.3287  H       1  <O>11       0.0377
  29 H4        9.4361     7.3229    -1.0043  H       1  <O>11       0.0621
  30 H5        8.5468     8.8728    -2.6472  H       1  <O>11       0.0646
  31 H6        4.1856     6.1539    -3.3547  H       1  <O>11       0.0639
  32 H7        2.6349     5.3578    -5.0017  H       1  <O>11       0.0830
  33 H8        5.6468     4.3562    -7.5744  H       1  <O>11       0.0830
  34 H9        7.3009     5.1242    -5.9929  H       1  <O>11       0.0639
  35 H10       7.0417     4.2478    -2.6175  H       1  <O>11       0.0627
  36 H11      10.8555     3.8484    -2.0753  H       1  <O>11       0.0624
  37 H12      12.1168     2.3803    -3.5283  H       1  <O>11       0.0618
  38 H13      11.2155     0.2156    -4.1423  H       1  <O>11       0.0618
  39 H14       9.0548    -0.4786    -3.3016  H       1  <O>11       0.0625
@<TRIPOS>BOND
     1     1     2    2
     2     2     3   ar
     3     3     4   ar
     4     4     5   ar
     5     5     6    1
     6     6     7    1
     7     7     8   ar
     8     8     9   ar
     9     9    10   ar
    10    10    11    1
    11    10    12   ar
    12    12    13    1
    13    13    14   ar
    14    14    15   ar
    15    15    16   ar
    16    16    17   ar
    17    17    18   ar
    18    13    18   ar
    19    12    19   ar
    20     7    19   ar
    21     5    20   ar
    22    20    21   ar
    23    21    22   ar
    24    22    23   ar
    25    23    24   ar
    26    24    25   ar
    27     2    25   ar
    28    20    25   ar
    29     3    26    1
    30     6    27    1
    31     6    28    1
    32     8    29    1
    33     9    30    1
    34    14    31    1
    35    15    32    1
    36    17    33    1
    37    18    34    1
    38    19    35    1
    39    21    36    1
    40    22    37    1
    41    23    38    1
    42    24    39    1
@<TRIPOS>MOLECULE
mol74_1_7
 39 42 0 0 0
SMALL
USER_CHARGES
****
VDW energy = -33.75
@<TRIPOS>ATOM
   1 O1        6.7938    -0.2446    -2.0599  O.2     1  <O>11      -0.2658
   2 C1        7.4213     0.9528    -1.6663  C.ar    1  <O>11       0.2725
   3 N1        6.7347     1.7343    -0.7968  N.ar    1  <O>11      -0.2425
   4 N2        7.2340     2.9457    -0.4598  N.ar    1  <O>11      -0.1750
   5 C2        8.4134     3.3437    -0.9933  C.ar    1  <O>11       0.0736
   6 C3        8.8350     4.7170    -0.6550  C.3     1  <O>11       0.0171
   7 C4        7.8150     5.3460     0.2240  C.ar    1  <O>11      -0.0408
   8 C5        7.5026     4.7746     1.4690  C.ar    1  <O>11      -0.0555
   9 C6        6.5328     5.3607     2.2905  C.ar    1  <O>11      -0.0256
  10 C7        5.8711     6.5209     1.8814  C.ar    1  <O>11       0.1311
  11 F1        4.9191     7.0978     2.6797  F       1  <O>11      -0.2049
  12 C8        6.1872     7.0946     0.6428  C.ar    1  <O>11       0.0177
  13 C9        5.5115     8.2800     0.2305  C.ar    1  <O>11      -0.0123
  14 C10       4.3253     8.2093    -0.5007  C.ar    1  <O>11      -0.0358
  15 C11       3.7271     9.3931    -0.8925  C.ar    1  <O>11       0.0281
  16 N3        4.2175    10.6157    -0.6034  N.ar    1  <O>11      -0.2632
  17 C12       5.3505    10.6867     0.1132  C.ar    1  <O>11       0.0281
  18 C13       6.0202     9.5436     0.5480  C.ar    1  <O>11      -0.0358
  19 C14       7.1539     6.5173    -0.1825  C.ar    1  <O>11      -0.0477
  20 C15       9.2100     2.5349    -1.8162  C.ar    1  <O>11       0.0106
  21 C16      10.4688     2.9255    -2.3277  C.ar    1  <O>11      -0.0521
  22 C17      11.1965     2.0826    -3.1684  C.ar    1  <O>11      -0.0611
  23 C18      10.6797     0.8410    -3.5204  C.ar    1  <O>11      -0.0610
  24 C19       9.4353     0.4418    -3.0314  C.ar    1  <O>11      -0.0487
  25 C20       8.6875     1.2787    -2.1714  C.ar    1  <O>11       0.0496
  26 H1        5.8603     1.4136    -0.4062  H       1  <O>11       0.1921
  27 H2        8.9360     5.3020    -1.5700  H       1  <O>11       0.0377
  28 H3        9.7930     4.6860    -0.1360  H       1  <O>11       0.0377
  29 H4        7.9901     3.9194     1.7790  H       1  <O>11       0.0621
  30 H5        6.3057     4.9339     3.2023  H       1  <O>11       0.0646
  31 H6        3.9055     7.2982    -0.7428  H       1  <O>11       0.0639
  32 H7        2.8532     9.3376    -1.4387  H       1  <O>11       0.0830
  33 H8        5.7371    11.6140     0.3489  H       1  <O>11       0.0830
  34 H9        6.8870     9.6295     1.1015  H       1  <O>11       0.0639
  35 H10       7.3828     6.9506    -1.0908  H       1  <O>11       0.0627
  36 H11      10.8555     3.8484    -2.0753  H       1  <O>11       0.0624
  37 H12      12.1168     2.3803    -3.5283  H       1  <O>11       0.0618
  38 H13      11.2155     0.2156    -4.1423  H       1  <O>11       0.0618
  39 H14       9.0548    -0.4786    -3.3016  H       1  <O>11       0.0625
@<TRIPOS>BOND
     1     1     2    2
     2     2     3   ar
     3     3     4   ar
     4     4     5   ar
     5     5     6    1
     6     6     7    1
     7     7     8   ar
     8     8     9   ar
     9     9    10   ar
    10    10    11    1
    11    10    12   ar
    12    12    13    1
    13    13    14   ar
    14    14    15   ar
    15    15    16   ar
    16    16    17   ar
    17    17    18   ar
    18    13    18   ar
    19    12    19   ar
    20     7    19   ar
    21     5    20   ar
    22    20    21   ar
    23    21    22   ar
    24    22    23   ar
    25    23    24   ar
    26    24    25   ar
    27     2    25   ar
    28    20    25   ar
    29     3    26    1
    30     6    27    1
    31     6    28    1
    32     8    29    1
    33     9    30    1
    34    14    31    1
    35    15    32    1
    36    17    33    1
    37    18    34    1
    38    19    35    1
    39    21    36    1
    40    22    37    1
    41    23    38    1
    42    24    39    1
@<TRIPOS>MOLECULE
mol74_1_8
 39 42 0 0 0
SMALL
USER_CHARGES
****
VDW energy = -33.63
@<TRIPOS>ATOM
   1 O1        6.7938    -0.2446    -2.0599  O.2     1  <O>11      -0.2658
   2 C1        7.4213     0.9528    -1.6663  C.ar    1  <O>11       0.2725
   3 N1        6.7347     1.7343    -0.7968  N.ar    1  <O>11      -0.2425
   4 N2        7.2340     2.9457    -0.4598  N.ar    1  <O>11      -0.1750
   5 C2        8.4134     3.3437    -0.9933  C.ar    1  <O>11       0.0736
   6 C3        8.8350     4.7170    -0.6550  C.3     1  <O>11       0.0171
   7 C4        8.3028     5.6629    -1.6702  C.ar    1  <O>11      -0.0408
   8 C5        8.6592     5.5260    -3.0224  C.ar    1  <O>11      -0.0555
   9 C6        8.1675     6.4249    -3.9758  C.ar    1  <O>11      -0.0256
  10 C7        7.3148     7.4625    -3.5915  C.ar    1  <O>11       0.1311
  11 F1        6.8323     8.3471    -4.5195  F       1  <O>11      -0.2049
  12 C8        6.9539     7.5952    -2.2442  C.ar    1  <O>11       0.0177
  13 C9        6.0814     8.6538    -1.8569  C.ar    1  <O>11      -0.0123
  14 C10       4.7959     8.7522    -2.3905  C.ar    1  <O>11      -0.0358
  15 C11       4.0031     9.8139    -1.9942  C.ar    1  <O>11       0.0281
  16 N3        4.3947    10.7585    -1.1150  N.ar    1  <O>11      -0.2632
  17 C12       5.6255    10.6575    -0.5886  C.ar    1  <O>11       0.0281
  18 C13       6.4915     9.6204    -0.9330  C.ar    1  <O>11      -0.0358
  19 C14       7.4389     6.7025    -1.2867  C.ar    1  <O>11      -0.0477
  20 C15       9.2100     2.5349    -1.8162  C.ar    1  <O>11       0.0106
  21 C16      10.4688     2.9255    -2.3277  C.ar    1  <O>11      -0.0521
  22 C17      11.1965     2.0826    -3.1684  C.ar    1  <O>11      -0.0611
  23 C18      10.6797     0.8410    -3.5204  C.ar    1  <O>11      -0.0610
  24 C19       9.4353     0.4418    -3.0314  C.ar    1  <O>11      -0.0487
  25 C20       8.6875     1.2787    -2.1714  C.ar    1  <O>11       0.0496
  26 H1        5.8603     1.4136    -0.4062  H       1  <O>11       0.1921
  27 H2        9.9243     4.7707    -0.6448  H       1  <O>11       0.0377
  28 H3        8.4489     4.9842     0.3287  H       1  <O>11       0.0377
  29 H4        9.2860     4.7596    -3.3137  H       1  <O>11       0.0621
  30 H5        8.4360     6.3208    -4.9668  H       1  <O>11       0.0646
  31 H6        4.4461     8.0517    -3.0627  H       1  <O>11       0.0639
  32 H7        3.0551     9.8876    -2.3953  H       1  <O>11       0.0830
  33 H8        5.9399    11.3681     0.0906  H       1  <O>11       0.0830
  34 H9        7.4304     9.5662    -0.5081  H       1  <O>11       0.0639
  35 H10       7.1630     6.8061    -0.2976  H       1  <O>11       0.0627
  36 H11      10.8555     3.8484    -2.0753  H       1  <O>11       0.0624
  37 H12      12.1168     2.3803    -3.5283  H       1  <O>11       0.0618
  38 H13      11.2155     0.2156    -4.1423  H       1  <O>11       0.0618
  39 H14       9.0548    -0.4786    -3.3016  H       1  <O>11       0.0625
@<TRIPOS>BOND
     1     1     2    2
     2     2     3   ar
     3     3     4   ar
     4     4     5   ar
     5     5     6    1
     6     6     7    1
     7     7     8   ar
     8     8     9   ar
     9     9    10   ar
    10    10    11    1
    11    10    12   ar
    12    12    13    1
    13    13    14   ar
    14    14    15   ar
    15    15    16   ar
    16    16    17   ar
    17    17    18   ar
    18    13    18   ar
    19    12    19   ar
    20     7    19   ar
    21     5    20   ar
    22    20    21   ar
    23    21    22   ar
    24    22    23   ar
    25    23    24   ar
    26    24    25   ar
    27     2    25   ar
    28    20    25   ar
    29     3    26    1
    30     6    27    1
    31     6    28    1
    32     8    29    1
    33     9    30    1
    34    14    31    1
    35    15    32    1
    36    17    33    1
    37    18    34    1
    38    19    35    1
    39    21    36    1
    40    22    37    1
    41    23    38    1
    42    24    39    1
@<TRIPOS>MOLECULE
mol74_1_9
 39 42 0 0 0
SMALL
USER_CHARGES
****
VDW energy = -33.63
@<TRIPOS>ATOM
   1 O1        6.7938    -0.2446    -2.0599  O.2     1  <O>11      -0.2658
   2 C1        7.4213     0.9528    -1.6663  C.ar    1  <O>11       0.2725
   3 N1        6.7347     1.7343    -0.7968  N.ar    1  <O>11      -0.2425
   4 N2        7.2340     2.9457    -0.4598  N.ar    1  <O>11      -0.1750
   5 C2        8.4134     3.3437    -0.9933  C.ar    1  <O>11       0.0736
   6 C3        8.8350     4.7170    -0.6550  C.3     1  <O>11       0.0171
   7 C4        8.3028     5.6629    -1.6702  C.ar    1  <O>11      -0.0408
   8 C5        8.6592     5.5260    -3.0224  C.ar    1  <O>11      -0.0555
   9 C6        8.1675     6.4249    -3.9758  C.ar    1  <O>11      -0.0256
  10 C7        7.3148     7.4625    -3.5915  C.ar    1  <O>11       0.1311
  11 F1        6.8323     8.3471    -4.5195  F       1  <O>11      -0.2049
  12 C8        6.9539     7.5952    -2.2442  C.ar    1  <O>11       0.0177
  13 C9        6.0814     8.6538    -1.8569  C.ar    1  <O>11      -0.0123
  14 C10       6.4339     9.9863    -2.0733  C.ar    1  <O>11      -0.0358
  15 C11       5.5570    10.9708    -1.6555  C.ar    1  <O>11       0.0281
  16 N3        4.3746    10.7207    -1.0570  N.ar    1  <O>11      -0.2632
  17 C12       4.0262     9.4391    -0.8615  C.ar    1  <O>11       0.0281
  18 C13       4.8505     8.3838    -1.2502  C.ar    1  <O>11      -0.0358
  19 C14       7.4389     6.7025    -1.2867  C.ar    1  <O>11      -0.0477
  20 C15       9.2100     2.5349    -1.8162  C.ar    1  <O>11       0.0106
  21 C16      10.4688     2.9255    -2.3277  C.ar    1  <O>11      -0.0521
  22 C17      11.1965     2.0826    -3.1684  C.ar    1  <O>11      -0.0611
  23 C18      10.6797     0.8410    -3.5204  C.ar    1  <O>11      -0.0610
  24 C19       9.4353     0.4418    -3.0314  C.ar    1  <O>11      -0.0487
  25 C20       8.6875     1.2787    -2.1714  C.ar    1  <O>11       0.0496
  26 H1        5.8603     1.4136    -0.4062  H       1  <O>11       0.1921
  27 H2        9.9243     4.7707    -0.6448  H       1  <O>11       0.0377
  28 H3        8.4489     4.9842     0.3287  H       1  <O>11       0.0377
  29 H4        9.2860     4.7596    -3.3137  H       1  <O>11       0.0621
  30 H5        8.4360     6.3208    -4.9668  H       1  <O>11       0.0646
  31 H6        7.3251    10.2309    -2.5327  H       1  <O>11       0.0639
  32 H7        5.8233    11.9556    -1.8112  H       1  <O>11       0.0830
  33 H8        3.1222     9.2288    -0.4104  H       1  <O>11       0.0830
  34 H9        4.5537     7.4083    -1.0911  H       1  <O>11       0.0639
  35 H10       7.1630     6.8061    -0.2976  H       1  <O>11       0.0627
  36 H11      10.8555     3.8484    -2.0753  H       1  <O>11       0.0624
  37 H12      12.1168     2.3803    -3.5283  H       1  <O>11       0.0618
  38 H13      11.2155     0.2156    -4.1423  H       1  <O>11       0.0618
  39 H14       9.0548    -0.4786    -3.3016  H       1  <O>11       0.0625
@<TRIPOS>BOND
     1     1     2    2
     2     2     3   ar
     3     3     4   ar
     4     4     5   ar
     5     5     6    1
     6     6     7    1
     7     7     8   ar
     8     8     9   ar
     9     9    10   ar
    10    10    11    1
    11    10    12   ar
    12    12    13    1
    13    13    14   ar
    14    14    15   ar
    15    15    16   ar
    16    16    17   ar
    17    17    18   ar
    18    13    18   ar
    19    12    19   ar
    20     7    19   ar
    21     5    20   ar
    22    20    21   ar
    23    21    22   ar
    24    22    23   ar
    25    23    24   ar
    26    24    25   ar
    27     2    25   ar
    28    20    25   ar
    29     3    26    1
    30     6    27    1
    31     6    28    1
    32     8    29    1
    33     9    30    1
    34    14    31    1
    35    15    32    1
    36    17    33    1
    37    18    34    1
    38    19    35    1
    39    21    36    1
    40    22    37    1
    41    23    38    1
    42    24    39    1
@<TRIPOS>MOLECULE
mol74_1_10
 39 42 0 0 0
SMALL
USER_CHARGES
****
VDW energy = -33.37
@<TRIPOS>ATOM
   1 O1        6.7938    -0.2446    -2.0599  O.2     1  <O>11      -0.2658
   2 C1        7.4213     0.9528    -1.6663  C.ar    1  <O>11       0.2725
   3 N1        6.7347     1.7343    -0.7968  N.ar    1  <O>11      -0.2425
   4 N2        7.2340     2.9457    -0.4598  N.ar    1  <O>11      -0.1750
   5 C2        8.4134     3.3437    -0.9933  C.ar    1  <O>11       0.0736
   6 C3        8.8350     4.7170    -0.6550  C.3     1  <O>11       0.0171
   7 C4        8.3028     5.6629    -1.6702  C.ar    1  <O>11      -0.0408
   8 C5        8.7373     6.9989    -1.6911  C.ar    1  <O>11      -0.0555
   9 C6        8.2260     7.8920    -2.6396  C.ar    1  <O>11      -0.0256
  10 C7        7.2832     7.4613    -3.5761  C.ar    1  <O>11       0.1311
  11 F1        6.7771     8.3312    -4.5054  F       1  <O>11      -0.2049
  12 C8        6.8548     6.1274    -3.5598  C.ar    1  <O>11       0.0177
  13 C9        5.8947     5.6915    -4.5189  C.ar    1  <O>11      -0.0123
  14 C10       4.6304     6.2781    -4.5827  C.ar    1  <O>11      -0.0358
  15 C11       3.7330     5.7977    -5.5190  C.ar    1  <O>11       0.0281
  16 N3        4.0088     4.7990    -6.3823  N.ar    1  <O>11      -0.2632
  17 C12       5.2298     4.2432    -6.3333  C.ar    1  <O>11       0.0281
  18 C13       6.1953     4.6649    -5.4201  C.ar    1  <O>11      -0.0358
  19 C14       7.3602     5.2295    -2.6178  C.ar    1  <O>11      -0.0477
  20 C15       9.2100     2.5349    -1.8162  C.ar    1  <O>11       0.0106
  21 C16      10.4688     2.9255    -2.3277  C.ar    1  <O>11      -0.0521
  22 C17      11.1965     2.0826    -3.1684  C.ar    1  <O>11      -0.0611
  23 C18      10.6797     0.8410    -3.5204  C.ar    1  <O>11      -0.0610
  24 C19       9.4353     0.4418    -3.0314  C.ar    1  <O>11      -0.0487
  25 C20       8.6875     1.2787    -2.1714  C.ar    1  <O>11       0.0496
  26 H1        5.8603     1.4136    -0.4062  H       1  <O>11       0.1921
  27 H2        9.9243     4.7707    -0.6448  H       1  <O>11       0.0377
  28 H3        8.4489     4.9842     0.3287  H       1  <O>11       0.0377
  29 H4        9.4361     7.3229    -1.0043  H       1  <O>11       0.0621
  30 H5        8.5468     8.8728    -2.6472  H       1  <O>11       0.0646
  31 H6        4.3716     7.0498    -3.9481  H       1  <O>11       0.0639
  32 H7        2.7965     6.2293    -5.5595  H       1  <O>11       0.0830
  33 H8        5.4605     3.4818    -6.9906  H       1  <O>11       0.0830
  34 H9        7.1273     4.2217    -5.4091  H       1  <O>11       0.0639
  35 H10       7.0417     4.2478    -2.6175  H       1  <O>11       0.0627
  36 H11      10.8555     3.8484    -2.0753  H       1  <O>11       0.0624
  37 H12      12.1168     2.3803    -3.5283  H       1  <O>11       0.0618
  38 H13      11.2155     0.2156    -4.1423  H       1  <O>11       0.0618
  39 H14       9.0548    -0.4786    -3.3016  H       1  <O>11       0.0625
@<TRIPOS>BOND
     1     1     2    2
     2     2     3   ar
     3     3     4   ar
     4     4     5   ar
     5     5     6    1
     6     6     7    1
     7     7     8   ar
     8     8     9   ar
     9     9    10   ar
    10    10    11    1
    11    10    12   ar
    12    12    13    1
    13    13    14   ar
    14    14    15   ar
    15    15    16   ar
    16    16    17   ar
    17    17    18   ar
    18    13    18   ar
    19    12    19   ar
    20     7    19   ar
    21     5    20   ar
    22    20    21   ar
    23    21    22   ar
    24    22    23   ar
    25    23    24   ar
    26    24    25   ar
    27     2    25   ar
    28    20    25   ar
    29     3    26    1
    30     6    27    1
    31     6    28    1
    32     8    29    1
    33     9    30    1
    34    14    31    1
    35    15    32    1
    36    17    33    1
    37    18    34    1
    38    19    35    1
    39    21    36    1
    40    22    37    1
    41    23    38    1
    42    24    39    1
@<TRIPOS>MOLECULE
mol74_1_11
 39 42 0 0 0
SMALL
USER_CHARGES
****
VDW energy = -33.30
@<TRIPOS>ATOM
   1 O1        6.7938    -0.2446    -2.0599  O.2     1  <O>11      -0.2658
   2 C1        7.4213     0.9528    -1.6663  C.ar    1  <O>11       0.2725
   3 N1        6.7347     1.7343    -0.7968  N.ar    1  <O>11      -0.2425
   4 N2        7.2340     2.9457    -0.4598  N.ar    1  <O>11      -0.1750
   5 C2        8.4134     3.3437    -0.9933  C.ar    1  <O>11       0.0736
   6 C3        8.8350     4.7170    -0.6550  C.3     1  <O>11       0.0171
   7 C4        9.6503     4.6931     0.5874  C.ar    1  <O>11      -0.0408
   8 C5       10.8439     3.9536     0.6379  C.ar    1  <O>11      -0.0555
   9 C6       11.6044     3.9215     1.8124  C.ar    1  <O>11      -0.0256
  10 C7       11.1854     4.6281     2.9422  C.ar    1  <O>11       0.1311
  11 F1       11.9239     4.5986     4.0955  F       1  <O>11      -0.2049
  12 C8        9.9986     5.3710     2.8900  C.ar    1  <O>11       0.0177
  13 C9        9.5761     6.0927     4.0443  C.ar    1  <O>11      -0.0123
  14 C10       8.7484     5.4972     4.9967  C.ar    1  <O>11      -0.0358
  15 C11       8.3527     6.2544     6.0842  C.ar    1  <O>11       0.0281
  16 N3        8.7254     7.5348     6.2852  N.ar    1  <O>11      -0.2632
  17 C12       9.5342     8.1053     5.3782  C.ar    1  <O>11       0.0281
  18 C13       9.9801     7.4156     4.2514  C.ar    1  <O>11      -0.0358
  19 C14       9.2343     5.4094     1.7223  C.ar    1  <O>11      -0.0477
  20 C15       9.2100     2.5349    -1.8162  C.ar    1  <O>11       0.0106
  21 C16      10.4688     2.9255    -2.3277  C.ar    1  <O>11      -0.0521
  22 C17      11.1965     2.0826    -3.1684  C.ar    1  <O>11      -0.0611
  23 C18      10.6797     0.8410    -3.5204  C.ar    1  <O>11      -0.0610
  24 C19       9.4353     0.4418    -3.0314  C.ar    1  <O>11      -0.0487
  25 C20       8.6875     1.2787    -2.1714  C.ar    1  <O>11       0.0496
  26 H1        5.8603     1.4136    -0.4062  H       1  <O>11       0.1921
  27 H2        7.9533     5.3397    -0.4986  H       1  <O>11       0.0377
  28 H3        9.4290     5.1268    -1.4719  H       1  <O>11       0.0377
  29 H4       11.1611     3.4320    -0.1942  H       1  <O>11       0.0621
  30 H5       12.4783     3.3736     1.8439  H       1  <O>11       0.0646
  31 H6        8.4397     4.5180     4.8925  H       1  <O>11       0.0639
  32 H7        7.7354     5.8133     6.7838  H       1  <O>11       0.0830
  33 H8        9.8345     9.0825     5.5189  H       1  <O>11       0.0830
  34 H9       10.6053     7.8790     3.5736  H       1  <O>11       0.0639
  35 H10       8.3642     5.9636     1.6928  H       1  <O>11       0.0627
  36 H11      10.8555     3.8484    -2.0753  H       1  <O>11       0.0624
  37 H12      12.1168     2.3803    -3.5283  H       1  <O>11       0.0618
  38 H13      11.2155     0.2156    -4.1423  H       1  <O>11       0.0618
  39 H14       9.0548    -0.4786    -3.3016  H       1  <O>11       0.0625
@<TRIPOS>BOND
     1     1     2    2
     2     2     3   ar
     3     3     4   ar
     4     4     5   ar
     5     5     6    1
     6     6     7    1
     7     7     8   ar
     8     8     9   ar
     9     9    10   ar
    10    10    11    1
    11    10    12   ar
    12    12    13    1
    13    13    14   ar
    14    14    15   ar
    15    15    16   ar
    16    16    17   ar
    17    17    18   ar
    18    13    18   ar
    19    12    19   ar
    20     7    19   ar
    21     5    20   ar
    22    20    21   ar
    23    21    22   ar
    24    22    23   ar
    25    23    24   ar
    26    24    25   ar
    27     2    25   ar
    28    20    25   ar
    29     3    26    1
    30     6    27    1
    31     6    28    1
    32     8    29    1
    33     9    30    1
    34    14    31    1
    35    15    32    1
    36    17    33    1
    37    18    34    1
    38    19    35    1
    39    21    36    1
    40    22    37    1
    41    23    38    1
    42    24    39    1
@<TRIPOS>MOLECULE
mol74_1_12
 39 42 0 0 0
SMALL
USER_CHARGES
****
VDW energy = -33.29
@<TRIPOS>ATOM
   1 O1        6.7938    -0.2446    -2.0599  O.2     1  <O>11      -0.2658
   2 C1        7.4213     0.9528    -1.6663  C.ar    1  <O>11       0.2725
   3 N1        6.7347     1.7343    -0.7968  N.ar    1  <O>11      -0.2425
   4 N2        7.2340     2.9457    -0.4598  N.ar    1  <O>11      -0.1750
   5 C2        8.4134     3.3437    -0.9933  C.ar    1  <O>11       0.0736
   6 C3        8.8350     4.7170    -0.6550  C.3     1  <O>11       0.0171
   7 C4        8.3028     5.6629    -1.6702  C.ar    1  <O>11      -0.0408
   8 C5        8.7373     6.9989    -1.6911  C.ar    1  <O>11      -0.0555
   9 C6        8.2260     7.8920    -2.6396  C.ar    1  <O>11      -0.0256
  10 C7        7.2832     7.4613    -3.5761  C.ar    1  <O>11       0.1311
  11 F1        6.7771     8.3312    -4.5054  F       1  <O>11      -0.2049
  12 C8        6.8548     6.1274    -3.5598  C.ar    1  <O>11       0.0177
  13 C9        5.8947     5.6915    -4.5189  C.ar    1  <O>11      -0.0123
  14 C10       6.1633     5.7698    -5.8859  C.ar    1  <O>11      -0.0358
  15 C11       5.1844     5.3531    -6.7695  C.ar    1  <O>11       0.0281
  16 N3        3.9852     4.8667    -6.3896  N.ar    1  <O>11      -0.2632
  17 C12       3.7303     4.7761    -5.0746  C.ar    1  <O>11       0.0281
  18 C13       4.6596     5.1747    -4.1146  C.ar    1  <O>11      -0.0358
  19 C14       7.3602     5.2295    -2.6178  C.ar    1  <O>11      -0.0477
  20 C15       9.2100     2.5349    -1.8162  C.ar    1  <O>11       0.0106
  21 C16      10.4688     2.9255    -2.3277  C.ar    1  <O>11      -0.0521
  22 C17      11.1965     2.0826    -3.1684  C.ar    1  <O>11      -0.0611
  23 C18      10.6797     0.8410    -3.5204  C.ar    1  <O>11      -0.0610
  24 C19       9.4353     0.4418    -3.0314  C.ar    1  <O>11      -0.0487
  25 C20       8.6875     1.2787    -2.1714  C.ar    1  <O>11       0.0496
  26 H1        5.8603     1.4136    -0.4062  H       1  <O>11       0.1921
  27 H2        9.9243     4.7707    -0.6448  H       1  <O>11       0.0377
  28 H3        8.4489     4.9842     0.3287  H       1  <O>11       0.0377
  29 H4        9.4361     7.3229    -1.0043  H       1  <O>11       0.0621
  30 H5        8.5468     8.8728    -2.6472  H       1  <O>11       0.0646
  31 H6        7.0680     6.1291    -6.2285  H       1  <O>11       0.0639
  32 H7        5.3834     5.4181    -7.7801  H       1  <O>11       0.0830
  33 H8        2.8201     4.4005    -4.7654  H       1  <O>11       0.0830
  34 H9        4.4371     5.0887    -3.1105  H       1  <O>11       0.0639
  35 H10       7.0417     4.2478    -2.6175  H       1  <O>11       0.0627
  36 H11      10.8555     3.8484    -2.0753  H       1  <O>11       0.0624
  37 H12      12.1168     2.3803    -3.5283  H       1  <O>11       0.0618
  38 H13      11.2155     0.2156    -4.1423  H       1  <O>11       0.0618
  39 H14       9.0548    -0.4786    -3.3016  H       1  <O>11       0.0625
@<TRIPOS>BOND
     1     1     2    2
     2     2     3   ar
     3     3     4   ar
     4     4     5   ar
     5     5     6    1
     6     6     7    1
     7     7     8   ar
     8     8     9   ar
     9     9    10   ar
    10    10    11    1
    11    10    12   ar
    12    12    13    1
    13    13    14   ar
    14    14    15   ar
    15    15    16   ar
    16    16    17   ar
    17    17    18   ar
    18    13    18   ar
    19    12    19   ar
    20     7    19   ar
    21     5    20   ar
    22    20    21   ar
    23    21    22   ar
    24    22    23   ar
    25    23    24   ar
    26    24    25   ar
    27     2    25   ar
    28    20    25   ar
    29     3    26    1
    30     6    27    1
    31     6    28    1
    32     8    29    1
    33     9    30    1
    34    14    31    1
    35    15    32    1
    36    17    33    1
    37    18    34    1
    38    19    35    1
    39    21    36    1
    40    22    37    1
    41    23    38    1
    42    24    39    1
@<TRIPOS>MOLECULE
mol74_1_13
 39 42 0 0 0
SMALL
USER_CHARGES
****
VDW energy = -33.21
@<TRIPOS>ATOM
   1 O1        6.7938    -0.2446    -2.0599  O.2     1  <O>11      -0.2658
   2 C1        7.4213     0.9528    -1.6663  C.ar    1  <O>11       0.2725
   3 N1        6.7347     1.7343    -0.7968  N.ar    1  <O>11      -0.2425
   4 N2        7.2340     2.9457    -0.4598  N.ar    1  <O>11      -0.1750
   5 C2        8.4134     3.3437    -0.9933  C.ar    1  <O>11       0.0736
   6 C3        8.8350     4.7170    -0.6550  C.3     1  <O>11       0.0171
   7 C4        9.6503     4.6931     0.5874  C.ar    1  <O>11      -0.0408
   8 C5        9.9942     5.8927     1.2328  C.ar    1  <O>11      -0.0555
   9 C6       10.7726     5.8698     2.3957  C.ar    1  <O>11      -0.0256
  10 C7       11.2099     4.6539     2.9266  C.ar    1  <O>11       0.1311
  11 F1       11.9742     4.6250     4.0630  F       1  <O>11      -0.2049
  12 C8       10.8614     3.4571     2.2869  C.ar    1  <O>11       0.0177
  13 C9       11.3074     2.2186     2.8335  C.ar    1  <O>11      -0.0123
  14 C10      10.9453     1.8355     4.1255  C.ar    1  <O>11      -0.0358
  15 C11      11.4272     0.6332     4.6102  C.ar    1  <O>11       0.0281
  16 N3       12.2218    -0.1980     3.9057  N.ar    1  <O>11      -0.2632
  17 C12      12.5592     0.1610     2.6568  C.ar    1  <O>11       0.0281
  18 C13      12.1192     1.3563     2.0895  C.ar    1  <O>11      -0.0358
  19 C14      10.0845     3.4706     1.1270  C.ar    1  <O>11      -0.0477
  20 C15       9.2100     2.5349    -1.8162  C.ar    1  <O>11       0.0106
  21 C16      10.4688     2.9255    -2.3277  C.ar    1  <O>11      -0.0521
  22 C17      11.1965     2.0826    -3.1684  C.ar    1  <O>11      -0.0611
  23 C18      10.6797     0.8410    -3.5204  C.ar    1  <O>11      -0.0610
  24 C19       9.4353     0.4418    -3.0314  C.ar    1  <O>11      -0.0487
  25 C20       8.6875     1.2787    -2.1714  C.ar    1  <O>11       0.0496
  26 H1        5.8603     1.4136    -0.4062  H       1  <O>11       0.1921
  27 H2        7.9533     5.3397    -0.4986  H       1  <O>11       0.0377
  28 H3        9.4290     5.1268    -1.4719  H       1  <O>11       0.0377
  29 H4        9.6716     6.7943     0.8479  H       1  <O>11       0.0621
  30 H5       11.0246     6.7548     2.8629  H       1  <O>11       0.0646
  31 H6       10.3344     2.4333     4.7038  H       1  <O>11       0.0639
  32 H7       11.1629     0.3555     5.5684  H       1  <O>11       0.0830
  33 H8       13.1616    -0.4657     2.1007  H       1  <O>11       0.0830
  34 H9       12.3912     1.6035     1.1251  H       1  <O>11       0.0639
  35 H10       9.8292     2.5831     0.6663  H       1  <O>11       0.0627
  36 H11      10.8555     3.8484    -2.0753  H       1  <O>11       0.0624
  37 H12      12.1168     2.3803    -3.5283  H       1  <O>11       0.0618
  38 H13      11.2155     0.2156    -4.1423  H       1  <O>11       0.0618
  39 H14       9.0548    -0.4786    -3.3016  H       1  <O>11       0.0625
@<TRIPOS>BOND
     1     1     2    2
     2     2     3   ar
     3     3     4   ar
     4     4     5   ar
     5     5     6    1
     6     6     7    1
     7     7     8   ar
     8     8     9   ar
     9     9    10   ar
    10    10    11    1
    11    10    12   ar
    12    12    13    1
    13    13    14   ar
    14    14    15   ar
    15    15    16   ar
    16    16    17   ar
    17    17    18   ar
    18    13    18   ar
    19    12    19   ar
    20     7    19   ar
    21     5    20   ar
    22    20    21   ar
    23    21    22   ar
    24    22    23   ar
    25    23    24   ar
    26    24    25   ar
    27     2    25   ar
    28    20    25   ar
    29     3    26    1
    30     6    27    1
    31     6    28    1
    32     8    29    1
    33     9    30    1
    34    14    31    1
    35    15    32    1
    36    17    33    1
    37    18    34    1
    38    19    35    1
    39    21    36    1
    40    22    37    1
    41    23    38    1
    42    24    39    1
@<TRIPOS>MOLECULE
mol74_1_14
 39 42 0 0 0
SMALL
USER_CHARGES
****
VDW energy = -31.64
@<TRIPOS>ATOM
   1 O1        6.7938    -0.2446    -2.0599  O.2     1  <O>11      -0.2658
   2 C1        7.4213     0.9528    -1.6663  C.ar    1  <O>11       0.2725
   3 N1        6.7347     1.7343    -0.7968  N.ar    1  <O>11      -0.2425
   4 N2        7.2340     2.9457    -0.4598  N.ar    1  <O>11      -0.1750
   5 C2        8.4134     3.3437    -0.9933  C.ar    1  <O>11       0.0736
   6 C3        8.8350     4.7170    -0.6550  C.3     1  <O>11       0.0171
   7 C4        7.8150     5.3460     0.2240  C.ar    1  <O>11      -0.0408
   8 C5        6.4923     5.5018    -0.2236  C.ar    1  <O>11      -0.0555
   9 C6        5.5355     6.1057     0.6001  C.ar    1  <O>11      -0.0256
  10 C7        5.8866     6.5542     1.8756  C.ar    1  <O>11       0.1311
  11 F1        4.9554     7.1484     2.6856  F       1  <O>11      -0.2049
  12 C8        7.2039     6.3929     2.3248  C.ar    1  <O>11       0.0177
  13 C9        7.5572     6.8495     3.6281  C.ar    1  <O>11      -0.0123
  14 C10       6.9245     6.3370     4.7612  C.ar    1  <O>11      -0.0358
  15 C11       7.2933     6.8351     5.9976  C.ar    1  <O>11       0.0281
  16 N3        8.2356     7.7832     6.1763  N.ar    1  <O>11      -0.2632
  17 C12       8.8566     8.2670     5.0888  C.ar    1  <O>11       0.0281
  18 C13       8.5463     7.8226     3.8042  C.ar    1  <O>11      -0.0358
  19 C14       8.1646     5.7907     1.5102  C.ar    1  <O>11      -0.0477
  20 C15       9.2100     2.5349    -1.8162  C.ar    1  <O>11       0.0106
  21 C16      10.4688     2.9255    -2.3277  C.ar    1  <O>11      -0.0521
  22 C17      11.1965     2.0826    -3.1684  C.ar    1  <O>11      -0.0611
  23 C18      10.6797     0.8410    -3.5204  C.ar    1  <O>11      -0.0610
  24 C19       9.4353     0.4418    -3.0314  C.ar    1  <O>11      -0.0487
  25 C20       8.6875     1.2787    -2.1714  C.ar    1  <O>11       0.0496
  26 H1        5.8603     1.4136    -0.4062  H       1  <O>11       0.1921
  27 H2        8.9360     5.3020    -1.5700  H       1  <O>11       0.0377
  28 H3        9.7930     4.6860    -0.1360  H       1  <O>11       0.0377
  29 H4        6.2253     5.1696    -1.1636  H       1  <O>11       0.0621
  30 H5        4.5666     6.2201     0.2638  H       1  <O>11       0.0646
  31 H6        6.2008     5.6060     4.6789  H       1  <O>11       0.0639
  32 H7        6.8192     6.4586     6.8333  H       1  <O>11       0.0830
  33 H8        9.5847     8.9887     5.2071  H       1  <O>11       0.0830
  34 H9        9.0441     8.2097     2.9873  H       1  <O>11       0.0639
  35 H10       9.1309     5.6723     1.8525  H       1  <O>11       0.0627
  36 H11      10.8555     3.8484    -2.0753  H       1  <O>11       0.0624
  37 H12      12.1168     2.3803    -3.5283  H       1  <O>11       0.0618
  38 H13      11.2155     0.2156    -4.1423  H       1  <O>11       0.0618
  39 H14       9.0548    -0.4786    -3.3016  H       1  <O>11       0.0625
@<TRIPOS>BOND
     1     1     2    2
     2     2     3   ar
     3     3     4   ar
     4     4     5   ar
     5     5     6    1
     6     6     7    1
     7     7     8   ar
     8     8     9   ar
     9     9    10   ar
    10    10    11    1
    11    10    12   ar
    12    12    13    1
    13    13    14   ar
    14    14    15   ar
    15    15    16   ar
    16    16    17   ar
    17    17    18   ar
    18    13    18   ar
    19    12    19   ar
    20     7    19   ar
    21     5    20   ar
    22    20    21   ar
    23    21    22   ar
    24    22    23   ar
    25    23    24   ar
    26    24    25   ar
    27     2    25   ar
    28    20    25   ar
    29     3    26    1
    30     6    27    1
    31     6    28    1
    32     8    29    1
    33     9    30    1
    34    14    31    1
    35    15    32    1
    36    17    33    1
    37    18    34    1
    38    19    35    1
    39    21    36    1
    40    22    37    1
    41    23    38    1
    42    24    39    1
@<TRIPOS>MOLECULE
mol74_1_15
 39 42 0 0 0
SMALL
USER_CHARGES
****
VDW energy = -31.63
@<TRIPOS>ATOM
   1 O1        6.7938    -0.2446    -2.0599  O.2     1  <O>11      -0.2658
   2 C1        7.4213     0.9528    -1.6663  C.ar    1  <O>11       0.2725
   3 N1        6.7347     1.7343    -0.7968  N.ar    1  <O>11      -0.2425
   4 N2        7.2340     2.9457    -0.4598  N.ar    1  <O>11      -0.1750
   5 C2        8.4134     3.3437    -0.9933  C.ar    1  <O>11       0.0736
   6 C3        8.8350     4.7170    -0.6550  C.3     1  <O>11       0.0171
   7 C4        7.8150     5.3460     0.2240  C.ar    1  <O>11      -0.0408
   8 C5        6.4923     5.5018    -0.2236  C.ar    1  <O>11      -0.0555
   9 C6        5.5355     6.1057     0.6001  C.ar    1  <O>11      -0.0256
  10 C7        5.8866     6.5542     1.8756  C.ar    1  <O>11       0.1311
  11 F1        4.9554     7.1484     2.6856  F       1  <O>11      -0.2049
  12 C8        7.2039     6.3929     2.3248  C.ar    1  <O>11       0.0177
  13 C9        7.5572     6.8495     3.6281  C.ar    1  <O>11      -0.0123
  14 C10       7.4193     8.1935     3.9767  C.ar    1  <O>11      -0.0358
  15 C11       7.7998     8.5815     5.2484  C.ar    1  <O>11       0.0281
  16 N3        8.2903     7.7364     6.1779  N.ar    1  <O>11      -0.2632
  17 C12       8.4097     6.4400     5.8500  C.ar    1  <O>11       0.0281
  18 C13       8.0512     5.9625     4.5901  C.ar    1  <O>11      -0.0358
  19 C14       8.1646     5.7907     1.5102  C.ar    1  <O>11      -0.0477
  20 C15       9.2100     2.5349    -1.8162  C.ar    1  <O>11       0.0106
  21 C16      10.4688     2.9255    -2.3277  C.ar    1  <O>11      -0.0521
  22 C17      11.1965     2.0826    -3.1684  C.ar    1  <O>11      -0.0611
  23 C18      10.6797     0.8410    -3.5204  C.ar    1  <O>11      -0.0610
  24 C19       9.4353     0.4418    -3.0314  C.ar    1  <O>11      -0.0487
  25 C20       8.6875     1.2787    -2.1714  C.ar    1  <O>11       0.0496
  26 H1        5.8603     1.4136    -0.4062  H       1  <O>11       0.1921
  27 H2        8.9360     5.3020    -1.5700  H       1  <O>11       0.0377
  28 H3        9.7930     4.6860    -0.1360  H       1  <O>11       0.0377
  29 H4        6.2253     5.1696    -1.1636  H       1  <O>11       0.0621
  30 H5        4.5666     6.2201     0.2638  H       1  <O>11       0.0646
  31 H6        7.0434     8.8796     3.3036  H       1  <O>11       0.0639
  32 H7        7.7025     9.5773     5.5013  H       1  <O>11       0.0830
  33 H8        8.7776     5.7778     6.5508  H       1  <O>11       0.0830
  34 H9        8.1498     4.9594     4.3684  H       1  <O>11       0.0639
  35 H10       9.1309     5.6723     1.8525  H       1  <O>11       0.0627
  36 H11      10.8555     3.8484    -2.0753  H       1  <O>11       0.0624
  37 H12      12.1168     2.3803    -3.5283  H       1  <O>11       0.0618
  38 H13      11.2155     0.2156    -4.1423  H       1  <O>11       0.0618
  39 H14       9.0548    -0.4786    -3.3016  H       1  <O>11       0.0625
@<TRIPOS>BOND
     1     1     2    2
     2     2     3   ar
     3     3     4   ar
     4     4     5   ar
     5     5     6    1
     6     6     7    1
     7     7     8   ar
     8     8     9   ar
     9     9    10   ar
    10    10    11    1
    11    10    12   ar
    12    12    13    1
    13    13    14   ar
    14    14    15   ar
    15    15    16   ar
    16    16    17   ar
    17    17    18   ar
    18    13    18   ar
    19    12    19   ar
    20     7    19   ar
    21     5    20   ar
    22    20    21   ar
    23    21    22   ar
    24    22    23   ar
    25    23    24   ar
    26    24    25   ar
    27     2    25   ar
    28    20    25   ar
    29     3    26    1
    30     6    27    1
    31     6    28    1
    32     8    29    1
    33     9    30    1
    34    14    31    1
    35    15    32    1
    36    17    33    1
    37    18    34    1
    38    19    35    1
    39    21    36    1
    40    22    37    1
    41    23    38    1
    42    24    39    1
@<TRIPOS>MOLECULE
mol74_1_16
 39 42 0 0 0
SMALL
USER_CHARGES
****
VDW energy = -31.33
@<TRIPOS>ATOM
   1 O1        6.7938    -0.2446    -2.0599  O.2     1  <O>11      -0.2658
   2 C1        7.4213     0.9528    -1.6663  C.ar    1  <O>11       0.2725
   3 N1        6.7347     1.7343    -0.7968  N.ar    1  <O>11      -0.2425
   4 N2        7.2340     2.9457    -0.4598  N.ar    1  <O>11      -0.1750
   5 C2        8.4134     3.3437    -0.9933  C.ar    1  <O>11       0.0736
   6 C3        8.8350     4.7170    -0.6550  C.3     1  <O>11       0.0171
   7 C4        9.6503     4.6931     0.5874  C.ar    1  <O>11      -0.0408
   8 C5       10.8439     3.9536     0.6379  C.ar    1  <O>11      -0.0555
   9 C6       11.6044     3.9215     1.8124  C.ar    1  <O>11      -0.0256
  10 C7       11.1854     4.6281     2.9422  C.ar    1  <O>11       0.1311
  11 F1       11.9239     4.5986     4.0955  F       1  <O>11      -0.2049
  12 C8        9.9986     5.3710     2.8900  C.ar    1  <O>11       0.0177
  13 C9        9.5761     6.0927     4.0443  C.ar    1  <O>11      -0.0123
  14 C10      10.3798     7.0900     4.5978  C.ar    1  <O>11      -0.0358
  15 C11       9.9273     7.7403     5.7314  C.ar    1  <O>11       0.0281
  16 N3        8.7495     7.4741     6.3320  N.ar    1  <O>11      -0.2632
  17 C12       7.9675     6.5256     5.7926  C.ar    1  <O>11       0.0281
  18 C13       8.3461     5.8195     4.6514  C.ar    1  <O>11      -0.0358
  19 C14       9.2343     5.4094     1.7223  C.ar    1  <O>11      -0.0477
  20 C15       9.2100     2.5349    -1.8162  C.ar    1  <O>11       0.0106
  21 C16      10.4688     2.9255    -2.3277  C.ar    1  <O>11      -0.0521
  22 C17      11.1965     2.0826    -3.1684  C.ar    1  <O>11      -0.0611
  23 C18      10.6797     0.8410    -3.5204  C.ar    1  <O>11      -0.0610
  24 C19       9.4353     0.4418    -3.0314  C.ar    1  <O>11      -0.0487
  25 C20       8.6875     1.2787    -2.1714  C.ar    1  <O>11       0.0496
  26 H1        5.8603     1.4136    -0.4062  H       1  <O>11       0.1921
  27 H2        7.9533     5.3397    -0.4986  H       1  <O>11       0.0377
  28 H3        9.4290     5.1268    -1.4719  H       1  <O>11       0.0377
  29 H4       11.1611     3.4320    -0.1942  H       1  <O>11       0.0621
  30 H5       12.4783     3.3736     1.8439  H       1  <O>11       0.0646
  31 H6       11.2875     7.3358     4.1727  H       1  <O>11       0.0639
  32 H7       10.5267     8.4731     6.1422  H       1  <O>11       0.0830
  33 H8        7.0600     6.3128     6.2353  H       1  <O>11       0.0830
  34 H9        7.7217     5.0989     4.2566  H       1  <O>11       0.0639
  35 H10       8.3642     5.9636     1.6928  H       1  <O>11       0.0627
  36 H11      10.8555     3.8484    -2.0753  H       1  <O>11       0.0624
  37 H12      12.1168     2.3803    -3.5283  H       1  <O>11       0.0618
  38 H13      11.2155     0.2156    -4.1423  H       1  <O>11       0.0618
  39 H14       9.0548    -0.4786    -3.3016  H       1  <O>11       0.0625
@<TRIPOS>BOND
     1     1     2    2
     2     2     3   ar
     3     3     4   ar
     4     4     5   ar
     5     5     6    1
     6     6     7    1
     7     7     8   ar
     8     8     9   ar
     9     9    10   ar
    10    10    11    1
    11    10    12   ar
    12    12    13    1
    13    13    14   ar
    14    14    15   ar
    15    15    16   ar
    16    16    17   ar
    17    17    18   ar
    18    13    18   ar
    19    12    19   ar
    20     7    19   ar
    21     5    20   ar
    22    20    21   ar
    23    21    22   ar
    24    22    23   ar
    25    23    24   ar
    26    24    25   ar
    27     2    25   ar
    28    20    25   ar
    29     3    26    1
    30     6    27    1
    31     6    28    1
    32     8    29    1
    33     9    30    1
    34    14    31    1
    35    15    32    1
    36    17    33    1
    37    18    34    1
    38    19    35    1
    39    21    36    1
    40    22    37    1
    41    23    38    1
    42    24    39    1
@<TRIPOS>MOLECULE
mol74_1_17
 39 42 0 0 0
SMALL
USER_CHARGES
****
VDW energy = -21.23
@<TRIPOS>ATOM
   1 O1        6.7938    -0.2446    -2.0599  O.2     1  <O>11      -0.2658
   2 C1        7.4213     0.9528    -1.6663  C.ar    1  <O>11       0.2725
   3 N1        6.7347     1.7343    -0.7968  N.ar    1  <O>11      -0.2425
   4 N2        7.2340     2.9457    -0.4598  N.ar    1  <O>11      -0.1750
   5 C2        8.4134     3.3437    -0.9933  C.ar    1  <O>11       0.0736
   6 C3        8.8350     4.7170    -0.6550  C.3     1  <O>11       0.0171
   7 C4        9.6503     4.6931     0.5874  C.ar    1  <O>11      -0.0408
   8 C5        9.1022     4.2056     1.7857  C.ar    1  <O>11      -0.0555
   9 C6        9.8667     4.1952     2.9580  C.ar    1  <O>11      -0.0256
  10 C7       11.1821     4.6650     2.9451  C.ar    1  <O>11       0.1311
  11 F1       11.9346     4.6599     4.0896  F       1  <O>11      -0.2049
  12 C8       11.7311     5.1450     1.7487  C.ar    1  <O>11       0.0177
  13 C9       13.0747     5.6209     1.7394  C.ar    1  <O>11      -0.0123
  14 C10      13.5382     6.4337     0.7043  C.ar    1  <O>11      -0.0358
  15 C11      14.8579     6.8459     0.7376  C.ar    1  <O>11       0.0281
  16 N3       15.7250     6.5158     1.7164  N.ar    1  <O>11      -0.2632
  17 C12      15.2773     5.7465     2.7214  C.ar    1  <O>11       0.0281
  18 C13      13.9623     5.2853     2.7669  C.ar    1  <O>11      -0.0358
  19 C14      10.9761     5.1581     0.5745  C.ar    1  <O>11      -0.0477
  20 C15       9.2100     2.5349    -1.8162  C.ar    1  <O>11       0.0106
  21 C16      10.4688     2.9255    -2.3277  C.ar    1  <O>11      -0.0521
  22 C17      11.1965     2.0826    -3.1684  C.ar    1  <O>11      -0.0611
  23 C18      10.6797     0.8410    -3.5204  C.ar    1  <O>11      -0.0610
  24 C19       9.4353     0.4418    -3.0314  C.ar    1  <O>11      -0.0487
  25 C20       8.6875     1.2787    -2.1714  C.ar    1  <O>11       0.0496
  26 H1        5.8603     1.4136    -0.4062  H       1  <O>11       0.1921
  27 H2        7.9533     5.3397    -0.4986  H       1  <O>11       0.0377
  28 H3        9.4290     5.1268    -1.4719  H       1  <O>11       0.0377
  29 H4        8.1321     3.8538     1.8016  H       1  <O>11       0.0621
  30 H5        9.4568     3.8390     3.8356  H       1  <O>11       0.0646
  31 H6       12.9131     6.7195    -0.0655  H       1  <O>11       0.0639
  32 H7       15.1997     7.4417    -0.0326  H       1  <O>11       0.0830
  33 H8       15.9252     5.4890     3.4823  H       1  <O>11       0.0830
  34 H9       13.6454     4.6991     3.5549  H       1  <O>11       0.0639
  35 H10      11.3915     5.5092    -0.3026  H       1  <O>11       0.0627
  36 H11      10.8555     3.8484    -2.0753  H       1  <O>11       0.0624
  37 H12      12.1168     2.3803    -3.5283  H       1  <O>11       0.0618
  38 H13      11.2155     0.2156    -4.1423  H       1  <O>11       0.0618
  39 H14       9.0548    -0.4786    -3.3016  H       1  <O>11       0.0625
@<TRIPOS>BOND
     1     1     2    2
     2     2     3   ar
     3     3     4   ar
     4     4     5   ar
     5     5     6    1
     6     6     7    1
     7     7     8   ar
     8     8     9   ar
     9     9    10   ar
    10    10    11    1
    11    10    12   ar
    12    12    13    1
    13    13    14   ar
    14    14    15   ar
    15    15    16   ar
    16    16    17   ar
    17    17    18   ar
    18    13    18   ar
    19    12    19   ar
    20     7    19   ar
    21     5    20   ar
    22    20    21   ar
    23    21    22   ar
    24    22    23   ar
    25    23    24   ar
    26    24    25   ar
    27     2    25   ar
    28    20    25   ar
    29     3    26    1
    30     6    27    1
    31     6    28    1
    32     8    29    1
    33     9    30    1
    34    14    31    1
    35    15    32    1
    36    17    33    1
    37    18    34    1
    38    19    35    1
    39    21    36    1
    40    22    37    1
    41    23    38    1
    42    24    39    1
@<TRIPOS>MOLECULE
mol74_1_18
 39 42 0 0 0
SMALL
USER_CHARGES
****
VDW energy = -21.06
@<TRIPOS>ATOM
   1 O1        6.7938    -0.2446    -2.0599  O.2     1  <O>11      -0.2658
   2 C1        7.4213     0.9528    -1.6663  C.ar    1  <O>11       0.2725
   3 N1        6.7347     1.7343    -0.7968  N.ar    1  <O>11      -0.2425
   4 N2        7.2340     2.9457    -0.4598  N.ar    1  <O>11      -0.1750
   5 C2        8.4134     3.3437    -0.9933  C.ar    1  <O>11       0.0736
   6 C3        8.8350     4.7170    -0.6550  C.3     1  <O>11       0.0171
   7 C4        8.3028     5.6629    -1.6702  C.ar    1  <O>11      -0.0408
   8 C5        6.9175     5.7779    -1.8746  C.ar    1  <O>11      -0.0555
   9 C6        6.4178     6.6598    -2.8398  C.ar    1  <O>11      -0.0256
  10 C7        7.2921     7.4360    -3.6043  C.ar    1  <O>11       0.1311
  11 F1        6.8094     8.2990    -4.5523  F       1  <O>11      -0.2049
  12 C8        8.6733     7.3263    -3.3961  C.ar    1  <O>11       0.0177
  13 C9        9.5616     8.1223    -4.1765  C.ar    1  <O>11      -0.0123
  14 C10      10.9141     7.7944    -4.2774  C.ar    1  <O>11      -0.0358
  15 C11      11.7319     8.6171    -5.0305  C.ar    1  <O>11       0.0281
  16 N3       11.2994     9.7160    -5.6817  N.ar    1  <O>11      -0.2632
  17 C12       9.9956    10.0251    -5.5987  C.ar    1  <O>11       0.0281
  18 C13       9.1006     9.2518    -4.8605  C.ar    1  <O>11      -0.0358
  19 C14       9.1803     6.4500    -2.4348  C.ar    1  <O>11      -0.0477
  20 C15       9.2100     2.5349    -1.8162  C.ar    1  <O>11       0.0106
  21 C16      10.4688     2.9255    -2.3277  C.ar    1  <O>11      -0.0521
  22 C17      11.1965     2.0826    -3.1684  C.ar    1  <O>11      -0.0611
  23 C18      10.6797     0.8410    -3.5204  C.ar    1  <O>11      -0.0610
  24 C19       9.4353     0.4418    -3.0314  C.ar    1  <O>11      -0.0487
  25 C20       8.6875     1.2787    -2.1714  C.ar    1  <O>11       0.0496
  26 H1        5.8603     1.4136    -0.4062  H       1  <O>11       0.1921
  27 H2        9.9243     4.7707    -0.6448  H       1  <O>11       0.0377
  28 H3        8.4489     4.9842     0.3287  H       1  <O>11       0.0377
  29 H4        6.2658     5.2100    -1.3109  H       1  <O>11       0.0621
  30 H5        5.3994     6.7369    -2.9872  H       1  <O>11       0.0646
  31 H6       11.2940     6.9604    -3.8029  H       1  <O>11       0.0639
  32 H7       12.7330     8.3755    -5.0981  H       1  <O>11       0.0830
  33 H8        9.6458    10.8591    -6.0957  H       1  <O>11       0.0830
  34 H9        8.1026     9.5117    -4.8189  H       1  <O>11       0.0639
  35 H10      10.1992     6.3804    -2.2859  H       1  <O>11       0.0627
  36 H11      10.8555     3.8484    -2.0753  H       1  <O>11       0.0624
  37 H12      12.1168     2.3803    -3.5283  H       1  <O>11       0.0618
  38 H13      11.2155     0.2156    -4.1423  H       1  <O>11       0.0618
  39 H14       9.0548    -0.4786    -3.3016  H       1  <O>11       0.0625
@<TRIPOS>BOND
     1     1     2    2
     2     2     3   ar
     3     3     4   ar
     4     4     5   ar
     5     5     6    1
     6     6     7    1
     7     7     8   ar
     8     8     9   ar
     9     9    10   ar
    10    10    11    1
    11    10    12   ar
    12    12    13    1
    13    13    14   ar
    14    14    15   ar
    15    15    16   ar
    16    16    17   ar
    17    17    18   ar
    18    13    18   ar
    19    12    19   ar
    20     7    19   ar
    21     5    20   ar
    22    20    21   ar
    23    21    22   ar
    24    22    23   ar
    25    23    24   ar
    26    24    25   ar
    27     2    25   ar
    28    20    25   ar
    29     3    26    1
    30     6    27    1
    31     6    28    1
    32     8    29    1
    33     9    30    1
    34    14    31    1
    35    15    32    1
    36    17    33    1
    37    18    34    1
    38    19    35    1
    39    21    36    1
    40    22    37    1
    41    23    38    1
    42    24    39    1
@<TRIPOS>MOLECULE
mol74_1_19
 39 42 0 0 0
SMALL
USER_CHARGES
****
VDW energy = -21.03
@<TRIPOS>ATOM
   1 O1        6.7938    -0.2446    -2.0599  O.2     1  <O>11      -0.2658
   2 C1        7.4213     0.9528    -1.6663  C.ar    1  <O>11       0.2725
   3 N1        6.7347     1.7343    -0.7968  N.ar    1  <O>11      -0.2425
   4 N2        7.2340     2.9457    -0.4598  N.ar    1  <O>11      -0.1750
   5 C2        8.4134     3.3437    -0.9933  C.ar    1  <O>11       0.0736
   6 C3        8.8350     4.7170    -0.6550  C.3     1  <O>11       0.0171
   7 C4        8.3028     5.6629    -1.6702  C.ar    1  <O>11      -0.0408
   8 C5        7.0433     6.2596    -1.4919  C.ar    1  <O>11      -0.0555
   9 C6        6.5376     7.1405    -2.4547  C.ar    1  <O>11      -0.0256
  10 C7        7.2827     7.4371    -3.5984  C.ar    1  <O>11       0.1311
  11 F1        6.7922     8.2964    -4.5456  F       1  <O>11      -0.2049
  12 C8        8.5416     6.8474    -3.7733  C.ar    1  <O>11       0.0177
  13 C9        9.2998     7.1551    -4.9404  C.ar    1  <O>11      -0.0123
  14 C10      10.3569     6.3379    -5.3424  C.ar    1  <O>11      -0.0358
  15 C11      11.0708     6.6997    -6.4703  C.ar    1  <O>11       0.0281
  16 N3       10.8020     7.7932    -7.2123  N.ar    1  <O>11      -0.2632
  17 C12       9.7758     8.5729    -6.8364  C.ar    1  <O>11       0.0281
  18 C13       9.0039     8.2835    -5.7119  C.ar    1  <O>11      -0.0358
  19 C14       9.0543     5.9684    -2.8175  C.ar    1  <O>11      -0.0477
  20 C15       9.2100     2.5349    -1.8162  C.ar    1  <O>11       0.0106
  21 C16      10.4688     2.9255    -2.3277  C.ar    1  <O>11      -0.0521
  22 C17      11.1965     2.0826    -3.1684  C.ar    1  <O>11      -0.0611
  23 C18      10.6797     0.8410    -3.5204  C.ar    1  <O>11      -0.0610
  24 C19       9.4353     0.4418    -3.0314  C.ar    1  <O>11      -0.0487
  25 C20       8.6875     1.2787    -2.1714  C.ar    1  <O>11       0.0496
  26 H1        5.8603     1.4136    -0.4062  H       1  <O>11       0.1921
  27 H2        9.9243     4.7707    -0.6448  H       1  <O>11       0.0377
  28 H3        8.4489     4.9842     0.3287  H       1  <O>11       0.0377
  29 H4        6.4890     6.0475    -0.6476  H       1  <O>11       0.0621
  30 H5        5.6102     7.5726    -2.3192  H       1  <O>11       0.0646
  31 H6       10.5996     5.4863    -4.8123  H       1  <O>11       0.0639
  32 H7       11.8561     6.0967    -6.7615  H       1  <O>11       0.0830
  33 H8        9.5517     9.4106    -7.3959  H       1  <O>11       0.0830
  34 H9        8.2179     8.8990    -5.4501  H       1  <O>11       0.0639
  35 H10       9.9848     5.5432    -2.9535  H       1  <O>11       0.0627
  36 H11      10.8555     3.8484    -2.0753  H       1  <O>11       0.0624
  37 H12      12.1168     2.3803    -3.5283  H       1  <O>11       0.0618
  38 H13      11.2155     0.2156    -4.1423  H       1  <O>11       0.0618
  39 H14       9.0548    -0.4786    -3.3016  H       1  <O>11       0.0625
@<TRIPOS>BOND
     1     1     2    2
     2     2     3   ar
     3     3     4   ar
     4     4     5   ar
     5     5     6    1
     6     6     7    1
     7     7     8   ar
     8     8     9   ar
     9     9    10   ar
    10    10    11    1
    11    10    12   ar
    12    12    13    1
    13    13    14   ar
    14    14    15   ar
    15    15    16   ar
    16    16    17   ar
    17    17    18   ar
    18    13    18   ar
    19    12    19   ar
    20     7    19   ar
    21     5    20   ar
    22    20    21   ar
    23    21    22   ar
    24    22    23   ar
    25    23    24   ar
    26    24    25   ar
    27     2    25   ar
    28    20    25   ar
    29     3    26    1
    30     6    27    1
    31     6    28    1
    32     8    29    1
    33     9    30    1
    34    14    31    1
    35    15    32    1
    36    17    33    1
    37    18    34    1
    38    19    35    1
    39    21    36    1
    40    22    37    1
    41    23    38    1
    42    24    39    1
@<TRIPOS>MOLECULE
mol74_1_20
 39 42 0 0 0
SMALL
USER_CHARGES
****
VDW energy = -19.75
@<TRIPOS>ATOM
   1 O1        6.7938    -0.2446    -2.0599  O.2     1  <O>11      -0.2658
   2 C1        7.4213     0.9528    -1.6663  C.ar    1  <O>11       0.2725
   3 N1        6.7347     1.7343    -0.7968  N.ar    1  <O>11      -0.2425
   4 N2        7.2340     2.9457    -0.4598  N.ar    1  <O>11      -0.1750
   5 C2        8.4134     3.3437    -0.9933  C.ar    1  <O>11       0.0736
   6 C3        8.8350     4.7170    -0.6550  C.3     1  <O>11       0.0171
   7 C4        7.8150     5.3460     0.2240  C.ar    1  <O>11      -0.0408
   8 C5        7.9117     5.2262     1.6206  C.ar    1  <O>11      -0.0555
   9 C6        6.9437     5.8083     2.4470  C.ar    1  <O>11      -0.0256
  10 C7        5.8762     6.5168     1.8903  C.ar    1  <O>11       0.1311
  11 F1        4.9242     7.0865     2.6937  F       1  <O>11      -0.2049
  12 C8        5.7832     6.6420     0.4979  C.ar    1  <O>11       0.0177
  13 C9        4.6939     7.3682    -0.0657  C.ar    1  <O>11      -0.0123
  14 C10       4.3499     7.2130    -1.4090  C.ar    1  <O>11      -0.0358
  15 C11       3.2980     7.9613    -1.9053  C.ar    1  <O>11       0.0281
  16 N3        2.5770     8.8289    -1.1662  N.ar    1  <O>11      -0.2632
  17 C12       2.8962     8.9687     0.1303  C.ar    1  <O>11       0.0281
  18 C13       3.9426     8.2546     0.7128  C.ar    1  <O>11      -0.0358
  19 C14       6.7449     6.0655    -0.3339  C.ar    1  <O>11      -0.0477
  20 C15       9.2100     2.5349    -1.8162  C.ar    1  <O>11       0.0106
  21 C16      10.4688     2.9255    -2.3277  C.ar    1  <O>11      -0.0521
  22 C17      11.1965     2.0826    -3.1684  C.ar    1  <O>11      -0.0611
  23 C18      10.6797     0.8410    -3.5204  C.ar    1  <O>11      -0.0610
  24 C19       9.4353     0.4418    -3.0314  C.ar    1  <O>11      -0.0487
  25 C20       8.6875     1.2787    -2.1714  C.ar    1  <O>11       0.0496
  26 H1        5.8603     1.4136    -0.4062  H       1  <O>11       0.1921
  27 H2        8.9360     5.3020    -1.5700  H       1  <O>11       0.0377
  28 H3        9.7930     4.6860    -0.1360  H       1  <O>11       0.0377
  29 H4        8.6996     4.7071     2.0386  H       1  <O>11       0.0621
  30 H5        7.0188     5.7136     3.4719  H       1  <O>11       0.0646
  31 H6        4.8665     6.5575    -2.0160  H       1  <O>11       0.0639
  32 H7        3.0499     7.8491    -2.9008  H       1  <O>11       0.0830
  33 H8        2.3513     9.6236     0.7127  H       1  <O>11       0.0830
  34 H9        4.1617     8.3796     1.7135  H       1  <O>11       0.0639
  35 H10       6.6697     6.1679    -1.3581  H       1  <O>11       0.0627
  36 H11      10.8555     3.8484    -2.0753  H       1  <O>11       0.0624
  37 H12      12.1168     2.3803    -3.5283  H       1  <O>11       0.0618
  38 H13      11.2155     0.2156    -4.1423  H       1  <O>11       0.0618
  39 H14       9.0548    -0.4786    -3.3016  H       1  <O>11       0.0625
@<TRIPOS>BOND
     1     1     2    2
     2     2     3   ar
     3     3     4   ar
     4     4     5   ar
     5     5     6    1
     6     6     7    1
     7     7     8   ar
     8     8     9   ar
     9     9    10   ar
    10    10    11    1
    11    10    12   ar
    12    12    13    1
    13    13    14   ar
    14    14    15   ar
    15    15    16   ar
    16    16    17   ar
    17    17    18   ar
    18    13    18   ar
    19    12    19   ar
    20     7    19   ar
    21     5    20   ar
    22    20    21   ar
    23    21    22   ar
    24    22    23   ar
    25    23    24   ar
    26    24    25   ar
    27     2    25   ar
    28    20    25   ar
    29     3    26    1
    30     6    27    1
    31     6    28    1
    32     8    29    1
    33     9    30    1
    34    14    31    1
    35    15    32    1
    36    17    33    1
    37    18    34    1
    38    19    35    1
    39    21    36    1
    40    22    37    1
    41    23    38    1
    42    24    39    1
@<TRIPOS>MOLECULE
mol74_1_21
 39 42 0 0 0
SMALL
USER_CHARGES
****
VDW energy = -19.28
@<TRIPOS>ATOM
   1 O1        6.7938    -0.2446    -2.0599  O.2     1  <O>11      -0.2658
   2 C1        7.4213     0.9528    -1.6663  C.ar    1  <O>11       0.2725
   3 N1        6.7347     1.7343    -0.7968  N.ar    1  <O>11      -0.2425
   4 N2        7.2340     2.9457    -0.4598  N.ar    1  <O>11      -0.1750
   5 C2        8.4134     3.3437    -0.9933  C.ar    1  <O>11       0.0736
   6 C3        8.8350     4.7170    -0.6550  C.3     1  <O>11       0.0171
   7 C4        9.6503     4.6931     0.5874  C.ar    1  <O>11      -0.0408
   8 C5        9.0336     4.8271     1.8427  C.ar    1  <O>11      -0.0555
   9 C6        9.8036     4.8171     3.0113  C.ar    1  <O>11      -0.0256
  10 C7       11.1908     4.6691     2.9395  C.ar    1  <O>11       0.1311
  11 F1       11.9502     4.6611     4.0794  F       1  <O>11      -0.2049
  12 C8       11.8053     4.5287     1.6881  C.ar    1  <O>11       0.0177
  13 C9       13.2207     4.3752     1.6196  C.ar    1  <O>11      -0.0123
  14 C10      13.9077     4.6027     0.4266  C.ar    1  <O>11      -0.0358
  15 C11      15.2779     4.4156     0.4152  C.ar    1  <O>11       0.0281
  16 N3       15.9942     4.0330     1.4919  N.ar    1  <O>11      -0.2632
  17 C12      15.3376     3.8283     2.6449  C.ar    1  <O>11       0.0281
  18 C13      13.9567     3.9924     2.7457  C.ar    1  <O>11      -0.0358
  19 C14      11.0448     4.5366     0.5174  C.ar    1  <O>11      -0.0477
  20 C15       9.2100     2.5349    -1.8162  C.ar    1  <O>11       0.0106
  21 C16      10.4688     2.9255    -2.3277  C.ar    1  <O>11      -0.0521
  22 C17      11.1965     2.0826    -3.1684  C.ar    1  <O>11      -0.0611
  23 C18      10.6797     0.8410    -3.5204  C.ar    1  <O>11      -0.0610
  24 C19       9.4353     0.4418    -3.0314  C.ar    1  <O>11      -0.0487
  25 C20       8.6875     1.2787    -2.1714  C.ar    1  <O>11       0.0496
  26 H1        5.8603     1.4136    -0.4062  H       1  <O>11       0.1921
  27 H2        7.9533     5.3397    -0.4986  H       1  <O>11       0.0377
  28 H3        9.4290     5.1268    -1.4719  H       1  <O>11       0.0377
  29 H4        8.0088     4.9334     1.9033  H       1  <O>11       0.0621
  30 H5        9.3447     4.9195     3.9300  H       1  <O>11       0.0646
  31 H6       13.4068     4.9026    -0.4244  H       1  <O>11       0.0639
  32 H7       15.7825     4.5786    -0.4702  H       1  <O>11       0.0830
  33 H8       15.8704     3.5410     3.4807  H       1  <O>11       0.0830
  34 H9       13.4799     3.8323     3.6468  H       1  <O>11       0.0639
  35 H10      11.5068     4.4275    -0.3990  H       1  <O>11       0.0627
  36 H11      10.8555     3.8484    -2.0753  H       1  <O>11       0.0624
  37 H12      12.1168     2.3803    -3.5283  H       1  <O>11       0.0618
  38 H13      11.2155     0.2156    -4.1423  H       1  <O>11       0.0618
  39 H14       9.0548    -0.4786    -3.3016  H       1  <O>11       0.0625
@<TRIPOS>BOND
     1     1     2    2
     2     2     3   ar
     3     3     4   ar
     4     4     5   ar
     5     5     6    1
     6     6     7    1
     7     7     8   ar
     8     8     9   ar
     9     9    10   ar
    10    10    11    1
    11    10    12   ar
    12    12    13    1
    13    13    14   ar
    14    14    15   ar
    15    15    16   ar
    16    16    17   ar
    17    17    18   ar
    18    13    18   ar
    19    12    19   ar
    20     7    19   ar
    21     5    20   ar
    22    20    21   ar
    23    21    22   ar
    24    22    23   ar
    25    23    24   ar
    26    24    25   ar
    27     2    25   ar
    28    20    25   ar
    29     3    26    1
    30     6    27    1
    31     6    28    1
    32     8    29    1
    33     9    30    1
    34    14    31    1
    35    15    32    1
    36    17    33    1
    37    18    34    1
    38    19    35    1
    39    21    36    1
    40    22    37    1
    41    23    38    1
    42    24    39    1
@<TRIPOS>MOLECULE
mol74_1_22
 39 42 0 0 0
SMALL
USER_CHARGES
****
VDW energy = -19.10
@<TRIPOS>ATOM
   1 O1        6.7938    -0.2446    -2.0599  O.2     1  <O>11      -0.2658
   2 C1        7.4213     0.9528    -1.6663  C.ar    1  <O>11       0.2725
   3 N1        6.7347     1.7343    -0.7968  N.ar    1  <O>11      -0.2425
   4 N2        7.2340     2.9457    -0.4598  N.ar    1  <O>11      -0.1750
   5 C2        8.4134     3.3437    -0.9933  C.ar    1  <O>11       0.0736
   6 C3        8.8350     4.7170    -0.6550  C.3     1  <O>11       0.0171
   7 C4        9.6503     4.6931     0.5874  C.ar    1  <O>11      -0.0408
   8 C5       11.0447     4.5362     0.5173  C.ar    1  <O>11      -0.0555
   9 C6       11.8102     4.5011     1.6885  C.ar    1  <O>11      -0.0256
  10 C7       11.1945     4.6265     2.9362  C.ar    1  <O>11       0.1311
  11 F1       11.9378     4.5904     4.0862  F       1  <O>11      -0.2049
  12 C8        9.8047     4.7896     3.0060  C.ar    1  <O>11       0.0177
  13 C9        9.1810     4.9199     4.2810  C.ar    1  <O>11      -0.0123
  14 C10       7.8093     4.7125     4.4305  C.ar    1  <O>11      -0.0358
  15 C11       7.2566     4.8756     5.6878  C.ar    1  <O>11       0.0281
  16 N3        7.9657     5.2163     6.7831  N.ar    1  <O>11      -0.2632
  17 C12       9.2881     5.4016     6.6449  C.ar    1  <O>11       0.0281
  18 C13       9.9275     5.2592     5.4141  C.ar    1  <O>11      -0.0358
  19 C14       9.0336     4.8267     1.8428  C.ar    1  <O>11      -0.0477
  20 C15       9.2100     2.5349    -1.8162  C.ar    1  <O>11       0.0106
  21 C16      10.4688     2.9255    -2.3277  C.ar    1  <O>11      -0.0521
  22 C17      11.1965     2.0826    -3.1684  C.ar    1  <O>11      -0.0611
  23 C18      10.6797     0.8410    -3.5204  C.ar    1  <O>11      -0.0610
  24 C19       9.4353     0.4418    -3.0314  C.ar    1  <O>11      -0.0487
  25 C20       8.6875     1.2787    -2.1714  C.ar    1  <O>11       0.0496
  26 H1        5.8603     1.4136    -0.4062  H       1  <O>11       0.1921
  27 H2        7.9533     5.3397    -0.4986  H       1  <O>11       0.0377
  28 H3        9.4290     5.1268    -1.4719  H       1  <O>11       0.0377
  29 H4       11.5064     4.4464    -0.4013  H       1  <O>11       0.0621
  30 H5       12.8336     4.3821     1.6301  H       1  <O>11       0.0646
  31 H6        7.2229     4.4446     3.6247  H       1  <O>11       0.0639
  32 H7        6.2408     4.7277     5.7941  H       1  <O>11       0.0830
  33 H8        9.8477     5.6567     7.4737  H       1  <O>11       0.0830
  34 H9       10.9467     5.4034     5.3394  H       1  <O>11       0.0639
  35 H10       8.0111     4.9522     1.9050  H       1  <O>11       0.0627
  36 H11      10.8555     3.8484    -2.0753  H       1  <O>11       0.0624
  37 H12      12.1168     2.3803    -3.5283  H       1  <O>11       0.0618
  38 H13      11.2155     0.2156    -4.1423  H       1  <O>11       0.0618
  39 H14       9.0548    -0.4786    -3.3016  H       1  <O>11       0.0625
@<TRIPOS>BOND
     1     1     2    2
     2     2     3   ar
     3     3     4   ar
     4     4     5   ar
     5     5     6    1
     6     6     7    1
     7     7     8   ar
     8     8     9   ar
     9     9    10   ar
    10    10    11    1
    11    10    12   ar
    12    12    13    1
    13    13    14   ar
    14    14    15   ar
    15    15    16   ar
    16    16    17   ar
    17    17    18   ar
    18    13    18   ar
    19    12    19   ar
    20     7    19   ar
    21     5    20   ar
    22    20    21   ar
    23    21    22   ar
    24    22    23   ar
    25    23    24   ar
    26    24    25   ar
    27     2    25   ar
    28    20    25   ar
    29     3    26    1
    30     6    27    1
    31     6    28    1
    32     8    29    1
    33     9    30    1
    34    14    31    1
    35    15    32    1
    36    17    33    1
    37    18    34    1
    38    19    35    1
    39    21    36    1
    40    22    37    1
    41    23    38    1
    42    24    39    1
@<TRIPOS>MOLECULE
mol74_1_23
 39 42 0 0 0
SMALL
USER_CHARGES
****
VDW energy = -18.12
@<TRIPOS>ATOM
   1 O1        6.7938    -0.2446    -2.0599  O.2     1  <O>11      -0.2658
   2 C1        7.4213     0.9528    -1.6663  C.ar    1  <O>11       0.2725
   3 N1        6.7347     1.7343    -0.7968  N.ar    1  <O>11      -0.2425
   4 N2        7.2340     2.9457    -0.4598  N.ar    1  <O>11      -0.1750
   5 C2        8.4134     3.3437    -0.9933  C.ar    1  <O>11       0.0736
   6 C3        8.8350     4.7170    -0.6550  C.3     1  <O>11       0.0171
   7 C4        8.9738     5.5139    -1.9017  C.ar    1  <O>11      -0.0408
   8 C5        7.8695     5.7013    -2.7500  C.ar    1  <O>11      -0.0555
   9 C6        8.0044     6.4414    -3.9302  C.ar    1  <O>11      -0.0256
  10 C7        9.2367     7.0035    -4.2720  C.ar    1  <O>11       0.1311
  11 F1        9.3758     7.7267    -5.4270  F       1  <O>11      -0.2049
  12 C8       10.3364     6.8224    -3.4229  C.ar    1  <O>11       0.0177
  13 C9       11.5913     7.4000    -3.7742  C.ar    1  <O>11      -0.0123
  14 C10      12.7741     6.9539    -3.1837  C.ar    1  <O>11      -0.0358
  15 C11      13.9587     7.5681    -3.5475  C.ar    1  <O>11       0.0281
  16 N3       14.0418     8.5698    -4.4466  N.ar    1  <O>11      -0.2632
  17 C12      12.9069     8.9906    -5.0275  C.ar    1  <O>11       0.0281
  18 C13      11.6688     8.4285    -4.7189  C.ar    1  <O>11      -0.0358
  19 C14      10.2106     6.0865    -2.2432  C.ar    1  <O>11      -0.0477
  20 C15       9.2100     2.5349    -1.8162  C.ar    1  <O>11       0.0106
  21 C16      10.4688     2.9255    -2.3277  C.ar    1  <O>11      -0.0521
  22 C17      11.1965     2.0826    -3.1684  C.ar    1  <O>11      -0.0611
  23 C18      10.6797     0.8410    -3.5204  C.ar    1  <O>11      -0.0610
  24 C19       9.4353     0.4418    -3.0314  C.ar    1  <O>11      -0.0487
  25 C20       8.6875     1.2787    -2.1714  C.ar    1  <O>11       0.0496
  26 H1        5.8603     1.4136    -0.4062  H       1  <O>11       0.1921
  27 H2        9.7937     4.6854    -0.1359  H       1  <O>11       0.0377
  28 H3        8.0875     5.1785    -0.0097  H       1  <O>11       0.0377
  29 H4        6.9553     5.2917    -2.5018  H       1  <O>11       0.0621
  30 H5        7.1901     6.5723    -4.5505  H       1  <O>11       0.0646
  31 H6       12.7654     6.1862    -2.4940  H       1  <O>11       0.0639
  32 H7       14.8312     7.2403    -3.1044  H       1  <O>11       0.0830
  33 H8       12.9523     9.7521    -5.7225  H       1  <O>11       0.0830
  34 H9       10.8138     8.7696    -5.1853  H       1  <O>11       0.0639
  35 H10      11.0257     5.9632    -1.6223  H       1  <O>11       0.0627
  36 H11      10.8555     3.8484    -2.0753  H       1  <O>11       0.0624
  37 H12      12.1168     2.3803    -3.5283  H       1  <O>11       0.0618
  38 H13      11.2155     0.2156    -4.1423  H       1  <O>11       0.0618
  39 H14       9.0548    -0.4786    -3.3016  H       1  <O>11       0.0625
@<TRIPOS>BOND
     1     1     2    2
     2     2     3   ar
     3     3     4   ar
     4     4     5   ar
     5     5     6    1
     6     6     7    1
     7     7     8   ar
     8     8     9   ar
     9     9    10   ar
    10    10    11    1
    11    10    12   ar
    12    12    13    1
    13    13    14   ar
    14    14    15   ar
    15    15    16   ar
    16    16    17   ar
    17    17    18   ar
    18    13    18   ar
    19    12    19   ar
    20     7    19   ar
    21     5    20   ar
    22    20    21   ar
    23    21    22   ar
    24    22    23   ar
    25    23    24   ar
    26    24    25   ar
    27     2    25   ar
    28    20    25   ar
    29     3    26    1
    30     6    27    1
    31     6    28    1
    32     8    29    1
    33     9    30    1
    34    14    31    1
    35    15    32    1
    36    17    33    1
    37    18    34    1
    38    19    35    1
    39    21    36    1
    40    22    37    1
    41    23    38    1
    42    24    39    1
@<TRIPOS>MOLECULE
mol74_1_24
 39 42 0 0 0
SMALL
USER_CHARGES
****
VDW energy = -17.04
@<TRIPOS>ATOM
   1 O1        6.7938    -0.2446    -2.0599  O.2     1  <O>11      -0.2658
   2 C1        7.4213     0.9528    -1.6663  C.ar    1  <O>11       0.2725
   3 N1        6.7347     1.7343    -0.7968  N.ar    1  <O>11      -0.2425
   4 N2        7.2340     2.9457    -0.4598  N.ar    1  <O>11      -0.1750
   5 C2        8.4134     3.3437    -0.9933  C.ar    1  <O>11       0.0736
   6 C3        8.8350     4.7170    -0.6550  C.3     1  <O>11       0.0171
   7 C4        9.6503     4.6931     0.5874  C.ar    1  <O>11      -0.0408
   8 C5       10.1714     5.8858     1.1164  C.ar    1  <O>11      -0.0555
   9 C6       10.9496     5.8606     2.2794  C.ar    1  <O>11      -0.0256
  10 C7       11.2105     4.6503     2.9262  C.ar    1  <O>11       0.1311
  11 F1       11.9735     4.6187     4.0633  F       1  <O>11      -0.2049
  12 C8       10.6853     3.4615     2.4025  C.ar    1  <O>11       0.0177
  13 C9       10.9517     2.2291     3.0672  C.ar    1  <O>11      -0.0123
  14 C10      10.7804     1.0104     2.4096  C.ar    1  <O>11      -0.0358
  15 C11      11.0325    -0.1533     3.1130  C.ar    1  <O>11       0.0281
  16 N3       11.4427    -0.1823     4.3974  N.ar    1  <O>11      -0.2632
  17 C12      11.6231     0.9892     5.0277  C.ar    1  <O>11       0.0281
  18 C13      11.3911     2.2098     4.3949  C.ar    1  <O>11      -0.0358
  19 C14       9.9073     3.4775     1.2435  C.ar    1  <O>11      -0.0477
  20 C15       9.2100     2.5349    -1.8162  C.ar    1  <O>11       0.0106
  21 C16      10.4688     2.9255    -2.3277  C.ar    1  <O>11      -0.0521
  22 C17      11.1965     2.0826    -3.1684  C.ar    1  <O>11      -0.0611
  23 C18      10.6797     0.8410    -3.5204  C.ar    1  <O>11      -0.0610
  24 C19       9.4353     0.4418    -3.0314  C.ar    1  <O>11      -0.0487
  25 C20       8.6875     1.2787    -2.1714  C.ar    1  <O>11       0.0496
  26 H1        5.8603     1.4136    -0.4062  H       1  <O>11       0.1921
  27 H2        7.9533     5.3397    -0.4986  H       1  <O>11       0.0377
  28 H3        9.4290     5.1268    -1.4719  H       1  <O>11       0.0377
  29 H4        9.9797     6.7839     0.6456  H       1  <O>11       0.0621
  30 H5       11.3323     6.7399     2.6608  H       1  <O>11       0.0646
  31 H6       10.4737     0.9783     1.4247  H       1  <O>11       0.0639
  32 H7       10.8989    -1.0533     2.6260  H       1  <O>11       0.0830
  33 H8       11.9426     0.9863     6.0090  H       1  <O>11       0.0830
  34 H9       11.5430     3.0948     4.9037  H       1  <O>11       0.0639
  35 H10       9.5211     2.5968     0.8688  H       1  <O>11       0.0627
  36 H11      10.8555     3.8484    -2.0753  H       1  <O>11       0.0624
  37 H12      12.1168     2.3803    -3.5283  H       1  <O>11       0.0618
  38 H13      11.2155     0.2156    -4.1423  H       1  <O>11       0.0618
  39 H14       9.0548    -0.4786    -3.3016  H       1  <O>11       0.0625
@<TRIPOS>BOND
     1     1     2    2
     2     2     3   ar
     3     3     4   ar
     4     4     5   ar
     5     5     6    1
     6     6     7    1
     7     7     8   ar
     8     8     9   ar
     9     9    10   ar
    10    10    11    1
    11    10    12   ar
    12    12    13    1
    13    13    14   ar
    14    14    15   ar
    15    15    16   ar
    16    16    17   ar
    17    17    18   ar
    18    13    18   ar
    19    12    19   ar
    20     7    19   ar
    21     5    20   ar
    22    20    21   ar
    23    21    22   ar
    24    22    23   ar
    25    23    24   ar
    26    24    25   ar
    27     2    25   ar
    28    20    25   ar
    29     3    26    1
    30     6    27    1
    31     6    28    1
    32     8    29    1
    33     9    30    1
    34    14    31    1
    35    15    32    1
    36    17    33    1
    37    18    34    1
    38    19    35    1
    39    21    36    1
    40    22    37    1
    41    23    38    1
    42    24    39    1
@<TRIPOS>MOLECULE
mol74_1_25
 39 42 0 0 0
SMALL
USER_CHARGES
****
VDW energy = -16.99
@<TRIPOS>ATOM
   1 O1        6.7938    -0.2446    -2.0599  O.2     1  <O>11      -0.2658
   2 C1        7.4213     0.9528    -1.6663  C.ar    1  <O>11       0.2725
   3 N1        6.7347     1.7343    -0.7968  N.ar    1  <O>11      -0.2425
   4 N2        7.2340     2.9457    -0.4598  N.ar    1  <O>11      -0.1750
   5 C2        8.4134     3.3437    -0.9933  C.ar    1  <O>11       0.0736
   6 C3        8.8350     4.7170    -0.6550  C.3     1  <O>11       0.0171
   7 C4        8.3028     5.6629    -1.6702  C.ar    1  <O>11      -0.0408
   8 C5        8.6592     5.5260    -3.0224  C.ar    1  <O>11      -0.0555
   9 C6        8.1675     6.4249    -3.9758  C.ar    1  <O>11      -0.0256
  10 C7        7.3148     7.4625    -3.5915  C.ar    1  <O>11       0.1311
  11 F1        6.8323     8.3471    -4.5195  F       1  <O>11      -0.2049
  12 C8        6.9539     7.5952    -2.2442  C.ar    1  <O>11       0.0177
  13 C9        6.0814     8.6538    -1.8569  C.ar    1  <O>11      -0.0123
  14 C10       5.9900     9.0533    -0.5232  C.ar    1  <O>11      -0.0358
  15 C11       5.1092    10.0708    -0.2043  C.ar    1  <O>11       0.0281
  16 N3        4.3364    10.7077    -1.1075  N.ar    1  <O>11      -0.2632
  17 C12       4.4337    10.3355    -2.3937  C.ar    1  <O>11       0.0281
  18 C13       5.2948     9.3184    -2.8034  C.ar    1  <O>11      -0.0358
  19 C14       7.4389     6.7025    -1.2867  C.ar    1  <O>11      -0.0477
  20 C15       9.2100     2.5349    -1.8162  C.ar    1  <O>11       0.0106
  21 C16      10.4688     2.9255    -2.3277  C.ar    1  <O>11      -0.0521
  22 C17      11.1965     2.0826    -3.1684  C.ar    1  <O>11      -0.0611
  23 C18      10.6797     0.8410    -3.5204  C.ar    1  <O>11      -0.0610
  24 C19       9.4353     0.4418    -3.0314  C.ar    1  <O>11      -0.0487
  25 C20       8.6875     1.2787    -2.1714  C.ar    1  <O>11       0.0496
  26 H1        5.8603     1.4136    -0.4062  H       1  <O>11       0.1921
  27 H2        9.9243     4.7707    -0.6448  H       1  <O>11       0.0377
  28 H3        8.4489     4.9842     0.3287  H       1  <O>11       0.0377
  29 H4        9.2860     4.7596    -3.3137  H       1  <O>11       0.0621
  30 H5        8.4360     6.3208    -4.9668  H       1  <O>11       0.0646
  31 H6        6.5643     8.6018     0.2058  H       1  <O>11       0.0639
  32 H7        5.0392    10.3598     0.7839  H       1  <O>11       0.0830
  33 H8        3.8543    10.8162    -3.0996  H       1  <O>11       0.0830
  34 H9        5.3516     9.0571    -3.8002  H       1  <O>11       0.0639
  35 H10       7.1630     6.8061    -0.2976  H       1  <O>11       0.0627
  36 H11      10.8555     3.8484    -2.0753  H       1  <O>11       0.0624
  37 H12      12.1168     2.3803    -3.5283  H       1  <O>11       0.0618
  38 H13      11.2155     0.2156    -4.1423  H       1  <O>11       0.0618
  39 H14       9.0548    -0.4786    -3.3016  H       1  <O>11       0.0625
@<TRIPOS>BOND
     1     1     2    2
     2     2     3   ar
     3     3     4   ar
     4     4     5   ar
     5     5     6    1
     6     6     7    1
     7     7     8   ar
     8     8     9   ar
     9     9    10   ar
    10    10    11    1
    11    10    12   ar
    12    12    13    1
    13    13    14   ar
    14    14    15   ar
    15    15    16   ar
    16    16    17   ar
    17    17    18   ar
    18    13    18   ar
    19    12    19   ar
    20     7    19   ar
    21     5    20   ar
    22    20    21   ar
    23    21    22   ar
    24    22    23   ar
    25    23    24   ar
    26    24    25   ar
    27     2    25   ar
    28    20    25   ar
    29     3    26    1
    30     6    27    1
    31     6    28    1
    32     8    29    1
    33     9    30    1
    34    14    31    1
    35    15    32    1
    36    17    33    1
    37    18    34    1
    38    19    35    1
    39    21    36    1
    40    22    37    1
    41    23    38    1
    42    24    39    1
@<TRIPOS>MOLECULE
mol74_1_26
 39 42 0 0 0
SMALL
USER_CHARGES
****
VDW energy = -16.90
@<TRIPOS>ATOM
   1 O1        6.7938    -0.2446    -2.0599  O.2     1  <O>11      -0.2658
   2 C1        7.4213     0.9528    -1.6663  C.ar    1  <O>11       0.2725
   3 N1        6.7347     1.7343    -0.7968  N.ar    1  <O>11      -0.2425
   4 N2        7.2340     2.9457    -0.4598  N.ar    1  <O>11      -0.1750
   5 C2        8.4134     3.3437    -0.9933  C.ar    1  <O>11       0.0736
   6 C3        8.8350     4.7170    -0.6550  C.3     1  <O>11       0.0171
   7 C4        8.3028     5.6629    -1.6702  C.ar    1  <O>11      -0.0408
   8 C5        8.7373     6.9989    -1.6911  C.ar    1  <O>11      -0.0555
   9 C6        8.2260     7.8920    -2.6396  C.ar    1  <O>11      -0.0256
  10 C7        7.2832     7.4613    -3.5761  C.ar    1  <O>11       0.1311
  11 F1        6.7771     8.3312    -4.5054  F       1  <O>11      -0.2049
  12 C8        6.8548     6.1274    -3.5598  C.ar    1  <O>11       0.0177
  13 C9        5.8947     5.6915    -4.5189  C.ar    1  <O>11      -0.0123
  14 C10       5.1714     4.5146    -4.3226  C.ar    1  <O>11      -0.0358
  15 C11       4.2701     4.1305    -5.2988  C.ar    1  <O>11       0.0281
  16 N3        4.0412     4.8300    -6.4289  N.ar    1  <O>11      -0.2632
  17 C12       4.7248     5.9707    -6.6130  C.ar    1  <O>11       0.0281
  18 C13       5.6536     6.4318    -5.6809  C.ar    1  <O>11      -0.0358
  19 C14       7.3602     5.2295    -2.6178  C.ar    1  <O>11      -0.0477
  20 C15       9.2100     2.5349    -1.8162  C.ar    1  <O>11       0.0106
  21 C16      10.4688     2.9255    -2.3277  C.ar    1  <O>11      -0.0521
  22 C17      11.1965     2.0826    -3.1684  C.ar    1  <O>11      -0.0611
  23 C18      10.6797     0.8410    -3.5204  C.ar    1  <O>11      -0.0610
  24 C19       9.4353     0.4418    -3.0314  C.ar    1  <O>11      -0.0487
  25 C20       8.6875     1.2787    -2.1714  C.ar    1  <O>11       0.0496
  26 H1        5.8603     1.4136    -0.4062  H       1  <O>11       0.1921
  27 H2        9.9243     4.7707    -0.6448  H       1  <O>11       0.0377
  28 H3        8.4489     4.9842     0.3287  H       1  <O>11       0.0377
  29 H4        9.4361     7.3229    -1.0043  H       1  <O>11       0.0621
  30 H5        8.5468     8.8728    -2.6472  H       1  <O>11       0.0646
  31 H6        5.3052     3.9460    -3.4719  H       1  <O>11       0.0639
  32 H7        3.7412     3.2563    -5.1539  H       1  <O>11       0.0830
  33 H8        4.5580     6.5222    -7.4692  H       1  <O>11       0.0830
  34 H9        6.1608     7.3150    -5.8475  H       1  <O>11       0.0639
  35 H10       7.0417     4.2478    -2.6175  H       1  <O>11       0.0627
  36 H11      10.8555     3.8484    -2.0753  H       1  <O>11       0.0624
  37 H12      12.1168     2.3803    -3.5283  H       1  <O>11       0.0618
  38 H13      11.2155     0.2156    -4.1423  H       1  <O>11       0.0618
  39 H14       9.0548    -0.4786    -3.3016  H       1  <O>11       0.0625
@<TRIPOS>BOND
     1     1     2    2
     2     2     3   ar
     3     3     4   ar
     4     4     5   ar
     5     5     6    1
     6     6     7    1
     7     7     8   ar
     8     8     9   ar
     9     9    10   ar
    10    10    11    1
    11    10    12   ar
    12    12    13    1
    13    13    14   ar
    14    14    15   ar
    15    15    16   ar
    16    16    17   ar
    17    17    18   ar
    18    13    18   ar
    19    12    19   ar
    20     7    19   ar
    21     5    20   ar
    22    20    21   ar
    23    21    22   ar
    24    22    23   ar
    25    23    24   ar
    26    24    25   ar
    27     2    25   ar
    28    20    25   ar
    29     3    26    1
    30     6    27    1
    31     6    28    1
    32     8    29    1
    33     9    30    1
    34    14    31    1
    35    15    32    1
    36    17    33    1
    37    18    34    1
    38    19    35    1
    39    21    36    1
    40    22    37    1
    41    23    38    1
    42    24    39    1
@<TRIPOS>MOLECULE
mol74_1_27
 39 42 0 0 0
SMALL
USER_CHARGES
****
VDW energy = -15.12
@<TRIPOS>ATOM
   1 O1        6.7938    -0.2446    -2.0599  O.2     1  <O>11      -0.2658
   2 C1        7.4213     0.9528    -1.6663  C.ar    1  <O>11       0.2725
   3 N1        6.7347     1.7343    -0.7968  N.ar    1  <O>11      -0.2425
   4 N2        7.2340     2.9457    -0.4598  N.ar    1  <O>11      -0.1750
   5 C2        8.4134     3.3437    -0.9933  C.ar    1  <O>11       0.0736
   6 C3        8.8350     4.7170    -0.6550  C.3     1  <O>11       0.0171
   7 C4        7.8150     5.3460     0.2240  C.ar    1  <O>11      -0.0408
   8 C5        7.5026     4.7746     1.4690  C.ar    1  <O>11      -0.0555
   9 C6        6.5328     5.3607     2.2905  C.ar    1  <O>11      -0.0256
  10 C7        5.8711     6.5209     1.8814  C.ar    1  <O>11       0.1311
  11 F1        4.9191     7.0978     2.6797  F       1  <O>11      -0.2049
  12 C8        6.1872     7.0946     0.6428  C.ar    1  <O>11       0.0177
  13 C9        5.5115     8.2800     0.2305  C.ar    1  <O>11      -0.0123
  14 C10       5.5093     8.6729    -1.1083  C.ar    1  <O>11      -0.0358
  15 C11       4.8562     9.8446    -1.4449  C.ar    1  <O>11       0.0281
  16 N3        4.2125    10.6291    -0.5566  N.ar    1  <O>11      -0.2632
  17 C12       4.2000    10.2453     0.7298  C.ar    1  <O>11       0.0281
  18 C13       4.8340     9.0793     1.1570  C.ar    1  <O>11      -0.0358
  19 C14       7.1539     6.5173    -0.1825  C.ar    1  <O>11      -0.0477
  20 C15       9.2100     2.5349    -1.8162  C.ar    1  <O>11       0.0106
  21 C16      10.4688     2.9255    -2.3277  C.ar    1  <O>11      -0.0521
  22 C17      11.1965     2.0826    -3.1684  C.ar    1  <O>11      -0.0611
  23 C18      10.6797     0.8410    -3.5204  C.ar    1  <O>11      -0.0610
  24 C19       9.4353     0.4418    -3.0314  C.ar    1  <O>11      -0.0487
  25 C20       8.6875     1.2787    -2.1714  C.ar    1  <O>11       0.0496
  26 H1        5.8603     1.4136    -0.4062  H       1  <O>11       0.1921
  27 H2        8.9360     5.3020    -1.5700  H       1  <O>11       0.0377
  28 H3        9.7930     4.6860    -0.1360  H       1  <O>11       0.0377
  29 H4        7.9901     3.9194     1.7790  H       1  <O>11       0.0621
  30 H5        6.3057     4.9339     3.2023  H       1  <O>11       0.0646
  31 H6        5.9824     8.1046    -1.8281  H       1  <O>11       0.0639
  32 H7        4.8617    10.1360    -2.4349  H       1  <O>11       0.0830
  33 H8        3.7070    10.8303     1.4224  H       1  <O>11       0.0830
  34 H9        4.8035     8.8073     2.1521  H       1  <O>11       0.0639
  35 H10       7.3828     6.9506    -1.0908  H       1  <O>11       0.0627
  36 H11      10.8555     3.8484    -2.0753  H       1  <O>11       0.0624
  37 H12      12.1168     2.3803    -3.5283  H       1  <O>11       0.0618
  38 H13      11.2155     0.2156    -4.1423  H       1  <O>11       0.0618
  39 H14       9.0548    -0.4786    -3.3016  H       1  <O>11       0.0625
@<TRIPOS>BOND
     1     1     2    2
     2     2     3   ar
     3     3     4   ar
     4     4     5   ar
     5     5     6    1
     6     6     7    1
     7     7     8   ar
     8     8     9   ar
     9     9    10   ar
    10    10    11    1
    11    10    12   ar
    12    12    13    1
    13    13    14   ar
    14    14    15   ar
    15    15    16   ar
    16    16    17   ar
    17    17    18   ar
    18    13    18   ar
    19    12    19   ar
    20     7    19   ar
    21     5    20   ar
    22    20    21   ar
    23    21    22   ar
    24    22    23   ar
    25    23    24   ar
    26    24    25   ar
    27     2    25   ar
    28    20    25   ar
    29     3    26    1
    30     6    27    1
    31     6    28    1
    32     8    29    1
    33     9    30    1
    34    14    31    1
    35    15    32    1
    36    17    33    1
    37    18    34    1
    38    19    35    1
    39    21    36    1
    40    22    37    1
    41    23    38    1
    42    24    39    1
@<TRIPOS>MOLECULE
mol74_1_28
 39 42 0 0 0
SMALL
USER_CHARGES
****
VDW energy = -14.99
@<TRIPOS>ATOM
   1 O1        6.7938    -0.2446    -2.0599  O.2     1  <O>11      -0.2658
   2 C1        7.4213     0.9528    -1.6663  C.ar    1  <O>11       0.2725
   3 N1        6.7347     1.7343    -0.7968  N.ar    1  <O>11      -0.2425
   4 N2        7.2340     2.9457    -0.4598  N.ar    1  <O>11      -0.1750
   5 C2        8.4134     3.3437    -0.9933  C.ar    1  <O>11       0.0736
   6 C3        8.8350     4.7170    -0.6550  C.3     1  <O>11       0.0171
   7 C4        7.8150     5.3460     0.2240  C.ar    1  <O>11      -0.0408
   8 C5        6.4923     5.5018    -0.2236  C.ar    1  <O>11      -0.0555
   9 C6        5.5355     6.1057     0.6001  C.ar    1  <O>11      -0.0256
  10 C7        5.8866     6.5542     1.8756  C.ar    1  <O>11       0.1311
  11 F1        4.9554     7.1484     2.6856  F       1  <O>11      -0.2049
  12 C8        7.2039     6.3929     2.3248  C.ar    1  <O>11       0.0177
  13 C9        7.5572     6.8495     3.6281  C.ar    1  <O>11      -0.0123
  14 C10       8.8928     7.0537     3.9766  C.ar    1  <O>11      -0.0358
  15 C11       9.1758     7.4755     5.2629  C.ar    1  <O>11       0.0281
  16 N3        8.2364     7.7098     6.2018  N.ar    1  <O>11      -0.2632
  17 C12       6.9497     7.5288     5.8644  C.ar    1  <O>11       0.0281
  18 C13       6.5747     7.1040     4.5904  C.ar    1  <O>11      -0.0358
  19 C14       8.1646     5.7907     1.5102  C.ar    1  <O>11      -0.0477
  20 C15       9.2100     2.5349    -1.8162  C.ar    1  <O>11       0.0106
  21 C16      10.4688     2.9255    -2.3277  C.ar    1  <O>11      -0.0521
  22 C17      11.1965     2.0826    -3.1684  C.ar    1  <O>11      -0.0611
  23 C18      10.6797     0.8410    -3.5204  C.ar    1  <O>11      -0.0610
  24 C19       9.4353     0.4418    -3.0314  C.ar    1  <O>11      -0.0487
  25 C20       8.6875     1.2787    -2.1714  C.ar    1  <O>11       0.0496
  26 H1        5.8603     1.4136    -0.4062  H       1  <O>11       0.1921
  27 H2        8.9360     5.3020    -1.5700  H       1  <O>11       0.0377
  28 H3        9.7930     4.6860    -0.1360  H       1  <O>11       0.0377
  29 H4        6.2253     5.1696    -1.1636  H       1  <O>11       0.0621
  30 H5        4.5666     6.2201     0.2638  H       1  <O>11       0.0646
  31 H6        9.6492     6.8943     3.2928  H       1  <O>11       0.0639
  32 H7       10.1649     7.6196     5.5197  H       1  <O>11       0.0830
  33 H8        6.2169     7.7092     6.5683  H       1  <O>11       0.0830
  34 H9        5.5769     6.9781     4.3586  H       1  <O>11       0.0639
  35 H10       9.1309     5.6723     1.8525  H       1  <O>11       0.0627
  36 H11      10.8555     3.8484    -2.0753  H       1  <O>11       0.0624
  37 H12      12.1168     2.3803    -3.5283  H       1  <O>11       0.0618
  38 H13      11.2155     0.2156    -4.1423  H       1  <O>11       0.0618
  39 H14       9.0548    -0.4786    -3.3016  H       1  <O>11       0.0625
@<TRIPOS>BOND
     1     1     2    2
     2     2     3   ar
     3     3     4   ar
     4     4     5   ar
     5     5     6    1
     6     6     7    1
     7     7     8   ar
     8     8     9   ar
     9     9    10   ar
    10    10    11    1
    11    10    12   ar
    12    12    13    1
    13    13    14   ar
    14    14    15   ar
    15    15    16   ar
    16    16    17   ar
    17    17    18   ar
    18    13    18   ar
    19    12    19   ar
    20     7    19   ar
    21     5    20   ar
    22    20    21   ar
    23    21    22   ar
    24    22    23   ar
    25    23    24   ar
    26    24    25   ar
    27     2    25   ar
    28    20    25   ar
    29     3    26    1
    30     6    27    1
    31     6    28    1
    32     8    29    1
    33     9    30    1
    34    14    31    1
    35    15    32    1
    36    17    33    1
    37    18    34    1
    38    19    35    1
    39    21    36    1
    40    22    37    1
    41    23    38    1
    42    24    39    1
@<TRIPOS>MOLECULE
mol74_1_29
 39 42 0 0 0
SMALL
USER_CHARGES
****
VDW energy = -14.68
@<TRIPOS>ATOM
   1 O1        6.7938    -0.2446    -2.0599  O.2     1  <O>11      -0.2658
   2 C1        7.4213     0.9528    -1.6663  C.ar    1  <O>11       0.2725
   3 N1        6.7347     1.7343    -0.7968  N.ar    1  <O>11      -0.2425
   4 N2        7.2340     2.9457    -0.4598  N.ar    1  <O>11      -0.1750
   5 C2        8.4134     3.3437    -0.9933  C.ar    1  <O>11       0.0736
   6 C3        8.8350     4.7170    -0.6550  C.3     1  <O>11       0.0171
   7 C4        9.6503     4.6931     0.5874  C.ar    1  <O>11      -0.0408
   8 C5       10.8439     3.9536     0.6379  C.ar    1  <O>11      -0.0555
   9 C6       11.6044     3.9215     1.8124  C.ar    1  <O>11      -0.0256
  10 C7       11.1854     4.6281     2.9422  C.ar    1  <O>11       0.1311
  11 F1       11.9239     4.5986     4.0955  F       1  <O>11      -0.2049
  12 C8        9.9986     5.3710     2.8900  C.ar    1  <O>11       0.0177
  13 C9        9.5761     6.0927     4.0443  C.ar    1  <O>11      -0.0123
  14 C10       8.2569     6.5287     4.1718  C.ar    1  <O>11      -0.0358
  15 C11       7.9112     7.2442     5.3038  C.ar    1  <O>11       0.0281
  16 N3        8.7721     7.5406     6.2987  N.ar    1  <O>11      -0.2632
  17 C12      10.0383     7.1090     6.1856  C.ar    1  <O>11       0.0281
  18 C13      10.4729     6.3823     5.0778  C.ar    1  <O>11      -0.0358
  19 C14       9.2343     5.4094     1.7223  C.ar    1  <O>11      -0.0477
  20 C15       9.2100     2.5349    -1.8162  C.ar    1  <O>11       0.0106
  21 C16      10.4688     2.9255    -2.3277  C.ar    1  <O>11      -0.0521
  22 C17      11.1965     2.0826    -3.1684  C.ar    1  <O>11      -0.0611
  23 C18      10.6797     0.8410    -3.5204  C.ar    1  <O>11      -0.0610
  24 C19       9.4353     0.4418    -3.0314  C.ar    1  <O>11      -0.0487
  25 C20       8.6875     1.2787    -2.1714  C.ar    1  <O>11       0.0496
  26 H1        5.8603     1.4136    -0.4062  H       1  <O>11       0.1921
  27 H2        7.9533     5.3397    -0.4986  H       1  <O>11       0.0377
  28 H3        9.4290     5.1268    -1.4719  H       1  <O>11       0.0377
  29 H4       11.1611     3.4320    -0.1942  H       1  <O>11       0.0621
  30 H5       12.4783     3.3736     1.8439  H       1  <O>11       0.0646
  31 H6        7.5578     6.3229     3.4412  H       1  <O>11       0.0639
  32 H7        6.9363     7.5709     5.3924  H       1  <O>11       0.0830
  33 H8       10.7093     7.3213     6.9403  H       1  <O>11       0.0830
  34 H9       11.4515     6.0597     5.0208  H       1  <O>11       0.0639
  35 H10       8.3642     5.9636     1.6928  H       1  <O>11       0.0627
  36 H11      10.8555     3.8484    -2.0753  H       1  <O>11       0.0624
  37 H12      12.1168     2.3803    -3.5283  H       1  <O>11       0.0618
  38 H13      11.2155     0.2156    -4.1423  H       1  <O>11       0.0618
  39 H14       9.0548    -0.4786    -3.3016  H       1  <O>11       0.0625
@<TRIPOS>BOND
     1     1     2    2
     2     2     3   ar
     3     3     4   ar
     4     4     5   ar
     5     5     6    1
     6     6     7    1
     7     7     8   ar
     8     8     9   ar
     9     9    10   ar
    10    10    11    1
    11    10    12   ar
    12    12    13    1
    13    13    14   ar
    14    14    15   ar
    15    15    16   ar
    16    16    17   ar
    17    17    18   ar
    18    13    18   ar
    19    12    19   ar
    20     7    19   ar
    21     5    20   ar
    22    20    21   ar
    23    21    22   ar
    24    22    23   ar
    25    23    24   ar
    26    24    25   ar
    27     2    25   ar
    28    20    25   ar
    29     3    26    1
    30     6    27    1
    31     6    28    1
    32     8    29    1
    33     9    30    1
    34    14    31    1
    35    15    32    1
    36    17    33    1
    37    18    34    1
    38    19    35    1
    39    21    36    1
    40    22    37    1
    41    23    38    1
    42    24    39    1
@<TRIPOS>MOLECULE
mol74_1_30
 39 42 0 0 0
SMALL
USER_CHARGES
****
VDW energy = 1.28
@<TRIPOS>ATOM
   1 O1        6.7938    -0.2446    -2.0599  O.2     1  <O>11      -0.2658
   2 C1        7.4213     0.9528    -1.6663  C.ar    1  <O>11       0.2725
   3 N1        6.7347     1.7343    -0.7968  N.ar    1  <O>11      -0.2425
   4 N2        7.2340     2.9457    -0.4598  N.ar    1  <O>11      -0.1750
   5 C2        8.4134     3.3437    -0.9933  C.ar    1  <O>11       0.0736
   6 C3        8.8350     4.7170    -0.6550  C.3     1  <O>11       0.0171
   7 C4       10.1408     4.6740     0.0534  C.ar    1  <O>11      -0.0408
   8 C5       10.6536     5.8300     0.6656  C.ar    1  <O>11      -0.0555
   9 C6       11.8893     5.7916     1.3216  C.ar    1  <O>11      -0.0256
  10 C7       12.6205     4.6026     1.3771  C.ar    1  <O>11       0.1311
  11 F1       13.8317     4.5592     2.0154  F       1  <O>11      -0.2049
  12 C8       12.1062     3.4481     0.7724  C.ar    1  <O>11       0.0177
  13 C9       12.8543     2.2363     0.8339  C.ar    1  <O>11      -0.0123
  14 C10      13.7823     1.9179    -0.1582  C.ar    1  <O>11      -0.0358
  15 C11      14.4617     0.7175    -0.0570  C.ar    1  <O>11       0.0281
  16 N3       14.2873    -0.1634     0.9492  N.ar    1  <O>11      -0.2632
  17 C12      13.4061     0.1477     1.9130  C.ar    1  <O>11       0.0281
  18 C13      12.6770     1.3359     1.8894  C.ar    1  <O>11      -0.0358
  19 C14      10.8740     3.4771     0.1168  C.ar    1  <O>11      -0.0477
  20 C15       9.2100     2.5349    -1.8162  C.ar    1  <O>11       0.0106
  21 C16      10.4688     2.9255    -2.3277  C.ar    1  <O>11      -0.0521
  22 C17      11.1965     2.0826    -3.1684  C.ar    1  <O>11      -0.0611
  23 C18      10.6797     0.8410    -3.5204  C.ar    1  <O>11      -0.0610
  24 C19       9.4353     0.4418    -3.0314  C.ar    1  <O>11      -0.0487
  25 C20       8.6875     1.2787    -2.1714  C.ar    1  <O>11       0.0496
  26 H1        5.8603     1.4136    -0.4062  H       1  <O>11       0.1921
  27 H2        8.0868     5.1782    -0.0092  H       1  <O>11       0.0377
  28 H3        8.9363     5.3020    -1.5691  H       1  <O>11       0.0377
  29 H4       10.1170     6.7110     0.6313  H       1  <O>11       0.0621
  30 H5       12.2618     6.6452     1.7661  H       1  <O>11       0.0646
  31 H6       13.9571     2.5608    -0.9463  H       1  <O>11       0.0639
  32 H7       15.1429     0.4818    -0.7956  H       1  <O>11       0.0830
  33 H8       13.2641    -0.5118     2.6940  H       1  <O>11       0.0830
  34 H9       12.0099     1.5501     2.6471  H       1  <O>11       0.0639
  35 H10      10.5018     2.6199    -0.3210  H       1  <O>11       0.0627
  36 H11      10.8555     3.8484    -2.0753  H       1  <O>11       0.0624
  37 H12      12.1168     2.3803    -3.5283  H       1  <O>11       0.0618
  38 H13      11.2155     0.2156    -4.1423  H       1  <O>11       0.0618
  39 H14       9.0548    -0.4786    -3.3016  H       1  <O>11       0.0625
@<TRIPOS>BOND
     1     1     2    2
     2     2     3   ar
     3     3     4   ar
     4     4     5   ar
     5     5     6    1
     6     6     7    1
     7     7     8   ar
     8     8     9   ar
     9     9    10   ar
    10    10    11    1
    11    10    12   ar
    12    12    13    1
    13    13    14   ar
    14    14    15   ar
    15    15    16   ar
    16    16    17   ar
    17    17    18   ar
    18    13    18   ar
    19    12    19   ar
    20     7    19   ar
    21     5    20   ar
    22    20    21   ar
    23    21    22   ar
    24    22    23   ar
    25    23    24   ar
    26    24    25   ar
    27     2    25   ar
    28    20    25   ar
    29     3    26    1
    30     6    27    1
    31     6    28    1
    32     8    29    1
    33     9    30    1
    34    14    31    1
    35    15    32    1
    36    17    33    1
    37    18    34    1
    38    19    35    1
    39    21    36    1
    40    22    37    1
    41    23    38    1
    42    24    39    1
