@<TRIPOS>MOLECULE
mol76_1_1
 45 47 0 0 0
SMALL
USER_CHARGES
****
VDW energy = 91.02
@<TRIPOS>ATOM
   1 O1        3.4420    -9.1855    -5.2979  O.2     1  <O>11      -0.2687
   2 C1        2.8552    -9.8129    -4.4288  C.2     1  <O>11       0.2601
   3 N1        3.5160   -10.1860    -3.2900  N.am    1  <O>11      -0.2301
   4 N2        2.8557   -10.8918    -2.3123  N.am    1  <O>11      -0.2301
   5 C2        3.5157   -11.2646    -1.1737  C.2     1  <O>11       0.2602
   6 O2        4.6922   -10.9700    -1.0250  O.2     1  <O>11      -0.2687
   7 C3        2.8163   -12.0119    -0.1372  C.ar    1  <O>11       0.0400
   8 C4        3.5388   -12.7186     0.8391  C.ar    1  <O>11      -0.0495
   9 C5        2.8654   -13.4462     1.8263  C.ar    1  <O>11      -0.0592
  10 C6        1.4682   -13.4723     1.8514  C.ar    1  <O>11      -0.0350
  11 C7        0.7485   -12.7631     0.8845  C.ar    1  <O>11       0.1092
  12 S1       -1.0099   -12.7992     0.9236  S.O2    1  <O>11       0.0724
  13 O3       -1.5580   -11.7895     2.1244  O.2     1  <O>11      -0.1500
  14 O4       -1.5262   -14.3489     1.2250  O.2     1  <O>11      -0.1500
  15 N3       -1.6040   -12.2935    -0.5333  N.pl3   1  <O>11      -0.2163
  16 C8       -3.0376   -12.2335    -0.7495  C.ar    1  <O>11       0.0480
  17 C9       -3.7516   -11.0597    -0.4528  C.ar    1  <O>11      -0.0393
  18 C10      -5.1355   -11.0064    -0.6512  C.ar    1  <O>11      -0.0600
  19 C11      -5.8177   -12.1185    -1.1512  C.ar    1  <O>11      -0.0616
  20 C12      -5.1058   -13.2844    -1.4528  C.ar    1  <O>11      -0.0600
  21 C13      -3.7253   -13.3455    -1.2605  C.ar    1  <O>11      -0.0393
  22 C14       1.4115   -12.0337    -0.1042  C.ar    1  <O>11      -0.0229
  23 C15       1.4620   -10.1610    -4.6040  C.ar    1  <O>11       0.0382
  24 C16       0.4750    -9.2817    -4.1546  C.ar    1  <O>11      -0.0496
  25 C17      -0.8745    -9.6183    -4.3101  C.ar    1  <O>11      -0.0610
  26 C18      -1.2337   -10.8255    -4.9148  C.ar    1  <O>11      -0.0617
  27 C19      -0.2326   -11.6941    -5.3653  C.ar    1  <O>11      -0.0610
  28 C20       1.1151   -11.3668    -5.2172  C.ar    1  <O>11      -0.0496
  29 H1        4.4984    -9.9405    -3.1657  H       1  <O>11       0.1731
  30 H2        1.8733   -11.1372    -2.4366  H       1  <O>11       0.1731
  31 H3       -0.9637   -12.0223    -1.2784  H       1  <O>11       0.1737
  32 H4        4.5706   -12.7008     0.8279  H       1  <O>11       0.0625
  33 H5        3.4022   -13.9655     2.5384  H       1  <O>11       0.0618
  34 H6        0.9713   -14.0109     2.5780  H       1  <O>11       0.0637
  35 H7       -3.2529   -10.2336    -0.0871  H       1  <O>11       0.0636
  36 H8       -5.6542   -10.1427    -0.4275  H       1  <O>11       0.0618
  37 H9       -6.8386   -12.0801    -1.2969  H       1  <O>11       0.0618
  38 H10      -5.6070   -14.1079    -1.8213  H       1  <O>11       0.0618
  39 H11      -3.2096   -14.2083    -1.4941  H       1  <O>11       0.0636
  40 H12       0.8703   -11.5110    -0.8105  H       1  <O>11       0.0645
  41 H13       0.7391    -8.3884    -3.7103  H       1  <O>11       0.0625
  42 H14      -1.6070    -8.9723    -3.9769  H       1  <O>11       0.0618
  43 H15      -2.2287   -11.0748    -5.0282  H       1  <O>11       0.0618
  44 H16      -0.4947   -12.5867    -5.8121  H       1  <O>11       0.0618
  45 H17       1.8481   -12.0089    -5.5570  H       1  <O>11       0.0625
@<TRIPOS>BOND
     1     1     2    2
     2     2     3   am
     3     3     4    1
     4     4     5   am
     5     5     6    2
     6     5     7    1
     7     7     8   ar
     8     8     9   ar
     9     9    10   ar
    10    10    11   ar
    11    11    12    1
    12    12    13    2
    13    12    14    2
    14    12    15    1
    15    15    16    1
    16    16    17   ar
    17    17    18   ar
    18    18    19   ar
    19    19    20   ar
    20    20    21   ar
    21    16    21   ar
    22    11    22   ar
    23     7    22   ar
    24     2    23    1
    25    23    24   ar
    26    24    25   ar
    27    25    26   ar
    28    26    27   ar
    29    27    28   ar
    30    23    28   ar
    31     3    29    1
    32     4    30    1
    33    15    31    1
    34     8    32    1
    35     9    33    1
    36    10    34    1
    37    17    35    1
    38    18    36    1
    39    19    37    1
    40    20    38    1
    41    21    39    1
    42    22    40    1
    43    24    41    1
    44    25    42    1
    45    26    43    1
    46    27    44    1
    47    28    45    1
@<TRIPOS>MOLECULE
mol76_1_2
 45 47 0 0 0
SMALL
USER_CHARGES
****
VDW energy = 94.23
@<TRIPOS>ATOM
   1 O1        3.4420    -9.1855    -5.2979  O.2     1  <O>11      -0.2687
   2 C1        2.8552    -9.8129    -4.4288  C.2     1  <O>11       0.2601
   3 N1        3.5160   -10.1860    -3.2900  N.am    1  <O>11      -0.2301
   4 N2        4.8400    -9.8550    -3.1240  N.am    1  <O>11      -0.2301
   5 C2        5.5010   -10.2280    -1.9860  C.2     1  <O>11       0.2602
   6 O2        4.9150   -10.8560    -1.1170  O.2     1  <O>11      -0.2687
   7 C3        6.9040    -9.8780    -1.8100  C.ar    1  <O>11       0.0400
   8 C4        7.4891    -9.9096    -0.5328  C.ar    1  <O>11      -0.0495
   9 C5        8.8335    -9.5609    -0.3638  C.ar    1  <O>11      -0.0592
  10 C6        9.6061    -9.1823    -1.4652  C.ar    1  <O>11      -0.0350
  11 C7        9.0264    -9.1578    -2.7376  C.ar    1  <O>11       0.1092
  12 S1       10.0057    -8.6819    -4.1195  S.O2    1  <O>11       0.0724
  13 O3       10.9973    -9.9420    -4.5557  O.2     1  <O>11      -0.1500
  14 O4       10.9316    -7.3634    -3.7151  O.2     1  <O>11      -0.1500
  15 N3        9.0188    -8.2949    -5.3872  N.pl3   1  <O>11      -0.2163
  16 C8        9.5943    -7.8705    -6.6498  C.ar    1  <O>11       0.0480
  17 C9        8.7626    -7.5389    -7.7333  C.ar    1  <O>11      -0.0393
  18 C10       9.3186    -7.1404    -8.9536  C.ar    1  <O>11      -0.0600
  19 C11      10.7057    -7.0637    -9.1029  C.ar    1  <O>11      -0.0616
  20 C12      11.5332    -7.3873    -8.0223  C.ar    1  <O>11      -0.0600
  21 C13      10.9873    -7.7831    -6.8010  C.ar    1  <O>11      -0.0393
  22 C14       7.6859    -9.5046    -2.9164  C.ar    1  <O>11      -0.0229
  23 C15       1.4620   -10.1610    -4.6040  C.ar    1  <O>11       0.0382
  24 C16       0.4750    -9.2817    -4.1546  C.ar    1  <O>11      -0.0496
  25 C17      -0.8745    -9.6183    -4.3101  C.ar    1  <O>11      -0.0610
  26 C18      -1.2337   -10.8255    -4.9148  C.ar    1  <O>11      -0.0617
  27 C19      -0.2326   -11.6941    -5.3653  C.ar    1  <O>11      -0.0610
  28 C20       1.1151   -11.3668    -5.2172  C.ar    1  <O>11      -0.0496
  29 H1        3.0270   -10.7100    -2.5640  H       1  <O>11       0.1731
  30 H2        5.3290    -9.3310    -3.8500  H       1  <O>11       0.1731
  31 H3        8.0069    -8.3561    -5.2825  H       1  <O>11       0.1737
  32 H4        6.9248   -10.1913     0.2840  H       1  <O>11       0.0625
  33 H5        9.2560    -9.5833     0.5774  H       1  <O>11       0.0618
  34 H6       10.5971    -8.9227    -1.3404  H       1  <O>11       0.0637
  35 H7        7.7373    -7.5897    -7.6281  H       1  <O>11       0.0636
  36 H8        8.7021    -6.9022    -9.7463  H       1  <O>11       0.0618
  37 H9       11.1165    -6.7707   -10.0032  H       1  <O>11       0.0618
  38 H10      12.5582    -7.3326    -8.1297  H       1  <O>11       0.0618
  39 H11      11.6075    -8.0116    -6.0085  H       1  <O>11       0.0636
  40 H12       7.2695    -9.4866    -3.8605  H       1  <O>11       0.0645
  41 H13       0.7391    -8.3884    -3.7103  H       1  <O>11       0.0625
  42 H14      -1.6070    -8.9723    -3.9769  H       1  <O>11       0.0618
  43 H15      -2.2287   -11.0748    -5.0282  H       1  <O>11       0.0618
  44 H16      -0.4947   -12.5867    -5.8121  H       1  <O>11       0.0618
  45 H17       1.8481   -12.0089    -5.5570  H       1  <O>11       0.0625
@<TRIPOS>BOND
     1     1     2    2
     2     2     3   am
     3     3     4    1
     4     4     5   am
     5     5     6    2
     6     5     7    1
     7     7     8   ar
     8     8     9   ar
     9     9    10   ar
    10    10    11   ar
    11    11    12    1
    12    12    13    2
    13    12    14    2
    14    12    15    1
    15    15    16    1
    16    16    17   ar
    17    17    18   ar
    18    18    19   ar
    19    19    20   ar
    20    20    21   ar
    21    16    21   ar
    22    11    22   ar
    23     7    22   ar
    24     2    23    1
    25    23    24   ar
    26    24    25   ar
    27    25    26   ar
    28    26    27   ar
    29    27    28   ar
    30    23    28   ar
    31     3    29    1
    32     4    30    1
    33    15    31    1
    34     8    32    1
    35     9    33    1
    36    10    34    1
    37    17    35    1
    38    18    36    1
    39    19    37    1
    40    20    38    1
    41    21    39    1
    42    22    40    1
    43    24    41    1
    44    25    42    1
    45    26    43    1
    46    27    44    1
    47    28    45    1
@<TRIPOS>MOLECULE
mol76_1_3
 45 47 0 0 0
SMALL
USER_CHARGES
****
VDW energy = 94.65
@<TRIPOS>ATOM
   1 O1        3.4420    -9.1855    -5.2979  O.2     1  <O>11      -0.2687
   2 C1        2.8552    -9.8129    -4.4288  C.2     1  <O>11       0.2601
   3 N1        3.5160   -10.1860    -3.2900  N.am    1  <O>11      -0.2301
   4 N2        4.8400    -9.8550    -3.1240  N.am    1  <O>11      -0.2301
   5 C2        5.5010   -10.2280    -1.9860  C.2     1  <O>11       0.2602
   6 O2        4.9150   -10.8560    -1.1170  O.2     1  <O>11      -0.2687
   7 C3        6.9040    -9.8780    -1.8100  C.ar    1  <O>11       0.0400
   8 C4        7.4891    -9.9096    -0.5328  C.ar    1  <O>11      -0.0495
   9 C5        8.8335    -9.5609    -0.3638  C.ar    1  <O>11      -0.0592
  10 C6        9.6061    -9.1823    -1.4652  C.ar    1  <O>11      -0.0350
  11 C7        9.0264    -9.1578    -2.7376  C.ar    1  <O>11       0.1092
  12 S1       10.0057    -8.6819    -4.1195  S.O2    1  <O>11       0.0724
  13 O3       11.1740    -7.6077    -3.6265  O.2     1  <O>11      -0.1500
  14 O4        9.0391    -7.9622    -5.2626  O.2     1  <O>11      -0.1500
  15 N3       10.7276   -10.0186    -4.7699  N.pl3   1  <O>11      -0.2163
  16 C8       11.5936    -9.8836    -5.9263  C.ar    1  <O>11       0.0480
  17 C9       12.2113   -11.0151    -6.4865  C.ar    1  <O>11      -0.0393
  18 C10      13.0549   -10.8825    -7.5947  C.ar    1  <O>11      -0.0600
  19 C11      13.2854    -9.6243    -8.1566  C.ar    1  <O>11      -0.0616
  20 C12      12.6652    -8.4990    -7.6031  C.ar    1  <O>11      -0.0600
  21 C13      11.8204    -8.6224    -6.4996  C.ar    1  <O>11      -0.0393
  22 C14       7.6859    -9.5046    -2.9164  C.ar    1  <O>11      -0.0229
  23 C15       1.4620   -10.1610    -4.6040  C.ar    1  <O>11       0.0382
  24 C16       1.0134   -11.4175    -4.1926  C.ar    1  <O>11      -0.0496
  25 C17      -0.3305   -11.7649    -4.3706  C.ar    1  <O>11      -0.0610
  26 C18      -1.2205   -10.8590    -4.9532  C.ar    1  <O>11      -0.0617
  27 C19      -0.7568    -9.6008    -5.3553  C.ar    1  <O>11      -0.0610
  28 C20       0.5801    -9.2441    -5.1802  C.ar    1  <O>11      -0.0496
  29 H1        3.0270   -10.7100    -2.5640  H       1  <O>11       0.1731
  30 H2        5.3290    -9.3310    -3.8500  H       1  <O>11       0.1731
  31 H3       10.5658   -10.9366    -4.3578  H       1  <O>11       0.1737
  32 H4        6.9248   -10.1913     0.2840  H       1  <O>11       0.0625
  33 H5        9.2560    -9.5833     0.5774  H       1  <O>11       0.0618
  34 H6       10.5971    -8.9227    -1.3404  H       1  <O>11       0.0637
  35 H7       12.0419   -11.9477    -6.0786  H       1  <O>11       0.0636
  36 H8       13.5084   -11.7169    -7.9985  H       1  <O>11       0.0618
  37 H9       13.9083    -9.5257    -8.9735  H       1  <O>11       0.0618
  38 H10      12.8343    -7.5681    -8.0152  H       1  <O>11       0.0618
  39 H11      11.3621    -7.7863    -6.1048  H       1  <O>11       0.0636
  40 H12       7.2695    -9.4866    -3.8605  H       1  <O>11       0.0645
  41 H13       1.6693   -12.0865    -3.7596  H       1  <O>11       0.0625
  42 H14      -0.6655   -12.6936    -4.0704  H       1  <O>11       0.0618
  43 H15      -2.2113   -11.1153    -5.0861  H       1  <O>11       0.0618
  44 H16      -1.4117    -8.9296    -5.7862  H       1  <O>11       0.0618
  45 H17       0.9141    -8.3127    -5.4733  H       1  <O>11       0.0625
@<TRIPOS>BOND
     1     1     2    2
     2     2     3   am
     3     3     4    1
     4     4     5   am
     5     5     6    2
     6     5     7    1
     7     7     8   ar
     8     8     9   ar
     9     9    10   ar
    10    10    11   ar
    11    11    12    1
    12    12    13    2
    13    12    14    2
    14    12    15    1
    15    15    16    1
    16    16    17   ar
    17    17    18   ar
    18    18    19   ar
    19    19    20   ar
    20    20    21   ar
    21    16    21   ar
    22    11    22   ar
    23     7    22   ar
    24     2    23    1
    25    23    24   ar
    26    24    25   ar
    27    25    26   ar
    28    26    27   ar
    29    27    28   ar
    30    23    28   ar
    31     3    29    1
    32     4    30    1
    33    15    31    1
    34     8    32    1
    35     9    33    1
    36    10    34    1
    37    17    35    1
    38    18    36    1
    39    19    37    1
    40    20    38    1
    41    21    39    1
    42    22    40    1
    43    24    41    1
    44    25    42    1
    45    26    43    1
    46    27    44    1
    47    28    45    1
@<TRIPOS>MOLECULE
mol76_1_4
 45 47 0 0 0
SMALL
USER_CHARGES
****
VDW energy = 97.23
@<TRIPOS>ATOM
   1 O1        3.4420    -9.1855    -5.2979  O.2     1  <O>11      -0.2687
   2 C1        2.8552    -9.8129    -4.4288  C.2     1  <O>11       0.2601
   3 N1        3.5160   -10.1860    -3.2900  N.am    1  <O>11      -0.2301
   4 N2        4.8400    -9.8550    -3.1240  N.am    1  <O>11      -0.2301
   5 C2        5.5010   -10.2280    -1.9860  C.2     1  <O>11       0.2602
   6 O2        4.9150   -10.8560    -1.1170  O.2     1  <O>11      -0.2687
   7 C3        6.9040    -9.8780    -1.8100  C.ar    1  <O>11       0.0400
   8 C4        7.4891    -9.9096    -0.5328  C.ar    1  <O>11      -0.0495
   9 C5        8.8335    -9.5609    -0.3638  C.ar    1  <O>11      -0.0592
  10 C6        9.6061    -9.1823    -1.4652  C.ar    1  <O>11      -0.0350
  11 C7        9.0264    -9.1578    -2.7376  C.ar    1  <O>11       0.1092
  12 S1       10.0057    -8.6819    -4.1195  S.O2    1  <O>11       0.0724
  13 O3       10.9973    -9.9420    -4.5557  O.2     1  <O>11      -0.1500
  14 O4       10.9316    -7.3634    -3.7151  O.2     1  <O>11      -0.1500
  15 N3        9.0188    -8.2949    -5.3872  N.pl3   1  <O>11      -0.2163
  16 C8        9.5943    -7.8705    -6.6498  C.ar    1  <O>11       0.0480
  17 C9        8.7626    -7.5389    -7.7333  C.ar    1  <O>11      -0.0393
  18 C10       9.3186    -7.1404    -8.9536  C.ar    1  <O>11      -0.0600
  19 C11      10.7057    -7.0637    -9.1029  C.ar    1  <O>11      -0.0616
  20 C12      11.5332    -7.3873    -8.0223  C.ar    1  <O>11      -0.0600
  21 C13      10.9873    -7.7831    -6.8010  C.ar    1  <O>11      -0.0393
  22 C14       7.6859    -9.5046    -2.9164  C.ar    1  <O>11      -0.0229
  23 C15       1.4620   -10.1610    -4.6040  C.ar    1  <O>11       0.0382
  24 C16       1.0134   -11.4175    -4.1926  C.ar    1  <O>11      -0.0496
  25 C17      -0.3305   -11.7649    -4.3706  C.ar    1  <O>11      -0.0610
  26 C18      -1.2205   -10.8590    -4.9532  C.ar    1  <O>11      -0.0617
  27 C19      -0.7568    -9.6008    -5.3553  C.ar    1  <O>11      -0.0610
  28 C20       0.5801    -9.2441    -5.1802  C.ar    1  <O>11      -0.0496
  29 H1        3.0270   -10.7100    -2.5640  H       1  <O>11       0.1731
  30 H2        5.3290    -9.3310    -3.8500  H       1  <O>11       0.1731
  31 H3        8.0069    -8.3561    -5.2825  H       1  <O>11       0.1737
  32 H4        6.9248   -10.1913     0.2840  H       1  <O>11       0.0625
  33 H5        9.2560    -9.5833     0.5774  H       1  <O>11       0.0618
  34 H6       10.5971    -8.9227    -1.3404  H       1  <O>11       0.0637
  35 H7        7.7373    -7.5897    -7.6281  H       1  <O>11       0.0636
  36 H8        8.7021    -6.9022    -9.7463  H       1  <O>11       0.0618
  37 H9       11.1165    -6.7707   -10.0032  H       1  <O>11       0.0618
  38 H10      12.5582    -7.3326    -8.1297  H       1  <O>11       0.0618
  39 H11      11.6075    -8.0116    -6.0085  H       1  <O>11       0.0636
  40 H12       7.2695    -9.4866    -3.8605  H       1  <O>11       0.0645
  41 H13       1.6693   -12.0865    -3.7596  H       1  <O>11       0.0625
  42 H14      -0.6655   -12.6936    -4.0704  H       1  <O>11       0.0618
  43 H15      -2.2113   -11.1153    -5.0861  H       1  <O>11       0.0618
  44 H16      -1.4117    -8.9296    -5.7862  H       1  <O>11       0.0618
  45 H17       0.9141    -8.3127    -5.4733  H       1  <O>11       0.0625
@<TRIPOS>BOND
     1     1     2    2
     2     2     3   am
     3     3     4    1
     4     4     5   am
     5     5     6    2
     6     5     7    1
     7     7     8   ar
     8     8     9   ar
     9     9    10   ar
    10    10    11   ar
    11    11    12    1
    12    12    13    2
    13    12    14    2
    14    12    15    1
    15    15    16    1
    16    16    17   ar
    17    17    18   ar
    18    18    19   ar
    19    19    20   ar
    20    20    21   ar
    21    16    21   ar
    22    11    22   ar
    23     7    22   ar
    24     2    23    1
    25    23    24   ar
    26    24    25   ar
    27    25    26   ar
    28    26    27   ar
    29    27    28   ar
    30    23    28   ar
    31     3    29    1
    32     4    30    1
    33    15    31    1
    34     8    32    1
    35     9    33    1
    36    10    34    1
    37    17    35    1
    38    18    36    1
    39    19    37    1
    40    20    38    1
    41    21    39    1
    42    22    40    1
    43    24    41    1
    44    25    42    1
    45    26    43    1
    46    27    44    1
    47    28    45    1
@<TRIPOS>MOLECULE
mol76_1_5
 45 47 0 0 0
SMALL
USER_CHARGES
****
VDW energy = 97.67
@<TRIPOS>ATOM
   1 O1        3.4420    -9.1855    -5.2979  O.2     1  <O>11      -0.2687
   2 C1        2.8552    -9.8129    -4.4288  C.2     1  <O>11       0.2601
   3 N1        3.5160   -10.1860    -3.2900  N.am    1  <O>11      -0.2301
   4 N2        2.8557   -10.8918    -2.3123  N.am    1  <O>11      -0.2301
   5 C2        3.5157   -11.2646    -1.1737  C.2     1  <O>11       0.2602
   6 O2        4.6922   -10.9700    -1.0250  O.2     1  <O>11      -0.2687
   7 C3        2.8163   -12.0119    -0.1372  C.ar    1  <O>11       0.0400
   8 C4        3.5388   -12.7186     0.8391  C.ar    1  <O>11      -0.0495
   9 C5        2.8654   -13.4462     1.8263  C.ar    1  <O>11      -0.0592
  10 C6        1.4682   -13.4723     1.8514  C.ar    1  <O>11      -0.0350
  11 C7        0.7485   -12.7631     0.8845  C.ar    1  <O>11       0.1092
  12 S1       -1.0099   -12.7992     0.9236  S.O2    1  <O>11       0.0724
  13 O3       -1.5580   -11.7895     2.1244  O.2     1  <O>11      -0.1500
  14 O4       -1.5262   -14.3489     1.2250  O.2     1  <O>11      -0.1500
  15 N3       -1.6040   -12.2935    -0.5333  N.pl3   1  <O>11      -0.2163
  16 C8       -3.0376   -12.2335    -0.7495  C.ar    1  <O>11       0.0480
  17 C9       -3.5517   -11.8051    -1.9855  C.ar    1  <O>11      -0.0393
  18 C10      -4.9342   -11.7371    -2.1892  C.ar    1  <O>11      -0.0600
  19 C11      -5.8146   -12.0999    -1.1669  C.ar    1  <O>11      -0.0616
  20 C12      -5.3026   -12.5327     0.0611  C.ar    1  <O>11      -0.0600
  21 C13      -3.9255   -12.6061     0.2721  C.ar    1  <O>11      -0.0393
  22 C14       1.4115   -12.0337    -0.1042  C.ar    1  <O>11      -0.0229
  23 C15       1.4620   -10.1610    -4.6040  C.ar    1  <O>11       0.0382
  24 C16       0.4750    -9.2817    -4.1546  C.ar    1  <O>11      -0.0496
  25 C17      -0.8745    -9.6183    -4.3101  C.ar    1  <O>11      -0.0610
  26 C18      -1.2337   -10.8255    -4.9148  C.ar    1  <O>11      -0.0617
  27 C19      -0.2326   -11.6941    -5.3653  C.ar    1  <O>11      -0.0610
  28 C20       1.1151   -11.3668    -5.2172  C.ar    1  <O>11      -0.0496
  29 H1        4.4984    -9.9405    -3.1657  H       1  <O>11       0.1731
  30 H2        1.8733   -11.1372    -2.4366  H       1  <O>11       0.1731
  31 H3       -0.9637   -12.0223    -1.2784  H       1  <O>11       0.1737
  32 H4        4.5706   -12.7008     0.8279  H       1  <O>11       0.0625
  33 H5        3.4022   -13.9655     2.5384  H       1  <O>11       0.0618
  34 H6        0.9713   -14.0109     2.5780  H       1  <O>11       0.0637
  35 H7       -2.9067   -11.5396    -2.7460  H       1  <O>11       0.0636
  36 H8       -5.3049   -11.4178    -3.0980  H       1  <O>11       0.0618
  37 H9       -6.8344   -12.0491    -1.3163  H       1  <O>11       0.0618
  38 H10      -5.9503   -12.8004     0.8186  H       1  <O>11       0.0618
  39 H11      -3.5594   -12.9345     1.1794  H       1  <O>11       0.0636
  40 H12       0.8703   -11.5110    -0.8105  H       1  <O>11       0.0645
  41 H13       0.7391    -8.3884    -3.7103  H       1  <O>11       0.0625
  42 H14      -1.6070    -8.9723    -3.9769  H       1  <O>11       0.0618
  43 H15      -2.2287   -11.0748    -5.0282  H       1  <O>11       0.0618
  44 H16      -0.4947   -12.5867    -5.8121  H       1  <O>11       0.0618
  45 H17       1.8481   -12.0089    -5.5570  H       1  <O>11       0.0625
@<TRIPOS>BOND
     1     1     2    2
     2     2     3   am
     3     3     4    1
     4     4     5   am
     5     5     6    2
     6     5     7    1
     7     7     8   ar
     8     8     9   ar
     9     9    10   ar
    10    10    11   ar
    11    11    12    1
    12    12    13    2
    13    12    14    2
    14    12    15    1
    15    15    16    1
    16    16    17   ar
    17    17    18   ar
    18    18    19   ar
    19    19    20   ar
    20    20    21   ar
    21    16    21   ar
    22    11    22   ar
    23     7    22   ar
    24     2    23    1
    25    23    24   ar
    26    24    25   ar
    27    25    26   ar
    28    26    27   ar
    29    27    28   ar
    30    23    28   ar
    31     3    29    1
    32     4    30    1
    33    15    31    1
    34     8    32    1
    35     9    33    1
    36    10    34    1
    37    17    35    1
    38    18    36    1
    39    19    37    1
    40    20    38    1
    41    21    39    1
    42    22    40    1
    43    24    41    1
    44    25    42    1
    45    26    43    1
    46    27    44    1
    47    28    45    1
@<TRIPOS>MOLECULE
mol76_1_6
 45 47 0 0 0
SMALL
USER_CHARGES
****
VDW energy = 99.75
@<TRIPOS>ATOM
   1 O1        3.4420    -9.1855    -5.2979  O.2     1  <O>11      -0.2687
   2 C1        2.8552    -9.8129    -4.4288  C.2     1  <O>11       0.2601
   3 N1        3.5160   -10.1860    -3.2900  N.am    1  <O>11      -0.2301
   4 N2        4.8400    -9.8550    -3.1240  N.am    1  <O>11      -0.2301
   5 C2        5.5010   -10.2280    -1.9860  C.2     1  <O>11       0.2602
   6 O2        4.9150   -10.8560    -1.1170  O.2     1  <O>11      -0.2687
   7 C3        6.9040    -9.8780    -1.8100  C.ar    1  <O>11       0.0400
   8 C4        7.4891    -9.9096    -0.5328  C.ar    1  <O>11      -0.0495
   9 C5        8.8335    -9.5609    -0.3638  C.ar    1  <O>11      -0.0592
  10 C6        9.6061    -9.1823    -1.4652  C.ar    1  <O>11      -0.0350
  11 C7        9.0264    -9.1578    -2.7376  C.ar    1  <O>11       0.1092
  12 S1       10.0057    -8.6819    -4.1195  S.O2    1  <O>11       0.0724
  13 O3       10.9973    -9.9420    -4.5557  O.2     1  <O>11      -0.1500
  14 O4       10.9316    -7.3634    -3.7151  O.2     1  <O>11      -0.1500
  15 N3        9.0188    -8.2949    -5.3872  N.pl3   1  <O>11      -0.2163
  16 C8        9.5943    -7.8705    -6.6498  C.ar    1  <O>11       0.0480
  17 C9        8.7626    -7.5389    -7.7333  C.ar    1  <O>11      -0.0393
  18 C10       9.3186    -7.1404    -8.9536  C.ar    1  <O>11      -0.0600
  19 C11      10.7057    -7.0637    -9.1029  C.ar    1  <O>11      -0.0616
  20 C12      11.5332    -7.3873    -8.0223  C.ar    1  <O>11      -0.0600
  21 C13      10.9873    -7.7831    -6.8010  C.ar    1  <O>11      -0.0393
  22 C14       7.6859    -9.5046    -2.9164  C.ar    1  <O>11      -0.0229
  23 C15       1.4620   -10.1610    -4.6040  C.ar    1  <O>11       0.0382
  24 C16       0.6783    -9.4222    -5.4925  C.ar    1  <O>11      -0.0496
  25 C17      -0.6731    -9.7462    -5.6572  C.ar    1  <O>11      -0.0610
  26 C18      -1.2356   -10.8051    -4.9400  C.ar    1  <O>11      -0.0617
  27 C19      -0.4355   -11.5401    -4.0572  C.ar    1  <O>11      -0.0610
  28 C20       0.9129   -11.2267    -3.8876  C.ar    1  <O>11      -0.0496
  29 H1        3.0270   -10.7100    -2.5640  H       1  <O>11       0.1731
  30 H2        5.3290    -9.3310    -3.8500  H       1  <O>11       0.1731
  31 H3        8.0069    -8.3561    -5.2825  H       1  <O>11       0.1737
  32 H4        6.9248   -10.1913     0.2840  H       1  <O>11       0.0625
  33 H5        9.2560    -9.5833     0.5774  H       1  <O>11       0.0618
  34 H6       10.5971    -8.9227    -1.3404  H       1  <O>11       0.0637
  35 H7        7.7373    -7.5897    -7.6281  H       1  <O>11       0.0636
  36 H8        8.7021    -6.9022    -9.7463  H       1  <O>11       0.0618
  37 H9       11.1165    -6.7707   -10.0032  H       1  <O>11       0.0618
  38 H10      12.5582    -7.3326    -8.1297  H       1  <O>11       0.0618
  39 H11      11.6075    -8.0116    -6.0085  H       1  <O>11       0.0636
  40 H12       7.2695    -9.4866    -3.8605  H       1  <O>11       0.0645
  41 H13       1.0934    -8.6416    -6.0249  H       1  <O>11       0.0625
  42 H14      -1.2564    -9.2009    -6.3109  H       1  <O>11       0.0618
  43 H15      -2.2325   -11.0434    -5.0601  H       1  <O>11       0.0618
  44 H16      -0.8481   -12.3227    -3.5258  H       1  <O>11       0.0618
  45 H17       1.4986   -11.7764    -3.2398  H       1  <O>11       0.0625
@<TRIPOS>BOND
     1     1     2    2
     2     2     3   am
     3     3     4    1
     4     4     5   am
     5     5     6    2
     6     5     7    1
     7     7     8   ar
     8     8     9   ar
     9     9    10   ar
    10    10    11   ar
    11    11    12    1
    12    12    13    2
    13    12    14    2
    14    12    15    1
    15    15    16    1
    16    16    17   ar
    17    17    18   ar
    18    18    19   ar
    19    19    20   ar
    20    20    21   ar
    21    16    21   ar
    22    11    22   ar
    23     7    22   ar
    24     2    23    1
    25    23    24   ar
    26    24    25   ar
    27    25    26   ar
    28    26    27   ar
    29    27    28   ar
    30    23    28   ar
    31     3    29    1
    32     4    30    1
    33    15    31    1
    34     8    32    1
    35     9    33    1
    36    10    34    1
    37    17    35    1
    38    18    36    1
    39    19    37    1
    40    20    38    1
    41    21    39    1
    42    22    40    1
    43    24    41    1
    44    25    42    1
    45    26    43    1
    46    27    44    1
    47    28    45    1
@<TRIPOS>MOLECULE
mol76_1_7
 45 47 0 0 0
SMALL
USER_CHARGES
****
VDW energy = 100.75
@<TRIPOS>ATOM
   1 O1        3.4420    -9.1855    -5.2979  O.2     1  <O>11      -0.2687
   2 C1        2.8552    -9.8129    -4.4288  C.2     1  <O>11       0.2601
   3 N1        3.5160   -10.1860    -3.2900  N.am    1  <O>11      -0.2301
   4 N2        4.8400    -9.8550    -3.1240  N.am    1  <O>11      -0.2301
   5 C2        5.7742   -10.3017    -4.0178  C.2     1  <O>11       0.2602
   6 O2        5.4320   -10.9945    -4.9643  O.2     1  <O>11      -0.2687
   7 C3        7.1770    -9.9507    -3.8426  C.ar    1  <O>11       0.0400
   8 C4        8.1799   -10.6826    -4.5007  C.ar    1  <O>11      -0.0495
   9 C5        9.5275   -10.3521    -4.3213  C.ar    1  <O>11      -0.0592
  10 C6        9.8863    -9.2883    -3.4890  C.ar    1  <O>11      -0.0350
  11 C7        8.8884    -8.5547    -2.8397  C.ar    1  <O>11       0.1092
  12 S1        9.3477    -7.2158    -1.7949  S.O2    1  <O>11       0.0724
  13 O3       10.3140    -7.7788    -0.5657  O.2     1  <O>11      -0.1500
  14 O4        7.9830    -6.5206    -1.1520  O.2     1  <O>11      -0.1500
  15 N3       10.1780    -6.0899    -2.6748  N.pl3   1  <O>11      -0.2163
  16 C8       10.6683    -4.8854    -2.0312  C.ar    1  <O>11       0.0480
  17 C9        9.8664    -3.7323    -1.9779  C.ar    1  <O>11      -0.0393
  18 C10      10.3443    -2.5681    -1.3668  C.ar    1  <O>11      -0.0600
  19 C11      11.6210    -2.5445    -0.7997  C.ar    1  <O>11      -0.0616
  20 C12      12.4165    -3.6944    -0.8470  C.ar    1  <O>11      -0.0600
  21 C13      11.9469    -4.8606    -1.4520  C.ar    1  <O>11      -0.0393
  22 C14       7.5410    -8.8765    -3.0128  C.ar    1  <O>11      -0.0229
  23 C15       1.4620   -10.1610    -4.6040  C.ar    1  <O>11       0.0382
  24 C16       0.6783    -9.4222    -5.4925  C.ar    1  <O>11      -0.0496
  25 C17      -0.6731    -9.7462    -5.6572  C.ar    1  <O>11      -0.0610
  26 C18      -1.2356   -10.8051    -4.9400  C.ar    1  <O>11      -0.0617
  27 C19      -0.4355   -11.5401    -4.0572  C.ar    1  <O>11      -0.0610
  28 C20       0.9129   -11.2267    -3.8876  C.ar    1  <O>11      -0.0496
  29 H1        3.0270   -10.7100    -2.5640  H       1  <O>11       0.1731
  30 H2        5.1252    -9.2762    -2.3338  H       1  <O>11       0.1731
  31 H3       10.3468    -6.2427    -3.6682  H       1  <O>11       0.1737
  32 H4        7.9213   -11.4674    -5.1191  H       1  <O>11       0.0625
  33 H5       10.2590   -10.8959    -4.8052  H       1  <O>11       0.0618
  34 H6       10.8804    -9.0459    -3.3546  H       1  <O>11       0.0637
  35 H7        8.9210    -3.7445    -2.3912  H       1  <O>11       0.0636
  36 H8        9.7517    -1.7237    -1.3347  H       1  <O>11       0.0618
  37 H9       11.9744    -1.6857    -0.3496  H       1  <O>11       0.0618
  38 H10      13.3604    -3.6799    -0.4300  H       1  <O>11       0.0618
  39 H11      12.5396    -5.7051    -1.4738  H       1  <O>11       0.0636
  40 H12       6.8127    -8.3259    -2.5316  H       1  <O>11       0.0645
  41 H13       1.0934    -8.6416    -6.0249  H       1  <O>11       0.0625
  42 H14      -1.2564    -9.2009    -6.3109  H       1  <O>11       0.0618
  43 H15      -2.2325   -11.0434    -5.0601  H       1  <O>11       0.0618
  44 H16      -0.8481   -12.3227    -3.5258  H       1  <O>11       0.0618
  45 H17       1.4986   -11.7764    -3.2398  H       1  <O>11       0.0625
@<TRIPOS>BOND
     1     1     2    2
     2     2     3   am
     3     3     4    1
     4     4     5   am
     5     5     6    2
     6     5     7    1
     7     7     8   ar
     8     8     9   ar
     9     9    10   ar
    10    10    11   ar
    11    11    12    1
    12    12    13    2
    13    12    14    2
    14    12    15    1
    15    15    16    1
    16    16    17   ar
    17    17    18   ar
    18    18    19   ar
    19    19    20   ar
    20    20    21   ar
    21    16    21   ar
    22    11    22   ar
    23     7    22   ar
    24     2    23    1
    25    23    24   ar
    26    24    25   ar
    27    25    26   ar
    28    26    27   ar
    29    27    28   ar
    30    23    28   ar
    31     3    29    1
    32     4    30    1
    33    15    31    1
    34     8    32    1
    35     9    33    1
    36    10    34    1
    37    17    35    1
    38    18    36    1
    39    19    37    1
    40    20    38    1
    41    21    39    1
    42    22    40    1
    43    24    41    1
    44    25    42    1
    45    26    43    1
    46    27    44    1
    47    28    45    1
@<TRIPOS>MOLECULE
mol76_1_8
 45 47 0 0 0
SMALL
USER_CHARGES
****
VDW energy = 101.24
@<TRIPOS>ATOM
   1 O1        3.4420    -9.1855    -5.2979  O.2     1  <O>11      -0.2687
   2 C1        2.8552    -9.8129    -4.4288  C.2     1  <O>11       0.2601
   3 N1        3.5160   -10.1860    -3.2900  N.am    1  <O>11      -0.2301
   4 N2        4.8400    -9.8550    -3.1240  N.am    1  <O>11      -0.2301
   5 C2        5.7742   -10.3017    -4.0178  C.2     1  <O>11       0.2602
   6 O2        5.4320   -10.9945    -4.9643  O.2     1  <O>11      -0.2687
   7 C3        7.1770    -9.9507    -3.8426  C.ar    1  <O>11       0.0400
   8 C4        7.5388    -8.6614    -3.4168  C.ar    1  <O>11      -0.0495
   9 C5        8.8872    -8.3221    -3.2613  C.ar    1  <O>11      -0.0592
  10 C6        9.8849    -9.2648    -3.5244  C.ar    1  <O>11      -0.0350
  11 C7        9.5253   -10.5504    -3.9410  C.ar    1  <O>11       0.1092
  12 S1       10.7867   -11.7322    -4.2686  S.O2    1  <O>11       0.0724
  13 O3       11.7751   -11.1661    -5.4787  O.2     1  <O>11      -0.1500
  14 O4       10.0941   -13.1650    -4.7445  O.2     1  <O>11      -0.1500
  15 N3       11.6795   -11.9790    -2.9000  N.pl3   1  <O>11      -0.2163
  16 C8       12.7880   -12.9152    -2.9175  C.ar    1  <O>11       0.0480
  17 C9       12.5798   -14.2680    -2.5977  C.ar    1  <O>11      -0.0393
  18 C10      13.6512   -15.1676    -2.6041  C.ar    1  <O>11      -0.0600
  19 C11      14.9360   -14.7290    -2.9340  C.ar    1  <O>11      -0.0616
  20 C12      15.1419   -13.3838    -3.2587  C.ar    1  <O>11      -0.0600
  21 C13      14.0788   -12.4803    -3.2575  C.ar    1  <O>11      -0.0393
  22 C14       8.1825   -10.8986    -4.0986  C.ar    1  <O>11      -0.0229
  23 C15       1.4620   -10.1610    -4.6040  C.ar    1  <O>11       0.0382
  24 C16       0.6783    -9.4222    -5.4925  C.ar    1  <O>11      -0.0496
  25 C17      -0.6731    -9.7462    -5.6572  C.ar    1  <O>11      -0.0610
  26 C18      -1.2356   -10.8051    -4.9400  C.ar    1  <O>11      -0.0617
  27 C19      -0.4355   -11.5401    -4.0572  C.ar    1  <O>11      -0.0610
  28 C20       0.9129   -11.2267    -3.8876  C.ar    1  <O>11      -0.0496
  29 H1        3.0270   -10.7100    -2.5640  H       1  <O>11       0.1731
  30 H2        5.1252    -9.2762    -2.3338  H       1  <O>11       0.1731
  31 H3       11.4526   -11.4726    -2.0452  H       1  <O>11       0.1737
  32 H4        6.8067    -7.9617    -3.2179  H       1  <O>11       0.0625
  33 H5        9.1460    -7.3724    -2.9512  H       1  <O>11       0.0618
  34 H6       10.8796    -9.0140    -3.4121  H       1  <O>11       0.0637
  35 H7       11.6324   -14.5990    -2.3572  H       1  <O>11       0.0636
  36 H8       13.4919   -16.1587    -2.3645  H       1  <O>11       0.0618
  37 H9       15.7269   -15.3919    -2.9380  H       1  <O>11       0.0618
  38 H10      16.0900   -13.0565    -3.5018  H       1  <O>11       0.0618
  39 H11      14.2413   -11.4922    -3.5065  H       1  <O>11       0.0636
  40 H12       7.9285   -11.8514    -4.4029  H       1  <O>11       0.0645
  41 H13       1.0934    -8.6416    -6.0249  H       1  <O>11       0.0625
  42 H14      -1.2564    -9.2009    -6.3109  H       1  <O>11       0.0618
  43 H15      -2.2325   -11.0434    -5.0601  H       1  <O>11       0.0618
  44 H16      -0.8481   -12.3227    -3.5258  H       1  <O>11       0.0618
  45 H17       1.4986   -11.7764    -3.2398  H       1  <O>11       0.0625
@<TRIPOS>BOND
     1     1     2    2
     2     2     3   am
     3     3     4    1
     4     4     5   am
     5     5     6    2
     6     5     7    1
     7     7     8   ar
     8     8     9   ar
     9     9    10   ar
    10    10    11   ar
    11    11    12    1
    12    12    13    2
    13    12    14    2
    14    12    15    1
    15    15    16    1
    16    16    17   ar
    17    17    18   ar
    18    18    19   ar
    19    19    20   ar
    20    20    21   ar
    21    16    21   ar
    22    11    22   ar
    23     7    22   ar
    24     2    23    1
    25    23    24   ar
    26    24    25   ar
    27    25    26   ar
    28    26    27   ar
    29    27    28   ar
    30    23    28   ar
    31     3    29    1
    32     4    30    1
    33    15    31    1
    34     8    32    1
    35     9    33    1
    36    10    34    1
    37    17    35    1
    38    18    36    1
    39    19    37    1
    40    20    38    1
    41    21    39    1
    42    22    40    1
    43    24    41    1
    44    25    42    1
    45    26    43    1
    46    27    44    1
    47    28    45    1
@<TRIPOS>MOLECULE
mol76_1_9
 45 47 0 0 0
SMALL
USER_CHARGES
****
VDW energy = 103.36
@<TRIPOS>ATOM
   1 O1        3.4420    -9.1855    -5.2979  O.2     1  <O>11      -0.2687
   2 C1        2.8552    -9.8129    -4.4288  C.2     1  <O>11       0.2601
   3 N1        3.5160   -10.1860    -3.2900  N.am    1  <O>11      -0.2301
   4 N2        4.8400    -9.8550    -3.1240  N.am    1  <O>11      -0.2301
   5 C2        5.7742   -10.3017    -4.0178  C.2     1  <O>11       0.2602
   6 O2        5.4320   -10.9945    -4.9643  O.2     1  <O>11      -0.2687
   7 C3        7.1770    -9.9507    -3.8426  C.ar    1  <O>11       0.0400
   8 C4        8.1799   -10.6826    -4.5007  C.ar    1  <O>11      -0.0495
   9 C5        9.5275   -10.3521    -4.3213  C.ar    1  <O>11      -0.0592
  10 C6        9.8863    -9.2883    -3.4890  C.ar    1  <O>11      -0.0350
  11 C7        8.8884    -8.5547    -2.8397  C.ar    1  <O>11       0.1092
  12 S1        9.3477    -7.2158    -1.7949  S.O2    1  <O>11       0.0724
  13 O3       10.3140    -7.7788    -0.5657  O.2     1  <O>11      -0.1500
  14 O4        7.9830    -6.5206    -1.1520  O.2     1  <O>11      -0.1500
  15 N3       10.1780    -6.0899    -2.6748  N.pl3   1  <O>11      -0.2163
  16 C8       11.4147    -6.4576    -3.3387  C.ar    1  <O>11       0.0480
  17 C9       12.6450    -6.3240    -2.6723  C.ar    1  <O>11      -0.0393
  18 C10      13.8378    -6.6684    -3.3171  C.ar    1  <O>11      -0.0600
  19 C11      13.8146    -7.1534    -4.6271  C.ar    1  <O>11      -0.0616
  20 C12      12.5894    -7.2927    -5.2879  C.ar    1  <O>11      -0.0600
  21 C13      11.3949    -6.9541    -4.6517  C.ar    1  <O>11      -0.0393
  22 C14       7.5410    -8.8765    -3.0128  C.ar    1  <O>11      -0.0229
  23 C15       1.4620   -10.1610    -4.6040  C.ar    1  <O>11       0.0382
  24 C16       0.6783    -9.4222    -5.4925  C.ar    1  <O>11      -0.0496
  25 C17      -0.6731    -9.7462    -5.6572  C.ar    1  <O>11      -0.0610
  26 C18      -1.2356   -10.8051    -4.9400  C.ar    1  <O>11      -0.0617
  27 C19      -0.4355   -11.5401    -4.0572  C.ar    1  <O>11      -0.0610
  28 C20       0.9129   -11.2267    -3.8876  C.ar    1  <O>11      -0.0496
  29 H1        3.0270   -10.7100    -2.5640  H       1  <O>11       0.1731
  30 H2        5.1252    -9.2762    -2.3338  H       1  <O>11       0.1731
  31 H3        9.8203    -5.1387    -2.7524  H       1  <O>11       0.1737
  32 H4        7.9213   -11.4674    -5.1191  H       1  <O>11       0.0625
  33 H5       10.2590   -10.8959    -4.8052  H       1  <O>11       0.0618
  34 H6       10.8804    -9.0459    -3.3546  H       1  <O>11       0.0637
  35 H7       12.6685    -5.9703    -1.7031  H       1  <O>11       0.0636
  36 H8       14.7380    -6.5640    -2.8232  H       1  <O>11       0.0618
  37 H9       14.6943    -7.4067    -5.1036  H       1  <O>11       0.0618
  38 H10      12.5690    -7.6496    -6.2561  H       1  <O>11       0.0618
  39 H11      10.4964    -7.0687    -5.1463  H       1  <O>11       0.0636
  40 H12       6.8127    -8.3259    -2.5316  H       1  <O>11       0.0645
  41 H13       1.0934    -8.6416    -6.0249  H       1  <O>11       0.0625
  42 H14      -1.2564    -9.2009    -6.3109  H       1  <O>11       0.0618
  43 H15      -2.2325   -11.0434    -5.0601  H       1  <O>11       0.0618
  44 H16      -0.8481   -12.3227    -3.5258  H       1  <O>11       0.0618
  45 H17       1.4986   -11.7764    -3.2398  H       1  <O>11       0.0625
@<TRIPOS>BOND
     1     1     2    2
     2     2     3   am
     3     3     4    1
     4     4     5   am
     5     5     6    2
     6     5     7    1
     7     7     8   ar
     8     8     9   ar
     9     9    10   ar
    10    10    11   ar
    11    11    12    1
    12    12    13    2
    13    12    14    2
    14    12    15    1
    15    15    16    1
    16    16    17   ar
    17    17    18   ar
    18    18    19   ar
    19    19    20   ar
    20    20    21   ar
    21    16    21   ar
    22    11    22   ar
    23     7    22   ar
    24     2    23    1
    25    23    24   ar
    26    24    25   ar
    27    25    26   ar
    28    26    27   ar
    29    27    28   ar
    30    23    28   ar
    31     3    29    1
    32     4    30    1
    33    15    31    1
    34     8    32    1
    35     9    33    1
    36    10    34    1
    37    17    35    1
    38    18    36    1
    39    19    37    1
    40    20    38    1
    41    21    39    1
    42    22    40    1
    43    24    41    1
    44    25    42    1
    45    26    43    1
    46    27    44    1
    47    28    45    1
@<TRIPOS>MOLECULE
mol76_1_10
 45 47 0 0 0
SMALL
USER_CHARGES
****
VDW energy = 104.81
@<TRIPOS>ATOM
   1 O1        3.4420    -9.1855    -5.2979  O.2     1  <O>11      -0.2687
   2 C1        2.8552    -9.8129    -4.4288  C.2     1  <O>11       0.2601
   3 N1        3.5160   -10.1860    -3.2900  N.am    1  <O>11      -0.2301
   4 N2        4.8400    -9.8550    -3.1240  N.am    1  <O>11      -0.2301
   5 C2        5.7742   -10.3017    -4.0178  C.2     1  <O>11       0.2602
   6 O2        5.4320   -10.9945    -4.9643  O.2     1  <O>11      -0.2687
   7 C3        7.1770    -9.9507    -3.8426  C.ar    1  <O>11       0.0400
   8 C4        8.1799   -10.6826    -4.5007  C.ar    1  <O>11      -0.0495
   9 C5        9.5275   -10.3521    -4.3213  C.ar    1  <O>11      -0.0592
  10 C6        9.8863    -9.2883    -3.4890  C.ar    1  <O>11      -0.0350
  11 C7        8.8884    -8.5547    -2.8397  C.ar    1  <O>11       0.1092
  12 S1        9.3477    -7.2158    -1.7949  S.O2    1  <O>11       0.0724
  13 O3        9.7580    -5.9021    -2.7264  O.2     1  <O>11      -0.1500
  14 O4       10.6483    -7.6609    -0.8624  O.2     1  <O>11      -0.1500
  15 N3        8.0768    -6.8197    -0.8157  N.pl3   1  <O>11      -0.2163
  16 C8        7.5312    -7.8065     0.0975  C.ar    1  <O>11       0.0480
  17 C9        6.4500    -7.4787     0.9337  C.ar    1  <O>11      -0.0393
  18 C10       5.9317    -8.4275     1.8217  C.ar    1  <O>11      -0.0600
  19 C11       6.4817    -9.7105     1.8801  C.ar    1  <O>11      -0.0616
  20 C12       7.5535   -10.0387     1.0430  C.ar    1  <O>11      -0.0600
  21 C13       8.0749    -9.0997     0.1526  C.ar    1  <O>11      -0.0393
  22 C14       7.5410    -8.8765    -3.0128  C.ar    1  <O>11      -0.0229
  23 C15       1.4620   -10.1610    -4.6040  C.ar    1  <O>11       0.0382
  24 C16       0.4750    -9.2817    -4.1546  C.ar    1  <O>11      -0.0496
  25 C17      -0.8745    -9.6183    -4.3101  C.ar    1  <O>11      -0.0610
  26 C18      -1.2337   -10.8255    -4.9148  C.ar    1  <O>11      -0.0617
  27 C19      -0.2326   -11.6941    -5.3653  C.ar    1  <O>11      -0.0610
  28 C20       1.1151   -11.3668    -5.2172  C.ar    1  <O>11      -0.0496
  29 H1        3.0270   -10.7100    -2.5640  H       1  <O>11       0.1731
  30 H2        5.1252    -9.2762    -2.3338  H       1  <O>11       0.1731
  31 H3        7.6781    -5.8825    -0.8521  H       1  <O>11       0.1737
  32 H4        7.9213   -11.4674    -5.1191  H       1  <O>11       0.0625
  33 H5       10.2590   -10.8959    -4.8052  H       1  <O>11       0.0618
  34 H6       10.8804    -9.0459    -3.3546  H       1  <O>11       0.0637
  35 H7        6.0367    -6.5341     0.8925  H       1  <O>11       0.0636
  36 H8        5.1404    -8.1788     2.4357  H       1  <O>11       0.0618
  37 H9        6.1004   -10.4105     2.5356  H       1  <O>11       0.0618
  38 H10       7.9627   -10.9852     1.0845  H       1  <O>11       0.0618
  39 H11       8.8605    -9.3557    -0.4658  H       1  <O>11       0.0636
  40 H12       6.8127    -8.3259    -2.5316  H       1  <O>11       0.0645
  41 H13       0.7391    -8.3884    -3.7103  H       1  <O>11       0.0625
  42 H14      -1.6070    -8.9723    -3.9769  H       1  <O>11       0.0618
  43 H15      -2.2287   -11.0748    -5.0282  H       1  <O>11       0.0618
  44 H16      -0.4947   -12.5867    -5.8121  H       1  <O>11       0.0618
  45 H17       1.8481   -12.0089    -5.5570  H       1  <O>11       0.0625
@<TRIPOS>BOND
     1     1     2    2
     2     2     3   am
     3     3     4    1
     4     4     5   am
     5     5     6    2
     6     5     7    1
     7     7     8   ar
     8     8     9   ar
     9     9    10   ar
    10    10    11   ar
    11    11    12    1
    12    12    13    2
    13    12    14    2
    14    12    15    1
    15    15    16    1
    16    16    17   ar
    17    17    18   ar
    18    18    19   ar
    19    19    20   ar
    20    20    21   ar
    21    16    21   ar
    22    11    22   ar
    23     7    22   ar
    24     2    23    1
    25    23    24   ar
    26    24    25   ar
    27    25    26   ar
    28    26    27   ar
    29    27    28   ar
    30    23    28   ar
    31     3    29    1
    32     4    30    1
    33    15    31    1
    34     8    32    1
    35     9    33    1
    36    10    34    1
    37    17    35    1
    38    18    36    1
    39    19    37    1
    40    20    38    1
    41    21    39    1
    42    22    40    1
    43    24    41    1
    44    25    42    1
    45    26    43    1
    46    27    44    1
    47    28    45    1
@<TRIPOS>MOLECULE
mol76_1_11
 45 47 0 0 0
SMALL
USER_CHARGES
****
VDW energy = 107.07
@<TRIPOS>ATOM
   1 O1        3.4420    -9.1855    -5.2979  O.2     1  <O>11      -0.2687
   2 C1        2.8552    -9.8129    -4.4288  C.2     1  <O>11       0.2601
   3 N1        3.5160   -10.1860    -3.2900  N.am    1  <O>11      -0.2301
   4 N2        4.8400    -9.8550    -3.1240  N.am    1  <O>11      -0.2301
   5 C2        5.7742   -10.3017    -4.0178  C.2     1  <O>11       0.2602
   6 O2        5.4320   -10.9945    -4.9643  O.2     1  <O>11      -0.2687
   7 C3        7.1770    -9.9507    -3.8426  C.ar    1  <O>11       0.0400
   8 C4        8.1799   -10.6826    -4.5007  C.ar    1  <O>11      -0.0495
   9 C5        9.5275   -10.3521    -4.3213  C.ar    1  <O>11      -0.0592
  10 C6        9.8863    -9.2883    -3.4890  C.ar    1  <O>11      -0.0350
  11 C7        8.8884    -8.5547    -2.8397  C.ar    1  <O>11       0.1092
  12 S1        9.3477    -7.2158    -1.7949  S.O2    1  <O>11       0.0724
  13 O3       10.3140    -7.7788    -0.5657  O.2     1  <O>11      -0.1500
  14 O4        7.9830    -6.5206    -1.1520  O.2     1  <O>11      -0.1500
  15 N3       10.1780    -6.0899    -2.6748  N.pl3   1  <O>11      -0.2163
  16 C8       10.6683    -4.8854    -2.0312  C.ar    1  <O>11       0.0480
  17 C9       11.3750    -3.9222    -2.7718  C.ar    1  <O>11      -0.0393
  18 C10      11.8569    -2.7664    -2.1480  C.ar    1  <O>11      -0.0600
  19 C11      11.6344    -2.5581    -0.7845  C.ar    1  <O>11      -0.0616
  20 C12      10.9253    -3.5138    -0.0489  C.ar    1  <O>11      -0.0600
  21 C13      10.4388    -4.6680    -0.6634  C.ar    1  <O>11      -0.0393
  22 C14       7.5410    -8.8765    -3.0128  C.ar    1  <O>11      -0.0229
  23 C15       1.4620   -10.1610    -4.6040  C.ar    1  <O>11       0.0382
  24 C16       0.6783    -9.4222    -5.4925  C.ar    1  <O>11      -0.0496
  25 C17      -0.6731    -9.7462    -5.6572  C.ar    1  <O>11      -0.0610
  26 C18      -1.2356   -10.8051    -4.9400  C.ar    1  <O>11      -0.0617
  27 C19      -0.4355   -11.5401    -4.0572  C.ar    1  <O>11      -0.0610
  28 C20       0.9129   -11.2267    -3.8876  C.ar    1  <O>11      -0.0496
  29 H1        3.0270   -10.7100    -2.5640  H       1  <O>11       0.1731
  30 H2        5.1252    -9.2762    -2.3338  H       1  <O>11       0.1731
  31 H3       10.3468    -6.2427    -3.6682  H       1  <O>11       0.1737
  32 H4        7.9213   -11.4674    -5.1191  H       1  <O>11       0.0625
  33 H5       10.2590   -10.8959    -4.8052  H       1  <O>11       0.0618
  34 H6       10.8804    -9.0459    -3.3546  H       1  <O>11       0.0637
  35 H7       11.5390    -4.0682    -3.7801  H       1  <O>11       0.0636
  36 H8       12.3784    -2.0652    -2.6970  H       1  <O>11       0.0618
  37 H9       11.9905    -1.7062    -0.3236  H       1  <O>11       0.0618
  38 H10      10.7602    -3.3634     0.9587  H       1  <O>11       0.0618
  39 H11       9.9101    -5.3621    -0.1123  H       1  <O>11       0.0636
  40 H12       6.8127    -8.3259    -2.5316  H       1  <O>11       0.0645
  41 H13       1.0934    -8.6416    -6.0249  H       1  <O>11       0.0625
  42 H14      -1.2564    -9.2009    -6.3109  H       1  <O>11       0.0618
  43 H15      -2.2325   -11.0434    -5.0601  H       1  <O>11       0.0618
  44 H16      -0.8481   -12.3227    -3.5258  H       1  <O>11       0.0618
  45 H17       1.4986   -11.7764    -3.2398  H       1  <O>11       0.0625
@<TRIPOS>BOND
     1     1     2    2
     2     2     3   am
     3     3     4    1
     4     4     5   am
     5     5     6    2
     6     5     7    1
     7     7     8   ar
     8     8     9   ar
     9     9    10   ar
    10    10    11   ar
    11    11    12    1
    12    12    13    2
    13    12    14    2
    14    12    15    1
    15    15    16    1
    16    16    17   ar
    17    17    18   ar
    18    18    19   ar
    19    19    20   ar
    20    20    21   ar
    21    16    21   ar
    22    11    22   ar
    23     7    22   ar
    24     2    23    1
    25    23    24   ar
    26    24    25   ar
    27    25    26   ar
    28    26    27   ar
    29    27    28   ar
    30    23    28   ar
    31     3    29    1
    32     4    30    1
    33    15    31    1
    34     8    32    1
    35     9    33    1
    36    10    34    1
    37    17    35    1
    38    18    36    1
    39    19    37    1
    40    20    38    1
    41    21    39    1
    42    22    40    1
    43    24    41    1
    44    25    42    1
    45    26    43    1
    46    27    44    1
    47    28    45    1
@<TRIPOS>MOLECULE
mol76_1_12
 45 47 0 0 0
SMALL
USER_CHARGES
****
VDW energy = 107.09
@<TRIPOS>ATOM
   1 O1        3.4420    -9.1855    -5.2979  O.2     1  <O>11      -0.2687
   2 C1        2.8552    -9.8129    -4.4288  C.2     1  <O>11       0.2601
   3 N1        3.5160   -10.1860    -3.2900  N.am    1  <O>11      -0.2301
   4 N2        4.8400    -9.8550    -3.1240  N.am    1  <O>11      -0.2301
   5 C2        5.7742   -10.3017    -4.0178  C.2     1  <O>11       0.2602
   6 O2        5.4320   -10.9945    -4.9643  O.2     1  <O>11      -0.2687
   7 C3        7.1770    -9.9507    -3.8426  C.ar    1  <O>11       0.0400
   8 C4        8.1799   -10.6826    -4.5007  C.ar    1  <O>11      -0.0495
   9 C5        9.5275   -10.3521    -4.3213  C.ar    1  <O>11      -0.0592
  10 C6        9.8863    -9.2883    -3.4890  C.ar    1  <O>11      -0.0350
  11 C7        8.8884    -8.5547    -2.8397  C.ar    1  <O>11       0.1092
  12 S1        9.3477    -7.2158    -1.7949  S.O2    1  <O>11       0.0724
  13 O3       10.3140    -7.7788    -0.5657  O.2     1  <O>11      -0.1500
  14 O4        7.9830    -6.5206    -1.1520  O.2     1  <O>11      -0.1500
  15 N3       10.1780    -6.0899    -2.6748  N.pl3   1  <O>11      -0.2163
  16 C8        9.5441    -5.4473    -3.8110  C.ar    1  <O>11       0.0480
  17 C9       10.2428    -4.4890    -4.5653  C.ar    1  <O>11      -0.0393
  18 C10       9.6270    -3.8621    -5.6539  C.ar    1  <O>11      -0.0600
  19 C11       8.3140    -4.1880    -6.0029  C.ar    1  <O>11      -0.0616
  20 C12       7.6211    -5.1467    -5.2561  C.ar    1  <O>11      -0.0600
  21 C13       8.2282    -5.7789    -4.1706  C.ar    1  <O>11      -0.0393
  22 C14       7.5410    -8.8765    -3.0128  C.ar    1  <O>11      -0.0229
  23 C15       1.4620   -10.1610    -4.6040  C.ar    1  <O>11       0.0382
  24 C16       0.6783    -9.4222    -5.4925  C.ar    1  <O>11      -0.0496
  25 C17      -0.6731    -9.7462    -5.6572  C.ar    1  <O>11      -0.0610
  26 C18      -1.2356   -10.8051    -4.9400  C.ar    1  <O>11      -0.0617
  27 C19      -0.4355   -11.5401    -4.0572  C.ar    1  <O>11      -0.0610
  28 C20       0.9129   -11.2267    -3.8876  C.ar    1  <O>11      -0.0496
  29 H1        3.0270   -10.7100    -2.5640  H       1  <O>11       0.1731
  30 H2        5.1252    -9.2762    -2.3338  H       1  <O>11       0.1731
  31 H3       11.1337    -5.8460    -2.4182  H       1  <O>11       0.1737
  32 H4        7.9213   -11.4674    -5.1191  H       1  <O>11       0.0625
  33 H5       10.2590   -10.8959    -4.8052  H       1  <O>11       0.0618
  34 H6       10.8804    -9.0459    -3.3546  H       1  <O>11       0.0637
  35 H7       11.2142    -4.2469    -4.3151  H       1  <O>11       0.0636
  36 H8       10.1445    -3.1564    -6.2010  H       1  <O>11       0.0618
  37 H9        7.8590    -3.7251    -6.8052  H       1  <O>11       0.0618
  38 H10       6.6507    -5.3890    -5.5107  H       1  <O>11       0.0618
  39 H11       7.7099    -6.4904    -3.6320  H       1  <O>11       0.0636
  40 H12       6.8127    -8.3259    -2.5316  H       1  <O>11       0.0645
  41 H13       1.0934    -8.6416    -6.0249  H       1  <O>11       0.0625
  42 H14      -1.2564    -9.2009    -6.3109  H       1  <O>11       0.0618
  43 H15      -2.2325   -11.0434    -5.0601  H       1  <O>11       0.0618
  44 H16      -0.8481   -12.3227    -3.5258  H       1  <O>11       0.0618
  45 H17       1.4986   -11.7764    -3.2398  H       1  <O>11       0.0625
@<TRIPOS>BOND
     1     1     2    2
     2     2     3   am
     3     3     4    1
     4     4     5   am
     5     5     6    2
     6     5     7    1
     7     7     8   ar
     8     8     9   ar
     9     9    10   ar
    10    10    11   ar
    11    11    12    1
    12    12    13    2
    13    12    14    2
    14    12    15    1
    15    15    16    1
    16    16    17   ar
    17    17    18   ar
    18    18    19   ar
    19    19    20   ar
    20    20    21   ar
    21    16    21   ar
    22    11    22   ar
    23     7    22   ar
    24     2    23    1
    25    23    24   ar
    26    24    25   ar
    27    25    26   ar
    28    26    27   ar
    29    27    28   ar
    30    23    28   ar
    31     3    29    1
    32     4    30    1
    33    15    31    1
    34     8    32    1
    35     9    33    1
    36    10    34    1
    37    17    35    1
    38    18    36    1
    39    19    37    1
    40    20    38    1
    41    21    39    1
    42    22    40    1
    43    24    41    1
    44    25    42    1
    45    26    43    1
    46    27    44    1
    47    28    45    1
@<TRIPOS>MOLECULE
mol76_1_13
 45 47 0 0 0
SMALL
USER_CHARGES
****
VDW energy = 107.53
@<TRIPOS>ATOM
   1 O1        3.4420    -9.1855    -5.2979  O.2     1  <O>11      -0.2687
   2 C1        2.8552    -9.8129    -4.4288  C.2     1  <O>11       0.2601
   3 N1        3.5160   -10.1860    -3.2900  N.am    1  <O>11      -0.2301
   4 N2        4.8400    -9.8550    -3.1240  N.am    1  <O>11      -0.2301
   5 C2        5.7742   -10.3017    -4.0178  C.2     1  <O>11       0.2602
   6 O2        5.4320   -10.9945    -4.9643  O.2     1  <O>11      -0.2687
   7 C3        7.1770    -9.9507    -3.8426  C.ar    1  <O>11       0.0400
   8 C4        8.1799   -10.6826    -4.5007  C.ar    1  <O>11      -0.0495
   9 C5        9.5275   -10.3521    -4.3213  C.ar    1  <O>11      -0.0592
  10 C6        9.8863    -9.2883    -3.4890  C.ar    1  <O>11      -0.0350
  11 C7        8.8884    -8.5547    -2.8397  C.ar    1  <O>11       0.1092
  12 S1        9.3477    -7.2158    -1.7949  S.O2    1  <O>11       0.0724
  13 O3        9.7580    -5.9021    -2.7264  O.2     1  <O>11      -0.1500
  14 O4       10.6483    -7.6609    -0.8624  O.2     1  <O>11      -0.1500
  15 N3        8.0768    -6.8197    -0.8157  N.pl3   1  <O>11      -0.2163
  16 C8        8.2094    -5.7365     0.1406  C.ar    1  <O>11       0.0480
  17 C9        7.1339    -5.3930     0.9778  C.ar    1  <O>11      -0.0393
  18 C10       7.2591    -4.3413     1.8918  C.ar    1  <O>11      -0.0600
  19 C11       8.4567    -3.6275     1.9832  C.ar    1  <O>11      -0.0616
  20 C12       9.5293    -3.9738     1.1545  C.ar    1  <O>11      -0.0600
  21 C13       9.4142    -5.0229     0.2420  C.ar    1  <O>11      -0.0393
  22 C14       7.5410    -8.8765    -3.0128  C.ar    1  <O>11      -0.0229
  23 C15       1.4620   -10.1610    -4.6040  C.ar    1  <O>11       0.0382
  24 C16       0.4750    -9.2817    -4.1546  C.ar    1  <O>11      -0.0496
  25 C17      -0.8745    -9.6183    -4.3101  C.ar    1  <O>11      -0.0610
  26 C18      -1.2337   -10.8255    -4.9148  C.ar    1  <O>11      -0.0617
  27 C19      -0.2326   -11.6941    -5.3653  C.ar    1  <O>11      -0.0610
  28 C20       1.1151   -11.3668    -5.2172  C.ar    1  <O>11      -0.0496
  29 H1        3.0270   -10.7100    -2.5640  H       1  <O>11       0.1731
  30 H2        5.1252    -9.2762    -2.3338  H       1  <O>11       0.1731
  31 H3        7.2002    -7.3349    -0.8849  H       1  <O>11       0.1737
  32 H4        7.9213   -11.4674    -5.1191  H       1  <O>11       0.0625
  33 H5       10.2590   -10.8959    -4.8052  H       1  <O>11       0.0618
  34 H6       10.8804    -9.0459    -3.3546  H       1  <O>11       0.0637
  35 H7        6.2481    -5.9190     0.9180  H       1  <O>11       0.0636
  36 H8        6.4640    -4.0918     2.5007  H       1  <O>11       0.0618
  37 H9        8.5493    -2.8510     2.6565  H       1  <O>11       0.0618
  38 H10      10.4149    -3.4479     1.2188  H       1  <O>11       0.0618
  39 H11      10.2149    -5.2746    -0.3585  H       1  <O>11       0.0636
  40 H12       6.8127    -8.3259    -2.5316  H       1  <O>11       0.0645
  41 H13       0.7391    -8.3884    -3.7103  H       1  <O>11       0.0625
  42 H14      -1.6070    -8.9723    -3.9769  H       1  <O>11       0.0618
  43 H15      -2.2287   -11.0748    -5.0282  H       1  <O>11       0.0618
  44 H16      -0.4947   -12.5867    -5.8121  H       1  <O>11       0.0618
  45 H17       1.8481   -12.0089    -5.5570  H       1  <O>11       0.0625
@<TRIPOS>BOND
     1     1     2    2
     2     2     3   am
     3     3     4    1
     4     4     5   am
     5     5     6    2
     6     5     7    1
     7     7     8   ar
     8     8     9   ar
     9     9    10   ar
    10    10    11   ar
    11    11    12    1
    12    12    13    2
    13    12    14    2
    14    12    15    1
    15    15    16    1
    16    16    17   ar
    17    17    18   ar
    18    18    19   ar
    19    19    20   ar
    20    20    21   ar
    21    16    21   ar
    22    11    22   ar
    23     7    22   ar
    24     2    23    1
    25    23    24   ar
    26    24    25   ar
    27    25    26   ar
    28    26    27   ar
    29    27    28   ar
    30    23    28   ar
    31     3    29    1
    32     4    30    1
    33    15    31    1
    34     8    32    1
    35     9    33    1
    36    10    34    1
    37    17    35    1
    38    18    36    1
    39    19    37    1
    40    20    38    1
    41    21    39    1
    42    22    40    1
    43    24    41    1
    44    25    42    1
    45    26    43    1
    46    27    44    1
    47    28    45    1
@<TRIPOS>MOLECULE
mol76_1_14
 45 47 0 0 0
SMALL
USER_CHARGES
****
VDW energy = 110.05
@<TRIPOS>ATOM
   1 O1        3.4420    -9.1855    -5.2979  O.2     1  <O>11      -0.2687
   2 C1        2.8552    -9.8129    -4.4288  C.2     1  <O>11       0.2601
   3 N1        3.5160   -10.1860    -3.2900  N.am    1  <O>11      -0.2301
   4 N2        2.8557   -10.8918    -2.3123  N.am    1  <O>11      -0.2301
   5 C2        1.7564   -10.3519    -1.7030  C.2     1  <O>11       0.2602
   6 O2        1.3607    -9.2426    -2.0280  O.2     1  <O>11      -0.2687
   7 C3        1.0562   -11.0997    -0.6674  C.ar    1  <O>11       0.0400
   8 C4        0.1848   -10.4420     0.2174  C.ar    1  <O>11      -0.0495
   9 C5       -0.4772   -11.1597     1.2194  C.ar    1  <O>11      -0.0592
  10 C6       -0.2799   -12.5375     1.3455  C.ar    1  <O>11      -0.0350
  11 C7        0.5814   -13.1939     0.4606  C.ar    1  <O>11       0.1092
  12 S1        0.8234   -14.9288     0.6244  S.O2    1  <O>11       0.0724
  13 O3        1.4438   -15.2616     2.1297  O.2     1  <O>11      -0.1500
  14 O4        1.8854   -15.4529    -0.5402  O.2     1  <O>11      -0.1500
  15 N3       -0.6232   -15.7066     0.4420  N.pl3   1  <O>11      -0.2163
  16 C8       -1.3672   -15.5712    -0.7964  C.ar    1  <O>11       0.0480
  17 C9       -2.5986   -16.2288    -0.9602  C.ar    1  <O>11      -0.0393
  18 C10      -3.3099   -16.1065    -2.1587  C.ar    1  <O>11      -0.0600
  19 C11      -2.8039   -15.3249    -3.2003  C.ar    1  <O>11      -0.0616
  20 C12      -1.5815   -14.6650    -3.0346  C.ar    1  <O>11      -0.0600
  21 C13      -0.8667   -14.7793    -1.8419  C.ar    1  <O>11      -0.0393
  22 C14       1.2461   -12.4866    -0.5428  C.ar    1  <O>11      -0.0229
  23 C15       1.4620   -10.1610    -4.6040  C.ar    1  <O>11       0.0382
  24 C16       0.4750    -9.2817    -4.1546  C.ar    1  <O>11      -0.0496
  25 C17      -0.8745    -9.6183    -4.3101  C.ar    1  <O>11      -0.0610
  26 C18      -1.2337   -10.8255    -4.9148  C.ar    1  <O>11      -0.0617
  27 C19      -0.2326   -11.6941    -5.3653  C.ar    1  <O>11      -0.0610
  28 C20       1.1151   -11.3668    -5.2172  C.ar    1  <O>11      -0.0496
  29 H1        4.4984    -9.9405    -3.1657  H       1  <O>11       0.1731
  30 H2        3.1862   -11.8182    -2.0415  H       1  <O>11       0.1731
  31 H3       -0.9912   -16.2824     1.1981  H       1  <O>11       0.1737
  32 H4        0.0324    -9.4253     0.1276  H       1  <O>11       0.0625
  33 H5       -1.1134   -10.6699     1.8678  H       1  <O>11       0.0618
  34 H6       -0.7662   -13.0667     2.0862  H       1  <O>11       0.0637
  35 H7       -2.9797   -16.8043    -0.1931  H       1  <O>11       0.0636
  36 H8       -4.2116   -16.5953    -2.2737  H       1  <O>11       0.0618
  37 H9       -3.3277   -15.2350    -4.0850  H       1  <O>11       0.0618
  38 H10      -1.2045   -14.0878    -3.8026  H       1  <O>11       0.0618
  39 H11       0.0301   -14.2815    -1.7282  H       1  <O>11       0.0636
  40 H12       1.8764   -12.9818    -1.1927  H       1  <O>11       0.0645
  41 H13       0.7391    -8.3884    -3.7103  H       1  <O>11       0.0625
  42 H14      -1.6070    -8.9723    -3.9769  H       1  <O>11       0.0618
  43 H15      -2.2287   -11.0748    -5.0282  H       1  <O>11       0.0618
  44 H16      -0.4947   -12.5867    -5.8121  H       1  <O>11       0.0618
  45 H17       1.8481   -12.0089    -5.5570  H       1  <O>11       0.0625
@<TRIPOS>BOND
     1     1     2    2
     2     2     3   am
     3     3     4    1
     4     4     5   am
     5     5     6    2
     6     5     7    1
     7     7     8   ar
     8     8     9   ar
     9     9    10   ar
    10    10    11   ar
    11    11    12    1
    12    12    13    2
    13    12    14    2
    14    12    15    1
    15    15    16    1
    16    16    17   ar
    17    17    18   ar
    18    18    19   ar
    19    19    20   ar
    20    20    21   ar
    21    16    21   ar
    22    11    22   ar
    23     7    22   ar
    24     2    23    1
    25    23    24   ar
    26    24    25   ar
    27    25    26   ar
    28    26    27   ar
    29    27    28   ar
    30    23    28   ar
    31     3    29    1
    32     4    30    1
    33    15    31    1
    34     8    32    1
    35     9    33    1
    36    10    34    1
    37    17    35    1
    38    18    36    1
    39    19    37    1
    40    20    38    1
    41    21    39    1
    42    22    40    1
    43    24    41    1
    44    25    42    1
    45    26    43    1
    46    27    44    1
    47    28    45    1
@<TRIPOS>MOLECULE
mol76_1_15
 45 47 0 0 0
SMALL
USER_CHARGES
****
VDW energy = 110.40
@<TRIPOS>ATOM
   1 O1        3.4420    -9.1855    -5.2979  O.2     1  <O>11      -0.2687
   2 C1        2.8552    -9.8129    -4.4288  C.2     1  <O>11       0.2601
   3 N1        3.5160   -10.1860    -3.2900  N.am    1  <O>11      -0.2301
   4 N2        4.8400    -9.8550    -3.1240  N.am    1  <O>11      -0.2301
   5 C2        5.7742   -10.3017    -4.0178  C.2     1  <O>11       0.2602
   6 O2        5.4320   -10.9945    -4.9643  O.2     1  <O>11      -0.2687
   7 C3        7.1770    -9.9507    -3.8426  C.ar    1  <O>11       0.0400
   8 C4        8.1799   -10.6826    -4.5007  C.ar    1  <O>11      -0.0495
   9 C5        9.5275   -10.3521    -4.3213  C.ar    1  <O>11      -0.0592
  10 C6        9.8863    -9.2883    -3.4890  C.ar    1  <O>11      -0.0350
  11 C7        8.8884    -8.5547    -2.8397  C.ar    1  <O>11       0.1092
  12 S1        9.3477    -7.2158    -1.7949  S.O2    1  <O>11       0.0724
  13 O3        9.7580    -5.9021    -2.7264  O.2     1  <O>11      -0.1500
  14 O4       10.6483    -7.6609    -0.8624  O.2     1  <O>11      -0.1500
  15 N3        8.0768    -6.8197    -0.8157  N.pl3   1  <O>11      -0.2163
  16 C8        8.2094    -5.7365     0.1406  C.ar    1  <O>11       0.0480
  17 C9        7.1339    -5.3930     0.9778  C.ar    1  <O>11      -0.0393
  18 C10       7.2591    -4.3413     1.8918  C.ar    1  <O>11      -0.0600
  19 C11       8.4567    -3.6275     1.9832  C.ar    1  <O>11      -0.0616
  20 C12       9.5293    -3.9738     1.1545  C.ar    1  <O>11      -0.0600
  21 C13       9.4142    -5.0229     0.2420  C.ar    1  <O>11      -0.0393
  22 C14       7.5410    -8.8765    -3.0128  C.ar    1  <O>11      -0.0229
  23 C15       1.4620   -10.1610    -4.6040  C.ar    1  <O>11       0.0382
  24 C16       1.0134   -11.4175    -4.1926  C.ar    1  <O>11      -0.0496
  25 C17      -0.3305   -11.7649    -4.3706  C.ar    1  <O>11      -0.0610
  26 C18      -1.2205   -10.8590    -4.9532  C.ar    1  <O>11      -0.0617
  27 C19      -0.7568    -9.6008    -5.3553  C.ar    1  <O>11      -0.0610
  28 C20       0.5801    -9.2441    -5.1802  C.ar    1  <O>11      -0.0496
  29 H1        3.0270   -10.7100    -2.5640  H       1  <O>11       0.1731
  30 H2        5.1252    -9.2762    -2.3338  H       1  <O>11       0.1731
  31 H3        7.2002    -7.3349    -0.8849  H       1  <O>11       0.1737
  32 H4        7.9213   -11.4674    -5.1191  H       1  <O>11       0.0625
  33 H5       10.2590   -10.8959    -4.8052  H       1  <O>11       0.0618
  34 H6       10.8804    -9.0459    -3.3546  H       1  <O>11       0.0637
  35 H7        6.2481    -5.9190     0.9180  H       1  <O>11       0.0636
  36 H8        6.4640    -4.0918     2.5007  H       1  <O>11       0.0618
  37 H9        8.5493    -2.8510     2.6565  H       1  <O>11       0.0618
  38 H10      10.4149    -3.4479     1.2188  H       1  <O>11       0.0618
  39 H11      10.2149    -5.2746    -0.3585  H       1  <O>11       0.0636
  40 H12       6.8127    -8.3259    -2.5316  H       1  <O>11       0.0645
  41 H13       1.6693   -12.0865    -3.7596  H       1  <O>11       0.0625
  42 H14      -0.6655   -12.6936    -4.0704  H       1  <O>11       0.0618
  43 H15      -2.2113   -11.1153    -5.0861  H       1  <O>11       0.0618
  44 H16      -1.4117    -8.9296    -5.7862  H       1  <O>11       0.0618
  45 H17       0.9141    -8.3127    -5.4733  H       1  <O>11       0.0625
@<TRIPOS>BOND
     1     1     2    2
     2     2     3   am
     3     3     4    1
     4     4     5   am
     5     5     6    2
     6     5     7    1
     7     7     8   ar
     8     8     9   ar
     9     9    10   ar
    10    10    11   ar
    11    11    12    1
    12    12    13    2
    13    12    14    2
    14    12    15    1
    15    15    16    1
    16    16    17   ar
    17    17    18   ar
    18    18    19   ar
    19    19    20   ar
    20    20    21   ar
    21    16    21   ar
    22    11    22   ar
    23     7    22   ar
    24     2    23    1
    25    23    24   ar
    26    24    25   ar
    27    25    26   ar
    28    26    27   ar
    29    27    28   ar
    30    23    28   ar
    31     3    29    1
    32     4    30    1
    33    15    31    1
    34     8    32    1
    35     9    33    1
    36    10    34    1
    37    17    35    1
    38    18    36    1
    39    19    37    1
    40    20    38    1
    41    21    39    1
    42    22    40    1
    43    24    41    1
    44    25    42    1
    45    26    43    1
    46    27    44    1
    47    28    45    1
@<TRIPOS>MOLECULE
mol76_1_16
 45 47 0 0 0
SMALL
USER_CHARGES
****
VDW energy = 111.04
@<TRIPOS>ATOM
   1 O1        3.4420    -9.1855    -5.2979  O.2     1  <O>11      -0.2687
   2 C1        2.8552    -9.8129    -4.4288  C.2     1  <O>11       0.2601
   3 N1        3.5160   -10.1860    -3.2900  N.am    1  <O>11      -0.2301
   4 N2        2.8557   -10.8918    -2.3123  N.am    1  <O>11      -0.2301
   5 C2        1.7564   -10.3519    -1.7030  C.2     1  <O>11       0.2602
   6 O2        1.3607    -9.2426    -2.0280  O.2     1  <O>11      -0.2687
   7 C3        1.0562   -11.0997    -0.6674  C.ar    1  <O>11       0.0400
   8 C4        0.1848   -10.4420     0.2174  C.ar    1  <O>11      -0.0495
   9 C5       -0.4772   -11.1597     1.2194  C.ar    1  <O>11      -0.0592
  10 C6       -0.2799   -12.5375     1.3455  C.ar    1  <O>11      -0.0350
  11 C7        0.5814   -13.1939     0.4606  C.ar    1  <O>11       0.1092
  12 S1        0.8234   -14.9288     0.6244  S.O2    1  <O>11       0.0724
  13 O3        0.6442   -15.3648     2.2180  O.2     1  <O>11      -0.1500
  14 O4        2.3520   -15.3264     0.1103  O.2     1  <O>11      -0.1500
  15 N3       -0.2931   -15.7300    -0.2934  N.pl3   1  <O>11      -0.2163
  16 C8       -0.2997   -17.1807    -0.3230  C.ar    1  <O>11       0.0480
  17 C9       -1.2452   -17.8706    -1.1012  C.ar    1  <O>11      -0.0393
  18 C10      -1.2578   -19.2694    -1.1204  C.ar    1  <O>11      -0.0600
  19 C11      -0.3265   -19.9916    -0.3700  C.ar    1  <O>11      -0.0616
  20 C12       0.6189   -19.3048     0.3993  C.ar    1  <O>11      -0.0600
  21 C13       0.6404   -17.9100     0.4223  C.ar    1  <O>11      -0.0393
  22 C14       1.2461   -12.4866    -0.5428  C.ar    1  <O>11      -0.0229
  23 C15       1.4620   -10.1610    -4.6040  C.ar    1  <O>11       0.0382
  24 C16       1.1306   -11.3698    -5.2192  C.ar    1  <O>11      -0.0496
  25 C17      -0.2153   -11.7066    -5.4026  C.ar    1  <O>11      -0.0610
  26 C18      -1.2229   -10.8409    -4.9699  C.ar    1  <O>11      -0.0617
  27 C19      -0.8747    -9.6351    -4.3496  C.ar    1  <O>11      -0.0610
  28 C20       0.4636    -9.2913    -4.1600  C.ar    1  <O>11      -0.0496
  29 H1        4.4984    -9.9405    -3.1657  H       1  <O>11       0.1731
  30 H2        3.1862   -11.8182    -2.0415  H       1  <O>11       0.1731
  31 H3       -0.9774   -15.2054    -0.8367  H       1  <O>11       0.1737
  32 H4        0.0324    -9.4253     0.1276  H       1  <O>11       0.0625
  33 H5       -1.1134   -10.6699     1.8678  H       1  <O>11       0.0618
  34 H6       -0.7662   -13.0667     2.0862  H       1  <O>11       0.0637
  35 H7       -1.9332   -17.3430    -1.6608  H       1  <O>11       0.0636
  36 H8       -1.9575   -19.7696    -1.6909  H       1  <O>11       0.0618
  37 H9       -0.3359   -21.0235    -0.3830  H       1  <O>11       0.0618
  38 H10       1.3075   -19.8353     0.9556  H       1  <O>11       0.0618
  39 H11       1.3475   -17.4142     0.9872  H       1  <O>11       0.0636
  40 H12       1.8764   -12.9818    -1.1927  H       1  <O>11       0.0645
  41 H13       1.8739   -12.0113    -5.5368  H       1  <O>11       0.0625
  42 H14      -0.4644   -12.5978    -5.8593  H       1  <O>11       0.0618
  43 H15      -2.2155   -11.0882    -5.1063  H       1  <O>11       0.0618
  44 H16      -1.6167    -8.9935    -4.0291  H       1  <O>11       0.0618
  45 H17       0.7134    -8.4037    -3.6966  H       1  <O>11       0.0625
@<TRIPOS>BOND
     1     1     2    2
     2     2     3   am
     3     3     4    1
     4     4     5   am
     5     5     6    2
     6     5     7    1
     7     7     8   ar
     8     8     9   ar
     9     9    10   ar
    10    10    11   ar
    11    11    12    1
    12    12    13    2
    13    12    14    2
    14    12    15    1
    15    15    16    1
    16    16    17   ar
    17    17    18   ar
    18    18    19   ar
    19    19    20   ar
    20    20    21   ar
    21    16    21   ar
    22    11    22   ar
    23     7    22   ar
    24     2    23    1
    25    23    24   ar
    26    24    25   ar
    27    25    26   ar
    28    26    27   ar
    29    27    28   ar
    30    23    28   ar
    31     3    29    1
    32     4    30    1
    33    15    31    1
    34     8    32    1
    35     9    33    1
    36    10    34    1
    37    17    35    1
    38    18    36    1
    39    19    37    1
    40    20    38    1
    41    21    39    1
    42    22    40    1
    43    24    41    1
    44    25    42    1
    45    26    43    1
    46    27    44    1
    47    28    45    1
@<TRIPOS>MOLECULE
mol76_1_17
 45 47 0 0 0
SMALL
USER_CHARGES
****
VDW energy = 112.82
@<TRIPOS>ATOM
   1 O1        3.4420    -9.1855    -5.2979  O.2     1  <O>11      -0.2687
   2 C1        2.8552    -9.8129    -4.4288  C.2     1  <O>11       0.2601
   3 N1        3.5160   -10.1860    -3.2900  N.am    1  <O>11      -0.2301
   4 N2        4.8400    -9.8550    -3.1240  N.am    1  <O>11      -0.2301
   5 C2        5.2216    -8.5414    -3.1205  C.2     1  <O>11       0.2602
   6 O2        4.3857    -7.6619    -3.2643  O.2     1  <O>11      -0.2687
   7 C3        6.6243    -8.1903    -2.9440  C.ar    1  <O>11       0.0400
   8 C4        7.0880    -6.9141    -3.3059  C.ar    1  <O>11      -0.0495
   9 C5        8.4380    -6.5829    -3.1476  C.ar    1  <O>11      -0.0592
  10 C6        9.3353    -7.5178    -2.6241  C.ar    1  <O>11      -0.0350
  11 C7        8.8730    -8.7855    -2.2567  C.ar    1  <O>11       0.1092
  12 S1       10.0081    -9.9565    -1.5968  S.O2    1  <O>11       0.0724
  13 O3       10.3366    -9.5773    -0.0126  O.2     1  <O>11      -0.1500
  14 O4       11.4159    -9.9214    -2.4777  O.2     1  <O>11      -0.1500
  15 N3        9.3468   -11.4690    -1.6742  N.pl3   1  <O>11      -0.2163
  16 C8       10.0946   -12.6123    -1.1852  C.ar    1  <O>11       0.0480
  17 C9        9.5403   -13.9025    -1.2474  C.ar    1  <O>11      -0.0393
  18 C10      10.2576   -15.0027    -0.7656  C.ar    1  <O>11      -0.0600
  19 C11      11.5335   -14.8280    -0.2237  C.ar    1  <O>11      -0.0616
  20 C12      12.0879   -13.5447    -0.1680  C.ar    1  <O>11      -0.0600
  21 C13      11.3807   -12.4422    -0.6485  C.ar    1  <O>11      -0.0393
  22 C14       7.5277    -9.1253    -2.4105  C.ar    1  <O>11      -0.0229
  23 C15       1.4620   -10.1610    -4.6040  C.ar    1  <O>11       0.0382
  24 C16       0.6783    -9.4222    -5.4925  C.ar    1  <O>11      -0.0496
  25 C17      -0.6731    -9.7462    -5.6572  C.ar    1  <O>11      -0.0610
  26 C18      -1.2356   -10.8051    -4.9400  C.ar    1  <O>11      -0.0617
  27 C19      -0.4355   -11.5401    -4.0572  C.ar    1  <O>11      -0.0610
  28 C20       0.9129   -11.2267    -3.8876  C.ar    1  <O>11      -0.0496
  29 H1        3.0270   -10.7100    -2.5640  H       1  <O>11       0.1731
  30 H2        5.5375   -10.5896    -3.0036  H       1  <O>11       0.1731
  31 H3        8.4137   -11.5981    -2.0633  H       1  <O>11       0.1737
  32 H4        6.4298    -6.2182    -3.6902  H       1  <O>11       0.0625
  33 H5        8.7724    -5.6448    -3.4184  H       1  <O>11       0.0618
  34 H6       10.3316    -7.2745    -2.5095  H       1  <O>11       0.0637
  35 H7        8.6000   -14.0387    -1.6502  H       1  <O>11       0.0636
  36 H8        9.8429   -15.9467    -0.8108  H       1  <O>11       0.0618
  37 H9       12.0628   -15.6391     0.1326  H       1  <O>11       0.0618
  38 H10      13.0297   -13.4122     0.2326  H       1  <O>11       0.0618
  39 H11      11.8031   -11.5015    -0.6095  H       1  <O>11       0.0636
  40 H12       7.1968   -10.0624    -2.1325  H       1  <O>11       0.0645
  41 H13       1.0934    -8.6416    -6.0249  H       1  <O>11       0.0625
  42 H14      -1.2564    -9.2009    -6.3109  H       1  <O>11       0.0618
  43 H15      -2.2325   -11.0434    -5.0601  H       1  <O>11       0.0618
  44 H16      -0.8481   -12.3227    -3.5258  H       1  <O>11       0.0618
  45 H17       1.4986   -11.7764    -3.2398  H       1  <O>11       0.0625
@<TRIPOS>BOND
     1     1     2    2
     2     2     3   am
     3     3     4    1
     4     4     5   am
     5     5     6    2
     6     5     7    1
     7     7     8   ar
     8     8     9   ar
     9     9    10   ar
    10    10    11   ar
    11    11    12    1
    12    12    13    2
    13    12    14    2
    14    12    15    1
    15    15    16    1
    16    16    17   ar
    17    17    18   ar
    18    18    19   ar
    19    19    20   ar
    20    20    21   ar
    21    16    21   ar
    22    11    22   ar
    23     7    22   ar
    24     2    23    1
    25    23    24   ar
    26    24    25   ar
    27    25    26   ar
    28    26    27   ar
    29    27    28   ar
    30    23    28   ar
    31     3    29    1
    32     4    30    1
    33    15    31    1
    34     8    32    1
    35     9    33    1
    36    10    34    1
    37    17    35    1
    38    18    36    1
    39    19    37    1
    40    20    38    1
    41    21    39    1
    42    22    40    1
    43    24    41    1
    44    25    42    1
    45    26    43    1
    46    27    44    1
    47    28    45    1
@<TRIPOS>MOLECULE
mol76_1_18
 45 47 0 0 0
SMALL
USER_CHARGES
****
VDW energy = 112.86
@<TRIPOS>ATOM
   1 O1        3.4420    -9.1855    -5.2979  O.2     1  <O>11      -0.2687
   2 C1        2.8552    -9.8129    -4.4288  C.2     1  <O>11       0.2601
   3 N1        3.5160   -10.1860    -3.2900  N.am    1  <O>11      -0.2301
   4 N2        4.8400    -9.8550    -3.1240  N.am    1  <O>11      -0.2301
   5 C2        5.7742   -10.3017    -4.0178  C.2     1  <O>11       0.2602
   6 O2        5.4320   -10.9945    -4.9643  O.2     1  <O>11      -0.2687
   7 C3        7.1770    -9.9507    -3.8426  C.ar    1  <O>11       0.0400
   8 C4        8.1799   -10.6826    -4.5007  C.ar    1  <O>11      -0.0495
   9 C5        9.5275   -10.3521    -4.3213  C.ar    1  <O>11      -0.0592
  10 C6        9.8863    -9.2883    -3.4890  C.ar    1  <O>11      -0.0350
  11 C7        8.8884    -8.5547    -2.8397  C.ar    1  <O>11       0.1092
  12 S1        9.3477    -7.2158    -1.7949  S.O2    1  <O>11       0.0724
  13 O3        9.7580    -5.9021    -2.7264  O.2     1  <O>11      -0.1500
  14 O4       10.6483    -7.6609    -0.8624  O.2     1  <O>11      -0.1500
  15 N3        8.0768    -6.8197    -0.8157  N.pl3   1  <O>11      -0.2163
  16 C8        8.2094    -5.7365     0.1406  C.ar    1  <O>11       0.0480
  17 C9        7.1339    -5.3930     0.9778  C.ar    1  <O>11      -0.0393
  18 C10       7.2591    -4.3413     1.8918  C.ar    1  <O>11      -0.0600
  19 C11       8.4567    -3.6275     1.9832  C.ar    1  <O>11      -0.0616
  20 C12       9.5293    -3.9738     1.1545  C.ar    1  <O>11      -0.0600
  21 C13       9.4142    -5.0229     0.2420  C.ar    1  <O>11      -0.0393
  22 C14       7.5410    -8.8765    -3.0128  C.ar    1  <O>11      -0.0229
  23 C15       1.4620   -10.1610    -4.6040  C.ar    1  <O>11       0.0382
  24 C16       0.6783    -9.4222    -5.4925  C.ar    1  <O>11      -0.0496
  25 C17      -0.6731    -9.7462    -5.6572  C.ar    1  <O>11      -0.0610
  26 C18      -1.2356   -10.8051    -4.9400  C.ar    1  <O>11      -0.0617
  27 C19      -0.4355   -11.5401    -4.0572  C.ar    1  <O>11      -0.0610
  28 C20       0.9129   -11.2267    -3.8876  C.ar    1  <O>11      -0.0496
  29 H1        3.0270   -10.7100    -2.5640  H       1  <O>11       0.1731
  30 H2        5.1252    -9.2762    -2.3338  H       1  <O>11       0.1731
  31 H3        7.2002    -7.3349    -0.8849  H       1  <O>11       0.1737
  32 H4        7.9213   -11.4674    -5.1191  H       1  <O>11       0.0625
  33 H5       10.2590   -10.8959    -4.8052  H       1  <O>11       0.0618
  34 H6       10.8804    -9.0459    -3.3546  H       1  <O>11       0.0637
  35 H7        6.2481    -5.9190     0.9180  H       1  <O>11       0.0636
  36 H8        6.4640    -4.0918     2.5007  H       1  <O>11       0.0618
  37 H9        8.5493    -2.8510     2.6565  H       1  <O>11       0.0618
  38 H10      10.4149    -3.4479     1.2188  H       1  <O>11       0.0618
  39 H11      10.2149    -5.2746    -0.3585  H       1  <O>11       0.0636
  40 H12       6.8127    -8.3259    -2.5316  H       1  <O>11       0.0645
  41 H13       1.0934    -8.6416    -6.0249  H       1  <O>11       0.0625
  42 H14      -1.2564    -9.2009    -6.3109  H       1  <O>11       0.0618
  43 H15      -2.2325   -11.0434    -5.0601  H       1  <O>11       0.0618
  44 H16      -0.8481   -12.3227    -3.5258  H       1  <O>11       0.0618
  45 H17       1.4986   -11.7764    -3.2398  H       1  <O>11       0.0625
@<TRIPOS>BOND
     1     1     2    2
     2     2     3   am
     3     3     4    1
     4     4     5   am
     5     5     6    2
     6     5     7    1
     7     7     8   ar
     8     8     9   ar
     9     9    10   ar
    10    10    11   ar
    11    11    12    1
    12    12    13    2
    13    12    14    2
    14    12    15    1
    15    15    16    1
    16    16    17   ar
    17    17    18   ar
    18    18    19   ar
    19    19    20   ar
    20    20    21   ar
    21    16    21   ar
    22    11    22   ar
    23     7    22   ar
    24     2    23    1
    25    23    24   ar
    26    24    25   ar
    27    25    26   ar
    28    26    27   ar
    29    27    28   ar
    30    23    28   ar
    31     3    29    1
    32     4    30    1
    33    15    31    1
    34     8    32    1
    35     9    33    1
    36    10    34    1
    37    17    35    1
    38    18    36    1
    39    19    37    1
    40    20    38    1
    41    21    39    1
    42    22    40    1
    43    24    41    1
    44    25    42    1
    45    26    43    1
    46    27    44    1
    47    28    45    1
@<TRIPOS>MOLECULE
mol76_1_19
 45 47 0 0 0
SMALL
USER_CHARGES
****
VDW energy = 112.94
@<TRIPOS>ATOM
   1 O1        3.4420    -9.1855    -5.2979  O.2     1  <O>11      -0.2687
   2 C1        2.8552    -9.8129    -4.4288  C.2     1  <O>11       0.2601
   3 N1        3.5160   -10.1860    -3.2900  N.am    1  <O>11      -0.2301
   4 N2        2.8557   -10.8918    -2.3123  N.am    1  <O>11      -0.2301
   5 C2        2.3091   -12.1121    -2.6003  C.2     1  <O>11       0.2602
   6 O2        2.4080   -12.5755    -3.7266  O.2     1  <O>11      -0.2687
   7 C3        1.6099   -12.8605    -1.5645  C.ar    1  <O>11       0.0400
   8 C4        0.7356   -13.9049    -1.9103  C.ar    1  <O>11      -0.0495
   9 C5        0.0552   -14.6142    -0.9147  C.ar    1  <O>11      -0.0592
  10 C6        0.2432   -14.2921     0.4323  C.ar    1  <O>11      -0.0350
  11 C7        1.1189   -13.2578     0.7775  C.ar    1  <O>11       0.1092
  12 S1        1.3517   -12.8592     2.4751  S.O2    1  <O>11       0.0724
  13 O3        2.3498   -13.9874     3.1769  O.2     1  <O>11      -0.1500
  14 O4       -0.1168   -12.8602     3.2514  O.2     1  <O>11      -0.1500
  15 N3        2.0407   -11.3623     2.6002  N.pl3   1  <O>11      -0.2163
  16 C8        1.3574   -10.2029     2.0578  C.ar    1  <O>11       0.0480
  17 C9        1.9361    -8.9260     2.1592  C.ar    1  <O>11      -0.0393
  18 C10       1.2714    -7.8072     1.6457  C.ar    1  <O>11      -0.0600
  19 C11       0.0291    -7.9516     1.0228  C.ar    1  <O>11      -0.0616
  20 C12      -0.5437    -9.2235     0.9160  C.ar    1  <O>11      -0.0600
  21 C13       0.1133   -10.3450     1.4229  C.ar    1  <O>11      -0.0393
  22 C14       1.8027   -12.5445    -0.2087  C.ar    1  <O>11      -0.0229
  23 C15       1.4620   -10.1610    -4.6040  C.ar    1  <O>11       0.0382
  24 C16       0.4750    -9.2817    -4.1546  C.ar    1  <O>11      -0.0496
  25 C17      -0.8745    -9.6183    -4.3101  C.ar    1  <O>11      -0.0610
  26 C18      -1.2337   -10.8255    -4.9148  C.ar    1  <O>11      -0.0617
  27 C19      -0.2326   -11.6941    -5.3653  C.ar    1  <O>11      -0.0610
  28 C20       1.1151   -11.3668    -5.2172  C.ar    1  <O>11      -0.0496
  29 H1        4.4984    -9.9405    -3.1657  H       1  <O>11       0.1731
  30 H2        2.7736   -10.5047    -1.3719  H       1  <O>11       0.1731
  31 H3        2.9439   -11.2538     3.0597  H       1  <O>11       0.1737
  32 H4        0.5948   -14.1496    -2.9029  H       1  <O>11       0.0625
  33 H5       -0.5878   -15.3780    -1.1758  H       1  <O>11       0.0618
  34 H6       -0.2605   -14.8136     1.1667  H       1  <O>11       0.0637
  35 H7        2.8553    -8.8133     2.6145  H       1  <O>11       0.0636
  36 H8        1.7002    -6.8720     1.7271  H       1  <O>11       0.0618
  37 H9       -0.4621    -7.1266     0.6446  H       1  <O>11       0.0618
  38 H10      -1.4617    -9.3333     0.4574  H       1  <O>11       0.0618
  39 H11      -0.3152   -11.2793     1.3312  H       1  <O>11       0.0636
  40 H12       2.4494   -11.7857     0.0576  H       1  <O>11       0.0645
  41 H13       0.7391    -8.3884    -3.7103  H       1  <O>11       0.0625
  42 H14      -1.6070    -8.9723    -3.9769  H       1  <O>11       0.0618
  43 H15      -2.2287   -11.0748    -5.0282  H       1  <O>11       0.0618
  44 H16      -0.4947   -12.5867    -5.8121  H       1  <O>11       0.0618
  45 H17       1.8481   -12.0089    -5.5570  H       1  <O>11       0.0625
@<TRIPOS>BOND
     1     1     2    2
     2     2     3   am
     3     3     4    1
     4     4     5   am
     5     5     6    2
     6     5     7    1
     7     7     8   ar
     8     8     9   ar
     9     9    10   ar
    10    10    11   ar
    11    11    12    1
    12    12    13    2
    13    12    14    2
    14    12    15    1
    15    15    16    1
    16    16    17   ar
    17    17    18   ar
    18    18    19   ar
    19    19    20   ar
    20    20    21   ar
    21    16    21   ar
    22    11    22   ar
    23     7    22   ar
    24     2    23    1
    25    23    24   ar
    26    24    25   ar
    27    25    26   ar
    28    26    27   ar
    29    27    28   ar
    30    23    28   ar
    31     3    29    1
    32     4    30    1
    33    15    31    1
    34     8    32    1
    35     9    33    1
    36    10    34    1
    37    17    35    1
    38    18    36    1
    39    19    37    1
    40    20    38    1
    41    21    39    1
    42    22    40    1
    43    24    41    1
    44    25    42    1
    45    26    43    1
    46    27    44    1
    47    28    45    1
@<TRIPOS>MOLECULE
mol76_1_20
 45 47 0 0 0
SMALL
USER_CHARGES
****
VDW energy = 113.90
@<TRIPOS>ATOM
   1 O1        3.4420    -9.1855    -5.2979  O.2     1  <O>11      -0.2687
   2 C1        2.8552    -9.8129    -4.4288  C.2     1  <O>11       0.2601
   3 N1        3.5160   -10.1860    -3.2900  N.am    1  <O>11      -0.2301
   4 N2        2.8557   -10.8918    -2.3123  N.am    1  <O>11      -0.2301
   5 C2        1.7564   -10.3519    -1.7030  C.2     1  <O>11       0.2602
   6 O2        1.3607    -9.2426    -2.0280  O.2     1  <O>11      -0.2687
   7 C3        1.0562   -11.0997    -0.6674  C.ar    1  <O>11       0.0400
   8 C4        0.1848   -10.4420     0.2174  C.ar    1  <O>11      -0.0495
   9 C5       -0.4772   -11.1597     1.2194  C.ar    1  <O>11      -0.0592
  10 C6       -0.2799   -12.5375     1.3455  C.ar    1  <O>11      -0.0350
  11 C7        0.5814   -13.1939     0.4606  C.ar    1  <O>11       0.1092
  12 S1        0.8234   -14.9288     0.6244  S.O2    1  <O>11       0.0724
  13 O3       -0.4900   -15.7325    -0.0006  O.2     1  <O>11      -0.1500
  14 O4        0.9959   -15.3154     2.2307  O.2     1  <O>11      -0.1500
  15 N3        2.1844   -15.3756    -0.1996  N.pl3   1  <O>11      -0.2163
  16 C8        3.4693   -14.8061     0.1612  C.ar    1  <O>11       0.0480
  17 C9        4.6320   -15.1799    -0.5344  C.ar    1  <O>11      -0.0393
  18 C10       5.8720   -14.6386    -0.1786  C.ar    1  <O>11      -0.0600
  19 C11       5.9632   -13.7177     0.8681  C.ar    1  <O>11      -0.0616
  20 C12       4.8048   -13.3407     1.5561  C.ar    1  <O>11      -0.0600
  21 C13       3.5638   -13.8734     1.2062  C.ar    1  <O>11      -0.0393
  22 C14       1.2461   -12.4866    -0.5428  C.ar    1  <O>11      -0.0229
  23 C15       1.4620   -10.1610    -4.6040  C.ar    1  <O>11       0.0382
  24 C16       0.4750    -9.2817    -4.1546  C.ar    1  <O>11      -0.0496
  25 C17      -0.8745    -9.6183    -4.3101  C.ar    1  <O>11      -0.0610
  26 C18      -1.2337   -10.8255    -4.9148  C.ar    1  <O>11      -0.0617
  27 C19      -0.2326   -11.6941    -5.3653  C.ar    1  <O>11      -0.0610
  28 C20       1.1151   -11.3668    -5.2172  C.ar    1  <O>11      -0.0496
  29 H1        4.4984    -9.9405    -3.1657  H       1  <O>11       0.1731
  30 H2        3.1862   -11.8182    -2.0415  H       1  <O>11       0.1731
  31 H3        2.1212   -16.0519    -0.9594  H       1  <O>11       0.1737
  32 H4        0.0324    -9.4253     0.1276  H       1  <O>11       0.0625
  33 H5       -1.1134   -10.6699     1.8678  H       1  <O>11       0.0618
  34 H6       -0.7662   -13.0667     2.0862  H       1  <O>11       0.0637
  35 H7        4.5707   -15.8566    -1.3112  H       1  <O>11       0.0636
  36 H8        6.7223   -14.9205    -0.6910  H       1  <O>11       0.0618
  37 H9        6.8777   -13.3188     1.1317  H       1  <O>11       0.0618
  38 H10       4.8690   -12.6614     2.3304  H       1  <O>11       0.0618
  39 H11       2.7150   -13.5817     1.7156  H       1  <O>11       0.0636
  40 H12       1.8764   -12.9818    -1.1927  H       1  <O>11       0.0645
  41 H13       0.7391    -8.3884    -3.7103  H       1  <O>11       0.0625
  42 H14      -1.6070    -8.9723    -3.9769  H       1  <O>11       0.0618
  43 H15      -2.2287   -11.0748    -5.0282  H       1  <O>11       0.0618
  44 H16      -0.4947   -12.5867    -5.8121  H       1  <O>11       0.0618
  45 H17       1.8481   -12.0089    -5.5570  H       1  <O>11       0.0625
@<TRIPOS>BOND
     1     1     2    2
     2     2     3   am
     3     3     4    1
     4     4     5   am
     5     5     6    2
     6     5     7    1
     7     7     8   ar
     8     8     9   ar
     9     9    10   ar
    10    10    11   ar
    11    11    12    1
    12    12    13    2
    13    12    14    2
    14    12    15    1
    15    15    16    1
    16    16    17   ar
    17    17    18   ar
    18    18    19   ar
    19    19    20   ar
    20    20    21   ar
    21    16    21   ar
    22    11    22   ar
    23     7    22   ar
    24     2    23    1
    25    23    24   ar
    26    24    25   ar
    27    25    26   ar
    28    26    27   ar
    29    27    28   ar
    30    23    28   ar
    31     3    29    1
    32     4    30    1
    33    15    31    1
    34     8    32    1
    35     9    33    1
    36    10    34    1
    37    17    35    1
    38    18    36    1
    39    19    37    1
    40    20    38    1
    41    21    39    1
    42    22    40    1
    43    24    41    1
    44    25    42    1
    45    26    43    1
    46    27    44    1
    47    28    45    1
@<TRIPOS>MOLECULE
mol76_1_21
 45 47 0 0 0
SMALL
USER_CHARGES
****
VDW energy = 116.78
@<TRIPOS>ATOM
   1 O1        3.4420    -9.1855    -5.2979  O.2     1  <O>11      -0.2687
   2 C1        2.8552    -9.8129    -4.4288  C.2     1  <O>11       0.2601
   3 N1        3.5160   -10.1860    -3.2900  N.am    1  <O>11      -0.2301
   4 N2        2.8557   -10.8918    -2.3123  N.am    1  <O>11      -0.2301
   5 C2        1.7564   -10.3519    -1.7030  C.2     1  <O>11       0.2602
   6 O2        1.3607    -9.2426    -2.0280  O.2     1  <O>11      -0.2687
   7 C3        1.0562   -11.0997    -0.6674  C.ar    1  <O>11       0.0400
   8 C4        0.1848   -10.4420     0.2174  C.ar    1  <O>11      -0.0495
   9 C5       -0.4772   -11.1597     1.2194  C.ar    1  <O>11      -0.0592
  10 C6       -0.2799   -12.5375     1.3455  C.ar    1  <O>11      -0.0350
  11 C7        0.5814   -13.1939     0.4606  C.ar    1  <O>11       0.1092
  12 S1        0.8234   -14.9288     0.6244  S.O2    1  <O>11       0.0724
  13 O3       -0.4900   -15.7325    -0.0006  O.2     1  <O>11      -0.1500
  14 O4        0.9959   -15.3154     2.2307  O.2     1  <O>11      -0.1500
  15 N3        2.1844   -15.3756    -0.1996  N.pl3   1  <O>11      -0.2163
  16 C8        2.5980   -16.7663    -0.2148  C.ar    1  <O>11       0.0480
  17 C9        3.7544   -17.1554    -0.9127  C.ar    1  <O>11      -0.0393
  18 C10       4.1464   -18.4981    -0.9359  C.ar    1  <O>11      -0.0600
  19 C11       3.3938   -19.4623    -0.2606  C.ar    1  <O>11      -0.0616
  20 C12       2.2466   -19.0739     0.4396  C.ar    1  <O>11      -0.0600
  21 C13       1.8498   -17.7367     0.4702  C.ar    1  <O>11      -0.0393
  22 C14       1.2461   -12.4866    -0.5428  C.ar    1  <O>11      -0.0229
  23 C15       1.4620   -10.1610    -4.6040  C.ar    1  <O>11       0.0382
  24 C16       0.4750    -9.2817    -4.1546  C.ar    1  <O>11      -0.0496
  25 C17      -0.8745    -9.6183    -4.3101  C.ar    1  <O>11      -0.0610
  26 C18      -1.2337   -10.8255    -4.9148  C.ar    1  <O>11      -0.0617
  27 C19      -0.2326   -11.6941    -5.3653  C.ar    1  <O>11      -0.0610
  28 C20       1.1151   -11.3668    -5.2172  C.ar    1  <O>11      -0.0496
  29 H1        4.4984    -9.9405    -3.1657  H       1  <O>11       0.1731
  30 H2        3.1862   -11.8182    -2.0415  H       1  <O>11       0.1731
  31 H3        2.7314   -14.6749    -0.6982  H       1  <O>11       0.1737
  32 H4        0.0324    -9.4253     0.1276  H       1  <O>11       0.0625
  33 H5       -1.1134   -10.6699     1.8678  H       1  <O>11       0.0618
  34 H6       -0.7662   -13.0667     2.0862  H       1  <O>11       0.0637
  35 H7        4.3168   -16.4474    -1.4101  H       1  <O>11       0.0636
  36 H8        4.9944   -18.7774    -1.4536  H       1  <O>11       0.0618
  37 H9        3.6819   -20.4531    -0.2781  H       1  <O>11       0.0618
  38 H10       1.6879   -19.7839     0.9385  H       1  <O>11       0.0618
  39 H11       1.0062   -17.4609     0.9967  H       1  <O>11       0.0636
  40 H12       1.8764   -12.9818    -1.1927  H       1  <O>11       0.0645
  41 H13       0.7391    -8.3884    -3.7103  H       1  <O>11       0.0625
  42 H14      -1.6070    -8.9723    -3.9769  H       1  <O>11       0.0618
  43 H15      -2.2287   -11.0748    -5.0282  H       1  <O>11       0.0618
  44 H16      -0.4947   -12.5867    -5.8121  H       1  <O>11       0.0618
  45 H17       1.8481   -12.0089    -5.5570  H       1  <O>11       0.0625
@<TRIPOS>BOND
     1     1     2    2
     2     2     3   am
     3     3     4    1
     4     4     5   am
     5     5     6    2
     6     5     7    1
     7     7     8   ar
     8     8     9   ar
     9     9    10   ar
    10    10    11   ar
    11    11    12    1
    12    12    13    2
    13    12    14    2
    14    12    15    1
    15    15    16    1
    16    16    17   ar
    17    17    18   ar
    18    18    19   ar
    19    19    20   ar
    20    20    21   ar
    21    16    21   ar
    22    11    22   ar
    23     7    22   ar
    24     2    23    1
    25    23    24   ar
    26    24    25   ar
    27    25    26   ar
    28    26    27   ar
    29    27    28   ar
    30    23    28   ar
    31     3    29    1
    32     4    30    1
    33    15    31    1
    34     8    32    1
    35     9    33    1
    36    10    34    1
    37    17    35    1
    38    18    36    1
    39    19    37    1
    40    20    38    1
    41    21    39    1
    42    22    40    1
    43    24    41    1
    44    25    42    1
    45    26    43    1
    46    27    44    1
    47    28    45    1
@<TRIPOS>MOLECULE
mol76_1_22
 45 47 0 0 0
SMALL
USER_CHARGES
****
VDW energy = 123.91
@<TRIPOS>ATOM
   1 O1        3.4420    -9.1855    -5.2979  O.2     1  <O>11      -0.2687
   2 C1        2.8552    -9.8129    -4.4288  C.2     1  <O>11       0.2601
   3 N1        3.5160   -10.1860    -3.2900  N.am    1  <O>11      -0.2301
   4 N2        4.8400    -9.8550    -3.1240  N.am    1  <O>11      -0.2301
   5 C2        5.7742   -10.3017    -4.0178  C.2     1  <O>11       0.2602
   6 O2        5.4320   -10.9945    -4.9643  O.2     1  <O>11      -0.2687
   7 C3        7.1770    -9.9507    -3.8426  C.ar    1  <O>11       0.0400
   8 C4        8.1799   -10.6826    -4.5007  C.ar    1  <O>11      -0.0495
   9 C5        9.5275   -10.3521    -4.3213  C.ar    1  <O>11      -0.0592
  10 C6        9.8863    -9.2883    -3.4890  C.ar    1  <O>11      -0.0350
  11 C7        8.8884    -8.5547    -2.8397  C.ar    1  <O>11       0.1092
  12 S1        9.3477    -7.2158    -1.7949  S.O2    1  <O>11       0.0724
  13 O3        9.7580    -5.9021    -2.7264  O.2     1  <O>11      -0.1500
  14 O4       10.6483    -7.6609    -0.8624  O.2     1  <O>11      -0.1500
  15 N3        8.0768    -6.8197    -0.8157  N.pl3   1  <O>11      -0.2163
  16 C8        6.8182    -6.3942    -1.3990  C.ar    1  <O>11       0.0480
  17 C9        5.7321    -6.0549    -0.5739  C.ar    1  <O>11      -0.0393
  18 C10       4.5156    -5.6553    -1.1375  C.ar    1  <O>11      -0.0600
  19 C11       4.3728    -5.5851    -2.5255  C.ar    1  <O>11      -0.0616
  20 C12       5.4560    -5.9163    -3.3466  C.ar    1  <O>11      -0.0600
  21 C13       6.6736    -6.3133    -2.7931  C.ar    1  <O>11      -0.0393
  22 C14       7.5410    -8.8765    -3.0128  C.ar    1  <O>11      -0.0229
  23 C15       1.4620   -10.1610    -4.6040  C.ar    1  <O>11       0.0382
  24 C16       0.4750    -9.2817    -4.1546  C.ar    1  <O>11      -0.0496
  25 C17      -0.8745    -9.6183    -4.3101  C.ar    1  <O>11      -0.0610
  26 C18      -1.2337   -10.8255    -4.9148  C.ar    1  <O>11      -0.0617
  27 C19      -0.2326   -11.6941    -5.3653  C.ar    1  <O>11      -0.0610
  28 C20       1.1151   -11.3668    -5.2172  C.ar    1  <O>11      -0.0496
  29 H1        3.0270   -10.7100    -2.5640  H       1  <O>11       0.1731
  30 H2        5.1252    -9.2762    -2.3338  H       1  <O>11       0.1731
  31 H3        8.1767    -6.8762     0.1970  H       1  <O>11       0.1737
  32 H4        7.9213   -11.4674    -5.1191  H       1  <O>11       0.0625
  33 H5       10.2590   -10.8959    -4.8052  H       1  <O>11       0.0618
  34 H6       10.8804    -9.0459    -3.3546  H       1  <O>11       0.0637
  35 H7        5.8324    -6.1008     0.4521  H       1  <O>11       0.0636
  36 H8        3.7209    -5.4115    -0.5258  H       1  <O>11       0.0618
  37 H9        3.4754    -5.2913    -2.9419  H       1  <O>11       0.0618
  38 H10       5.3534    -5.8665    -4.3723  H       1  <O>11       0.0618
  39 H11       7.4681    -6.5475    -3.4086  H       1  <O>11       0.0636
  40 H12       6.8127    -8.3259    -2.5316  H       1  <O>11       0.0645
  41 H13       0.7391    -8.3884    -3.7103  H       1  <O>11       0.0625
  42 H14      -1.6070    -8.9723    -3.9769  H       1  <O>11       0.0618
  43 H15      -2.2287   -11.0748    -5.0282  H       1  <O>11       0.0618
  44 H16      -0.4947   -12.5867    -5.8121  H       1  <O>11       0.0618
  45 H17       1.8481   -12.0089    -5.5570  H       1  <O>11       0.0625
@<TRIPOS>BOND
     1     1     2    2
     2     2     3   am
     3     3     4    1
     4     4     5   am
     5     5     6    2
     6     5     7    1
     7     7     8   ar
     8     8     9   ar
     9     9    10   ar
    10    10    11   ar
    11    11    12    1
    12    12    13    2
    13    12    14    2
    14    12    15    1
    15    15    16    1
    16    16    17   ar
    17    17    18   ar
    18    18    19   ar
    19    19    20   ar
    20    20    21   ar
    21    16    21   ar
    22    11    22   ar
    23     7    22   ar
    24     2    23    1
    25    23    24   ar
    26    24    25   ar
    27    25    26   ar
    28    26    27   ar
    29    27    28   ar
    30    23    28   ar
    31     3    29    1
    32     4    30    1
    33    15    31    1
    34     8    32    1
    35     9    33    1
    36    10    34    1
    37    17    35    1
    38    18    36    1
    39    19    37    1
    40    20    38    1
    41    21    39    1
    42    22    40    1
    43    24    41    1
    44    25    42    1
    45    26    43    1
    46    27    44    1
    47    28    45    1
@<TRIPOS>MOLECULE
mol76_1_23
 45 47 0 0 0
SMALL
USER_CHARGES
****
VDW energy = 125.51
@<TRIPOS>ATOM
   1 O1        3.4420    -9.1855    -5.2979  O.2     1  <O>11      -0.2687
   2 C1        2.8552    -9.8129    -4.4288  C.2     1  <O>11       0.2601
   3 N1        3.5160   -10.1860    -3.2900  N.am    1  <O>11      -0.2301
   4 N2        2.8557   -10.8918    -2.3123  N.am    1  <O>11      -0.2301
   5 C2        1.7564   -10.3519    -1.7030  C.2     1  <O>11       0.2602
   6 O2        1.3607    -9.2426    -2.0280  O.2     1  <O>11      -0.2687
   7 C3        1.0562   -11.0997    -0.6674  C.ar    1  <O>11       0.0400
   8 C4        1.7769   -11.8468     0.2797  C.ar    1  <O>11      -0.0495
   9 C5        1.1023   -12.5745     1.2659  C.ar    1  <O>11      -0.0592
  10 C6       -0.2943   -12.5606     1.3191  C.ar    1  <O>11      -0.0350
  11 C7       -1.0119   -11.8113     0.3815  C.ar    1  <O>11       0.1092
  12 S1       -2.7696   -11.7973     0.4559  S.O2    1  <O>11       0.0724
  13 O3       -3.3439   -13.3462     0.2753  O.2     1  <O>11      -0.1500
  14 O4       -3.3685   -10.8394    -0.7618  O.2     1  <O>11      -0.1500
  15 N3       -3.2545   -11.1983     1.9179  N.pl3   1  <O>11      -0.2163
  16 C8       -4.6690   -11.0882     2.2223  C.ar    1  <O>11       0.0480
  17 C9       -5.3734    -9.9133     1.9078  C.ar    1  <O>11      -0.0393
  18 C10      -6.7346    -9.8040     2.2117  C.ar    1  <O>11      -0.0600
  19 C11      -7.4058   -10.8646     2.8255  C.ar    1  <O>11      -0.0616
  20 C12      -6.7060   -12.0365     3.1323  C.ar    1  <O>11      -0.0600
  21 C13      -5.3491   -12.1552     2.8305  C.ar    1  <O>11      -0.0393
  22 C14      -0.3478   -11.0814    -0.6060  C.ar    1  <O>11      -0.0229
  23 C15       1.4620   -10.1610    -4.6040  C.ar    1  <O>11       0.0382
  24 C16       0.6783    -9.4222    -5.4925  C.ar    1  <O>11      -0.0496
  25 C17      -0.6731    -9.7462    -5.6572  C.ar    1  <O>11      -0.0610
  26 C18      -1.2356   -10.8051    -4.9400  C.ar    1  <O>11      -0.0617
  27 C19      -0.4355   -11.5401    -4.0572  C.ar    1  <O>11      -0.0610
  28 C20       0.9129   -11.2267    -3.8876  C.ar    1  <O>11      -0.0496
  29 H1        4.4984    -9.9405    -3.1657  H       1  <O>11       0.1731
  30 H2        3.1862   -11.8182    -2.0415  H       1  <O>11       0.1731
  31 H3       -2.5604   -10.9084     2.6055  H       1  <O>11       0.1737
  32 H4        2.8084   -11.8586     0.2477  H       1  <O>11       0.0625
  33 H5        1.6377   -13.1236     1.9564  H       1  <O>11       0.0618
  34 H6       -0.7922   -13.0994     2.0450  H       1  <O>11       0.0637
  35 H7       -4.8844    -9.1279     1.4507  H       1  <O>11       0.0636
  36 H8       -7.2448    -8.9368     1.9816  H       1  <O>11       0.0618
  37 H9       -8.4097   -10.7841     3.0507  H       1  <O>11       0.0618
  38 H10      -7.1986   -12.8213     3.5867  H       1  <O>11       0.0618
  39 H11      -4.8452   -13.0276     3.0542  H       1  <O>11       0.0636
  40 H12      -0.8873   -10.5290    -1.2905  H       1  <O>11       0.0645
  41 H13       1.0934    -8.6416    -6.0249  H       1  <O>11       0.0625
  42 H14      -1.2564    -9.2009    -6.3109  H       1  <O>11       0.0618
  43 H15      -2.2325   -11.0434    -5.0601  H       1  <O>11       0.0618
  44 H16      -0.8481   -12.3227    -3.5258  H       1  <O>11       0.0618
  45 H17       1.4986   -11.7764    -3.2398  H       1  <O>11       0.0625
@<TRIPOS>BOND
     1     1     2    2
     2     2     3   am
     3     3     4    1
     4     4     5   am
     5     5     6    2
     6     5     7    1
     7     7     8   ar
     8     8     9   ar
     9     9    10   ar
    10    10    11   ar
    11    11    12    1
    12    12    13    2
    13    12    14    2
    14    12    15    1
    15    15    16    1
    16    16    17   ar
    17    17    18   ar
    18    18    19   ar
    19    19    20   ar
    20    20    21   ar
    21    16    21   ar
    22    11    22   ar
    23     7    22   ar
    24     2    23    1
    25    23    24   ar
    26    24    25   ar
    27    25    26   ar
    28    26    27   ar
    29    27    28   ar
    30    23    28   ar
    31     3    29    1
    32     4    30    1
    33    15    31    1
    34     8    32    1
    35     9    33    1
    36    10    34    1
    37    17    35    1
    38    18    36    1
    39    19    37    1
    40    20    38    1
    41    21    39    1
    42    22    40    1
    43    24    41    1
    44    25    42    1
    45    26    43    1
    46    27    44    1
    47    28    45    1
@<TRIPOS>MOLECULE
mol76_1_24
 45 47 0 0 0
SMALL
USER_CHARGES
****
VDW energy = 126.61
@<TRIPOS>ATOM
   1 O1        3.4420    -9.1855    -5.2979  O.2     1  <O>11      -0.2687
   2 C1        2.8552    -9.8129    -4.4288  C.2     1  <O>11       0.2601
   3 N1        3.5160   -10.1860    -3.2900  N.am    1  <O>11      -0.2301
   4 N2        2.8557   -10.8918    -2.3123  N.am    1  <O>11      -0.2301
   5 C2        1.7564   -10.3519    -1.7030  C.2     1  <O>11       0.2602
   6 O2        1.3607    -9.2426    -2.0280  O.2     1  <O>11      -0.2687
   7 C3        1.0562   -11.0997    -0.6674  C.ar    1  <O>11       0.0400
   8 C4        0.1848   -10.4420     0.2174  C.ar    1  <O>11      -0.0495
   9 C5       -0.4772   -11.1597     1.2194  C.ar    1  <O>11      -0.0592
  10 C6       -0.2799   -12.5375     1.3455  C.ar    1  <O>11      -0.0350
  11 C7        0.5814   -13.1939     0.4606  C.ar    1  <O>11       0.1092
  12 S1        0.8234   -14.9288     0.6244  S.O2    1  <O>11       0.0724
  13 O3        1.4438   -15.2616     2.1297  O.2     1  <O>11      -0.1500
  14 O4        1.8854   -15.4529    -0.5402  O.2     1  <O>11      -0.1500
  15 N3       -0.6232   -15.7066     0.4420  N.pl3   1  <O>11      -0.2163
  16 C8       -0.6847   -17.1532     0.5373  C.ar    1  <O>11       0.0480
  17 C9       -0.5175   -17.9479    -0.6099  C.ar    1  <O>11      -0.0393
  18 C10      -0.5879   -19.3422    -0.5189  C.ar    1  <O>11      -0.0600
  19 C11      -0.8197   -19.9558     0.7148  C.ar    1  <O>11      -0.0616
  20 C12      -0.9795   -19.1649     1.8576  C.ar    1  <O>11      -0.0600
  21 C13      -0.9081   -17.7739     1.7765  C.ar    1  <O>11      -0.0393
  22 C14       1.2461   -12.4866    -0.5428  C.ar    1  <O>11      -0.0229
  23 C15       1.4620   -10.1610    -4.6040  C.ar    1  <O>11       0.0382
  24 C16       0.6783    -9.4222    -5.4925  C.ar    1  <O>11      -0.0496
  25 C17      -0.6731    -9.7462    -5.6572  C.ar    1  <O>11      -0.0610
  26 C18      -1.2356   -10.8051    -4.9400  C.ar    1  <O>11      -0.0617
  27 C19      -0.4355   -11.5401    -4.0572  C.ar    1  <O>11      -0.0610
  28 C20       0.9129   -11.2267    -3.8876  C.ar    1  <O>11      -0.0496
  29 H1        4.4984    -9.9405    -3.1657  H       1  <O>11       0.1731
  30 H2        3.1862   -11.8182    -2.0415  H       1  <O>11       0.1731
  31 H3       -1.4715   -15.1703     0.2646  H       1  <O>11       0.1737
  32 H4        0.0324    -9.4253     0.1276  H       1  <O>11       0.0625
  33 H5       -1.1134   -10.6699     1.8678  H       1  <O>11       0.0618
  34 H6       -0.7662   -13.0667     2.0862  H       1  <O>11       0.0637
  35 H7       -0.3419   -17.5010    -1.5233  H       1  <O>11       0.0636
  36 H8       -0.4682   -19.9195    -1.3659  H       1  <O>11       0.0618
  37 H9       -0.8727   -20.9842     0.7824  H       1  <O>11       0.0618
  38 H10      -1.1519   -19.6150     2.7702  H       1  <O>11       0.0618
  39 H11      -1.0196   -17.2011     2.6277  H       1  <O>11       0.0636
  40 H12       1.8764   -12.9818    -1.1927  H       1  <O>11       0.0645
  41 H13       1.0934    -8.6416    -6.0249  H       1  <O>11       0.0625
  42 H14      -1.2564    -9.2009    -6.3109  H       1  <O>11       0.0618
  43 H15      -2.2325   -11.0434    -5.0601  H       1  <O>11       0.0618
  44 H16      -0.8481   -12.3227    -3.5258  H       1  <O>11       0.0618
  45 H17       1.4986   -11.7764    -3.2398  H       1  <O>11       0.0625
@<TRIPOS>BOND
     1     1     2    2
     2     2     3   am
     3     3     4    1
     4     4     5   am
     5     5     6    2
     6     5     7    1
     7     7     8   ar
     8     8     9   ar
     9     9    10   ar
    10    10    11   ar
    11    11    12    1
    12    12    13    2
    13    12    14    2
    14    12    15    1
    15    15    16    1
    16    16    17   ar
    17    17    18   ar
    18    18    19   ar
    19    19    20   ar
    20    20    21   ar
    21    16    21   ar
    22    11    22   ar
    23     7    22   ar
    24     2    23    1
    25    23    24   ar
    26    24    25   ar
    27    25    26   ar
    28    26    27   ar
    29    27    28   ar
    30    23    28   ar
    31     3    29    1
    32     4    30    1
    33    15    31    1
    34     8    32    1
    35     9    33    1
    36    10    34    1
    37    17    35    1
    38    18    36    1
    39    19    37    1
    40    20    38    1
    41    21    39    1
    42    22    40    1
    43    24    41    1
    44    25    42    1
    45    26    43    1
    46    27    44    1
    47    28    45    1
@<TRIPOS>MOLECULE
mol76_1_25
 45 47 0 0 0
SMALL
USER_CHARGES
****
VDW energy = 127.42
@<TRIPOS>ATOM
   1 O1        3.4420    -9.1855    -5.2979  O.2     1  <O>11      -0.2687
   2 C1        2.8552    -9.8129    -4.4288  C.2     1  <O>11       0.2601
   3 N1        3.5160   -10.1860    -3.2900  N.am    1  <O>11      -0.2301
   4 N2        2.8557   -10.8918    -2.3123  N.am    1  <O>11      -0.2301
   5 C2        1.7564   -10.3519    -1.7030  C.2     1  <O>11       0.2602
   6 O2        1.3607    -9.2426    -2.0280  O.2     1  <O>11      -0.2687
   7 C3        1.0562   -11.0997    -0.6674  C.ar    1  <O>11       0.0400
   8 C4        0.1848   -10.4420     0.2174  C.ar    1  <O>11      -0.0495
   9 C5       -0.4772   -11.1597     1.2194  C.ar    1  <O>11      -0.0592
  10 C6       -0.2799   -12.5375     1.3455  C.ar    1  <O>11      -0.0350
  11 C7        0.5814   -13.1939     0.4606  C.ar    1  <O>11       0.1092
  12 S1        0.8234   -14.9288     0.6244  S.O2    1  <O>11       0.0724
  13 O3        1.8861   -15.4521    -0.5411  O.2     1  <O>11      -0.1500
  14 O4       -0.6301   -15.7113     0.4397  O.2     1  <O>11      -0.1500
  15 N3        1.4419   -15.2601     2.1207  N.pl3   1  <O>11      -0.2163
  16 C8        1.7318   -16.6311     2.4972  C.ar    1  <O>11       0.0480
  17 C9        0.7488   -17.4191     3.1204  C.ar    1  <O>11      -0.0393
  18 C10       1.0328   -18.7373     3.4930  C.ar    1  <O>11      -0.0600
  19 C11       2.2947   -19.2825     3.2433  C.ar    1  <O>11      -0.0616
  20 C12       3.2709   -18.5002     2.6170  C.ar    1  <O>11      -0.0600
  21 C13       2.9955   -17.1856     2.2396  C.ar    1  <O>11      -0.0393
  22 C14       1.2461   -12.4866    -0.5428  C.ar    1  <O>11      -0.0229
  23 C15       1.4620   -10.1610    -4.6040  C.ar    1  <O>11       0.0382
  24 C16       0.6783    -9.4222    -5.4925  C.ar    1  <O>11      -0.0496
  25 C17      -0.6731    -9.7462    -5.6572  C.ar    1  <O>11      -0.0610
  26 C18      -1.2356   -10.8051    -4.9400  C.ar    1  <O>11      -0.0617
  27 C19      -0.4355   -11.5401    -4.0572  C.ar    1  <O>11      -0.0610
  28 C20       0.9129   -11.2267    -3.8876  C.ar    1  <O>11      -0.0496
  29 H1        4.4984    -9.9405    -3.1657  H       1  <O>11       0.1731
  30 H2        3.1862   -11.8182    -2.0415  H       1  <O>11       0.1731
  31 H3        1.6211   -14.5016     2.7775  H       1  <O>11       0.1737
  32 H4        0.0324    -9.4253     0.1276  H       1  <O>11       0.0625
  33 H5       -1.1134   -10.6699     1.8678  H       1  <O>11       0.0618
  34 H6       -0.7662   -13.0667     2.0862  H       1  <O>11       0.0637
  35 H7       -0.1865   -17.0235     3.3039  H       1  <O>11       0.0636
  36 H8        0.3076   -19.3090     3.9538  H       1  <O>11       0.0618
  37 H9        2.5051   -20.2546     3.5188  H       1  <O>11       0.0618
  38 H10       4.2043   -18.8997     2.4321  H       1  <O>11       0.0618
  39 H11       3.7209   -16.6207     1.7710  H       1  <O>11       0.0636
  40 H12       1.8764   -12.9818    -1.1927  H       1  <O>11       0.0645
  41 H13       1.0934    -8.6416    -6.0249  H       1  <O>11       0.0625
  42 H14      -1.2564    -9.2009    -6.3109  H       1  <O>11       0.0618
  43 H15      -2.2325   -11.0434    -5.0601  H       1  <O>11       0.0618
  44 H16      -0.8481   -12.3227    -3.5258  H       1  <O>11       0.0618
  45 H17       1.4986   -11.7764    -3.2398  H       1  <O>11       0.0625
@<TRIPOS>BOND
     1     1     2    2
     2     2     3   am
     3     3     4    1
     4     4     5   am
     5     5     6    2
     6     5     7    1
     7     7     8   ar
     8     8     9   ar
     9     9    10   ar
    10    10    11   ar
    11    11    12    1
    12    12    13    2
    13    12    14    2
    14    12    15    1
    15    15    16    1
    16    16    17   ar
    17    17    18   ar
    18    18    19   ar
    19    19    20   ar
    20    20    21   ar
    21    16    21   ar
    22    11    22   ar
    23     7    22   ar
    24     2    23    1
    25    23    24   ar
    26    24    25   ar
    27    25    26   ar
    28    26    27   ar
    29    27    28   ar
    30    23    28   ar
    31     3    29    1
    32     4    30    1
    33    15    31    1
    34     8    32    1
    35     9    33    1
    36    10    34    1
    37    17    35    1
    38    18    36    1
    39    19    37    1
    40    20    38    1
    41    21    39    1
    42    22    40    1
    43    24    41    1
    44    25    42    1
    45    26    43    1
    46    27    44    1
    47    28    45    1
@<TRIPOS>MOLECULE
mol76_1_26
 45 47 0 0 0
SMALL
USER_CHARGES
****
VDW energy = 132.49
@<TRIPOS>ATOM
   1 O1        3.4420    -9.1855    -5.2979  O.2     1  <O>11      -0.2687
   2 C1        2.8552    -9.8129    -4.4288  C.2     1  <O>11       0.2601
   3 N1        3.5160   -10.1860    -3.2900  N.am    1  <O>11      -0.2301
   4 N2        2.8557   -10.8918    -2.3123  N.am    1  <O>11      -0.2301
   5 C2        2.3091   -12.1121    -2.6003  C.2     1  <O>11       0.2602
   6 O2        2.4080   -12.5755    -3.7266  O.2     1  <O>11      -0.2687
   7 C3        1.6099   -12.8605    -1.5645  C.ar    1  <O>11       0.0400
   8 C4        0.7356   -13.9049    -1.9103  C.ar    1  <O>11      -0.0495
   9 C5        0.0552   -14.6142    -0.9147  C.ar    1  <O>11      -0.0592
  10 C6        0.2432   -14.2921     0.4323  C.ar    1  <O>11      -0.0350
  11 C7        1.1189   -13.2578     0.7775  C.ar    1  <O>11       0.1092
  12 S1        1.3517   -12.8592     2.4751  S.O2    1  <O>11       0.0724
  13 O3        2.3498   -13.9874     3.1769  O.2     1  <O>11      -0.1500
  14 O4       -0.1168   -12.8602     3.2514  O.2     1  <O>11      -0.1500
  15 N3        2.0407   -11.3623     2.6002  N.pl3   1  <O>11      -0.2163
  16 C8        3.3368   -11.1091     1.9991  C.ar    1  <O>11       0.0480
  17 C9        3.9306    -9.8392     2.1009  C.ar    1  <O>11      -0.0393
  18 C10       5.1753    -9.5929     1.5115  C.ar    1  <O>11      -0.0600
  19 C11       5.8404   -10.6095     0.8215  C.ar    1  <O>11      -0.0616
  20 C12       5.2523   -11.8754     0.7260  C.ar    1  <O>11      -0.0600
  21 C13       4.0126   -12.1306     1.3130  C.ar    1  <O>11      -0.0393
  22 C14       1.8027   -12.5445    -0.2087  C.ar    1  <O>11      -0.0229
  23 C15       1.4620   -10.1610    -4.6040  C.ar    1  <O>11       0.0382
  24 C16       0.4750    -9.2817    -4.1546  C.ar    1  <O>11      -0.0496
  25 C17      -0.8745    -9.6183    -4.3101  C.ar    1  <O>11      -0.0610
  26 C18      -1.2337   -10.8255    -4.9148  C.ar    1  <O>11      -0.0617
  27 C19      -0.2326   -11.6941    -5.3653  C.ar    1  <O>11      -0.0610
  28 C20       1.1151   -11.3668    -5.2172  C.ar    1  <O>11      -0.0496
  29 H1        4.4984    -9.9405    -3.1657  H       1  <O>11       0.1731
  30 H2        2.7736   -10.5047    -1.3719  H       1  <O>11       0.1731
  31 H3        1.5545   -10.6175     3.0977  H       1  <O>11       0.1737
  32 H4        0.5948   -14.1496    -2.9029  H       1  <O>11       0.0625
  33 H5       -0.5878   -15.3780    -1.1758  H       1  <O>11       0.0618
  34 H6       -0.2605   -14.8136     1.1667  H       1  <O>11       0.0637
  35 H7        3.4463    -9.0852     2.6127  H       1  <O>11       0.0636
  36 H8        5.6037    -8.6570     1.5867  H       1  <O>11       0.0618
  37 H9        6.7581   -10.4282     0.3858  H       1  <O>11       0.0618
  38 H10       5.7405   -12.6282     0.2161  H       1  <O>11       0.0618
  39 H11       3.5923   -13.0705     1.2428  H       1  <O>11       0.0636
  40 H12       2.4494   -11.7857     0.0576  H       1  <O>11       0.0645
  41 H13       0.7391    -8.3884    -3.7103  H       1  <O>11       0.0625
  42 H14      -1.6070    -8.9723    -3.9769  H       1  <O>11       0.0618
  43 H15      -2.2287   -11.0748    -5.0282  H       1  <O>11       0.0618
  44 H16      -0.4947   -12.5867    -5.8121  H       1  <O>11       0.0618
  45 H17       1.8481   -12.0089    -5.5570  H       1  <O>11       0.0625
@<TRIPOS>BOND
     1     1     2    2
     2     2     3   am
     3     3     4    1
     4     4     5   am
     5     5     6    2
     6     5     7    1
     7     7     8   ar
     8     8     9   ar
     9     9    10   ar
    10    10    11   ar
    11    11    12    1
    12    12    13    2
    13    12    14    2
    14    12    15    1
    15    15    16    1
    16    16    17   ar
    17    17    18   ar
    18    18    19   ar
    19    19    20   ar
    20    20    21   ar
    21    16    21   ar
    22    11    22   ar
    23     7    22   ar
    24     2    23    1
    25    23    24   ar
    26    24    25   ar
    27    25    26   ar
    28    26    27   ar
    29    27    28   ar
    30    23    28   ar
    31     3    29    1
    32     4    30    1
    33    15    31    1
    34     8    32    1
    35     9    33    1
    36    10    34    1
    37    17    35    1
    38    18    36    1
    39    19    37    1
    40    20    38    1
    41    21    39    1
    42    22    40    1
    43    24    41    1
    44    25    42    1
    45    26    43    1
    46    27    44    1
    47    28    45    1
@<TRIPOS>MOLECULE
mol76_1_27
 45 47 0 0 0
SMALL
USER_CHARGES
****
VDW energy = 132.94
@<TRIPOS>ATOM
   1 O1        3.4420    -9.1855    -5.2979  O.2     1  <O>11      -0.2687
   2 C1        2.8552    -9.8129    -4.4288  C.2     1  <O>11       0.2601
   3 N1        3.5160   -10.1860    -3.2900  N.am    1  <O>11      -0.2301
   4 N2        2.8557   -10.8918    -2.3123  N.am    1  <O>11      -0.2301
   5 C2        1.7564   -10.3519    -1.7030  C.2     1  <O>11       0.2602
   6 O2        1.3607    -9.2426    -2.0280  O.2     1  <O>11      -0.2687
   7 C3        1.0562   -11.0997    -0.6674  C.ar    1  <O>11       0.0400
   8 C4        0.1848   -10.4420     0.2174  C.ar    1  <O>11      -0.0495
   9 C5       -0.4772   -11.1597     1.2194  C.ar    1  <O>11      -0.0592
  10 C6       -0.2799   -12.5375     1.3455  C.ar    1  <O>11      -0.0350
  11 C7        0.5814   -13.1939     0.4606  C.ar    1  <O>11       0.1092
  12 S1        0.8234   -14.9288     0.6244  S.O2    1  <O>11       0.0724
  13 O3        1.4438   -15.2616     2.1297  O.2     1  <O>11      -0.1500
  14 O4        1.8854   -15.4529    -0.5402  O.2     1  <O>11      -0.1500
  15 N3       -0.6232   -15.7066     0.4420  N.pl3   1  <O>11      -0.2163
  16 C8       -0.6847   -17.1532     0.5373  C.ar    1  <O>11       0.0480
  17 C9       -1.9106   -17.8233     0.3830  C.ar    1  <O>11      -0.0393
  18 C10      -1.9707   -19.2172     0.4859  C.ar    1  <O>11      -0.0600
  19 C11      -0.8111   -19.9546     0.7376  C.ar    1  <O>11      -0.0616
  20 C12       0.4102   -19.2881     0.8845  C.ar    1  <O>11      -0.0600
  21 C13       0.4798   -17.8985     0.7808  C.ar    1  <O>11      -0.0393
  22 C14       1.2461   -12.4866    -0.5428  C.ar    1  <O>11      -0.0229
  23 C15       1.4620   -10.1610    -4.6040  C.ar    1  <O>11       0.0382
  24 C16       0.6783    -9.4222    -5.4925  C.ar    1  <O>11      -0.0496
  25 C17      -0.6731    -9.7462    -5.6572  C.ar    1  <O>11      -0.0610
  26 C18      -1.2356   -10.8051    -4.9400  C.ar    1  <O>11      -0.0617
  27 C19      -0.4355   -11.5401    -4.0572  C.ar    1  <O>11      -0.0610
  28 C20       0.9129   -11.2267    -3.8876  C.ar    1  <O>11      -0.0496
  29 H1        4.4984    -9.9405    -3.1657  H       1  <O>11       0.1731
  30 H2        3.1862   -11.8182    -2.0415  H       1  <O>11       0.1731
  31 H3       -1.4715   -15.1703     0.2646  H       1  <O>11       0.1737
  32 H4        0.0324    -9.4253     0.1276  H       1  <O>11       0.0625
  33 H5       -1.1134   -10.6699     1.8678  H       1  <O>11       0.0618
  34 H6       -0.7662   -13.0667     2.0862  H       1  <O>11       0.0637
  35 H7       -2.7701   -17.2847     0.1928  H       1  <O>11       0.0636
  36 H8       -2.8749   -19.7025     0.3755  H       1  <O>11       0.0618
  37 H9       -0.8549   -20.9828     0.8146  H       1  <O>11       0.0618
  38 H10       1.2684   -19.8298     1.0716  H       1  <O>11       0.0618
  39 H11       1.3876   -17.4184     0.8830  H       1  <O>11       0.0636
  40 H12       1.8764   -12.9818    -1.1927  H       1  <O>11       0.0645
  41 H13       1.0934    -8.6416    -6.0249  H       1  <O>11       0.0625
  42 H14      -1.2564    -9.2009    -6.3109  H       1  <O>11       0.0618
  43 H15      -2.2325   -11.0434    -5.0601  H       1  <O>11       0.0618
  44 H16      -0.8481   -12.3227    -3.5258  H       1  <O>11       0.0618
  45 H17       1.4986   -11.7764    -3.2398  H       1  <O>11       0.0625
@<TRIPOS>BOND
     1     1     2    2
     2     2     3   am
     3     3     4    1
     4     4     5   am
     5     5     6    2
     6     5     7    1
     7     7     8   ar
     8     8     9   ar
     9     9    10   ar
    10    10    11   ar
    11    11    12    1
    12    12    13    2
    13    12    14    2
    14    12    15    1
    15    15    16    1
    16    16    17   ar
    17    17    18   ar
    18    18    19   ar
    19    19    20   ar
    20    20    21   ar
    21    16    21   ar
    22    11    22   ar
    23     7    22   ar
    24     2    23    1
    25    23    24   ar
    26    24    25   ar
    27    25    26   ar
    28    26    27   ar
    29    27    28   ar
    30    23    28   ar
    31     3    29    1
    32     4    30    1
    33    15    31    1
    34     8    32    1
    35     9    33    1
    36    10    34    1
    37    17    35    1
    38    18    36    1
    39    19    37    1
    40    20    38    1
    41    21    39    1
    42    22    40    1
    43    24    41    1
    44    25    42    1
    45    26    43    1
    46    27    44    1
    47    28    45    1
@<TRIPOS>MOLECULE
mol76_1_28
 45 47 0 0 0
SMALL
USER_CHARGES
****
VDW energy = 133.23
@<TRIPOS>ATOM
   1 O1        3.4420    -9.1855    -5.2979  O.2     1  <O>11      -0.2687
   2 C1        2.8552    -9.8129    -4.4288  C.2     1  <O>11       0.2601
   3 N1        3.5160   -10.1860    -3.2900  N.am    1  <O>11      -0.2301
   4 N2        2.8557   -10.8918    -2.3123  N.am    1  <O>11      -0.2301
   5 C2        1.7564   -10.3519    -1.7030  C.2     1  <O>11       0.2602
   6 O2        1.3607    -9.2426    -2.0280  O.2     1  <O>11      -0.2687
   7 C3        1.0562   -11.0997    -0.6674  C.ar    1  <O>11       0.0400
   8 C4        0.1848   -10.4420     0.2174  C.ar    1  <O>11      -0.0495
   9 C5       -0.4772   -11.1597     1.2194  C.ar    1  <O>11      -0.0592
  10 C6       -0.2799   -12.5375     1.3455  C.ar    1  <O>11      -0.0350
  11 C7        0.5814   -13.1939     0.4606  C.ar    1  <O>11       0.1092
  12 S1        0.8234   -14.9288     0.6244  S.O2    1  <O>11       0.0724
  13 O3        0.6442   -15.3648     2.2180  O.2     1  <O>11      -0.1500
  14 O4        2.3520   -15.3264     0.1103  O.2     1  <O>11      -0.1500
  15 N3       -0.2931   -15.7300    -0.2934  N.pl3   1  <O>11      -0.2163
  16 C8       -0.2997   -17.1807    -0.3230  C.ar    1  <O>11       0.0480
  17 C9       -1.2452   -17.8706    -1.1012  C.ar    1  <O>11      -0.0393
  18 C10      -1.2578   -19.2694    -1.1204  C.ar    1  <O>11      -0.0600
  19 C11      -0.3265   -19.9916    -0.3700  C.ar    1  <O>11      -0.0616
  20 C12       0.6189   -19.3048     0.3993  C.ar    1  <O>11      -0.0600
  21 C13       0.6404   -17.9100     0.4223  C.ar    1  <O>11      -0.0393
  22 C14       1.2461   -12.4866    -0.5428  C.ar    1  <O>11      -0.0229
  23 C15       1.4620   -10.1610    -4.6040  C.ar    1  <O>11       0.0382
  24 C16       0.6783    -9.4222    -5.4925  C.ar    1  <O>11      -0.0496
  25 C17      -0.6731    -9.7462    -5.6572  C.ar    1  <O>11      -0.0610
  26 C18      -1.2356   -10.8051    -4.9400  C.ar    1  <O>11      -0.0617
  27 C19      -0.4355   -11.5401    -4.0572  C.ar    1  <O>11      -0.0610
  28 C20       0.9129   -11.2267    -3.8876  C.ar    1  <O>11      -0.0496
  29 H1        4.4984    -9.9405    -3.1657  H       1  <O>11       0.1731
  30 H2        3.1862   -11.8182    -2.0415  H       1  <O>11       0.1731
  31 H3       -0.9774   -15.2054    -0.8367  H       1  <O>11       0.1737
  32 H4        0.0324    -9.4253     0.1276  H       1  <O>11       0.0625
  33 H5       -1.1134   -10.6699     1.8678  H       1  <O>11       0.0618
  34 H6       -0.7662   -13.0667     2.0862  H       1  <O>11       0.0637
  35 H7       -1.9332   -17.3430    -1.6608  H       1  <O>11       0.0636
  36 H8       -1.9575   -19.7696    -1.6909  H       1  <O>11       0.0618
  37 H9       -0.3359   -21.0235    -0.3830  H       1  <O>11       0.0618
  38 H10       1.3075   -19.8353     0.9556  H       1  <O>11       0.0618
  39 H11       1.3475   -17.4142     0.9872  H       1  <O>11       0.0636
  40 H12       1.8764   -12.9818    -1.1927  H       1  <O>11       0.0645
  41 H13       1.0934    -8.6416    -6.0249  H       1  <O>11       0.0625
  42 H14      -1.2564    -9.2009    -6.3109  H       1  <O>11       0.0618
  43 H15      -2.2325   -11.0434    -5.0601  H       1  <O>11       0.0618
  44 H16      -0.8481   -12.3227    -3.5258  H       1  <O>11       0.0618
  45 H17       1.4986   -11.7764    -3.2398  H       1  <O>11       0.0625
@<TRIPOS>BOND
     1     1     2    2
     2     2     3   am
     3     3     4    1
     4     4     5   am
     5     5     6    2
     6     5     7    1
     7     7     8   ar
     8     8     9   ar
     9     9    10   ar
    10    10    11   ar
    11    11    12    1
    12    12    13    2
    13    12    14    2
    14    12    15    1
    15    15    16    1
    16    16    17   ar
    17    17    18   ar
    18    18    19   ar
    19    19    20   ar
    20    20    21   ar
    21    16    21   ar
    22    11    22   ar
    23     7    22   ar
    24     2    23    1
    25    23    24   ar
    26    24    25   ar
    27    25    26   ar
    28    26    27   ar
    29    27    28   ar
    30    23    28   ar
    31     3    29    1
    32     4    30    1
    33    15    31    1
    34     8    32    1
    35     9    33    1
    36    10    34    1
    37    17    35    1
    38    18    36    1
    39    19    37    1
    40    20    38    1
    41    21    39    1
    42    22    40    1
    43    24    41    1
    44    25    42    1
    45    26    43    1
    46    27    44    1
    47    28    45    1
@<TRIPOS>MOLECULE
mol76_1_29
 45 47 0 0 0
SMALL
USER_CHARGES
****
VDW energy = 135.18
@<TRIPOS>ATOM
   1 O1        3.4420    -9.1855    -5.2979  O.2     1  <O>11      -0.2687
   2 C1        2.8552    -9.8129    -4.4288  C.2     1  <O>11       0.2601
   3 N1        3.5160   -10.1860    -3.2900  N.am    1  <O>11      -0.2301
   4 N2        2.8557   -10.8918    -2.3123  N.am    1  <O>11      -0.2301
   5 C2        1.7564   -10.3519    -1.7030  C.2     1  <O>11       0.2602
   6 O2        1.3607    -9.2426    -2.0280  O.2     1  <O>11      -0.2687
   7 C3        1.0562   -11.0997    -0.6674  C.ar    1  <O>11       0.0400
   8 C4        0.1848   -10.4420     0.2174  C.ar    1  <O>11      -0.0495
   9 C5       -0.4772   -11.1597     1.2194  C.ar    1  <O>11      -0.0592
  10 C6       -0.2799   -12.5375     1.3455  C.ar    1  <O>11      -0.0350
  11 C7        0.5814   -13.1939     0.4606  C.ar    1  <O>11       0.1092
  12 S1        0.8234   -14.9288     0.6244  S.O2    1  <O>11       0.0724
  13 O3       -0.4900   -15.7325    -0.0006  O.2     1  <O>11      -0.1500
  14 O4        0.9959   -15.3154     2.2307  O.2     1  <O>11      -0.1500
  15 N3        2.1844   -15.3756    -0.1996  N.pl3   1  <O>11      -0.2163
  16 C8        2.2752   -15.1417    -1.6288  C.ar    1  <O>11       0.0480
  17 C9        3.4287   -15.5189    -2.3379  C.ar    1  <O>11      -0.0393
  18 C10       3.5197   -15.2830    -3.7139  C.ar    1  <O>11      -0.0600
  19 C11       2.4619   -14.6754    -4.3950  C.ar    1  <O>11      -0.0616
  20 C12       1.3112   -14.3062    -3.6902  C.ar    1  <O>11      -0.0600
  21 C13       1.2107   -14.5400    -2.3185  C.ar    1  <O>11      -0.0393
  22 C14       1.2461   -12.4866    -0.5428  C.ar    1  <O>11      -0.0229
  23 C15       1.4620   -10.1610    -4.6040  C.ar    1  <O>11       0.0382
  24 C16       0.4750    -9.2817    -4.1546  C.ar    1  <O>11      -0.0496
  25 C17      -0.8745    -9.6183    -4.3101  C.ar    1  <O>11      -0.0610
  26 C18      -1.2337   -10.8255    -4.9148  C.ar    1  <O>11      -0.0617
  27 C19      -0.2326   -11.6941    -5.3653  C.ar    1  <O>11      -0.0610
  28 C20       1.1151   -11.3668    -5.2172  C.ar    1  <O>11      -0.0496
  29 H1        4.4984    -9.9405    -3.1657  H       1  <O>11       0.1731
  30 H2        3.1862   -11.8182    -2.0415  H       1  <O>11       0.1731
  31 H3        2.9598   -15.8133     0.2962  H       1  <O>11       0.1737
  32 H4        0.0324    -9.4253     0.1276  H       1  <O>11       0.0625
  33 H5       -1.1134   -10.6699     1.8678  H       1  <O>11       0.0618
  34 H6       -0.7662   -13.0667     2.0862  H       1  <O>11       0.0637
  35 H7        4.2118   -15.9718    -1.8414  H       1  <O>11       0.0636
  36 H8        4.3712   -15.5589    -4.2277  H       1  <O>11       0.0618
  37 H9        2.5289   -14.5003    -5.4098  H       1  <O>11       0.0618
  38 H10       0.5285   -13.8561    -4.1902  H       1  <O>11       0.0618
  39 H11       0.3537   -14.2705    -1.8106  H       1  <O>11       0.0636
  40 H12       1.8764   -12.9818    -1.1927  H       1  <O>11       0.0645
  41 H13       0.7391    -8.3884    -3.7103  H       1  <O>11       0.0625
  42 H14      -1.6070    -8.9723    -3.9769  H       1  <O>11       0.0618
  43 H15      -2.2287   -11.0748    -5.0282  H       1  <O>11       0.0618
  44 H16      -0.4947   -12.5867    -5.8121  H       1  <O>11       0.0618
  45 H17       1.8481   -12.0089    -5.5570  H       1  <O>11       0.0625
@<TRIPOS>BOND
     1     1     2    2
     2     2     3   am
     3     3     4    1
     4     4     5   am
     5     5     6    2
     6     5     7    1
     7     7     8   ar
     8     8     9   ar
     9     9    10   ar
    10    10    11   ar
    11    11    12    1
    12    12    13    2
    13    12    14    2
    14    12    15    1
    15    15    16    1
    16    16    17   ar
    17    17    18   ar
    18    18    19   ar
    19    19    20   ar
    20    20    21   ar
    21    16    21   ar
    22    11    22   ar
    23     7    22   ar
    24     2    23    1
    25    23    24   ar
    26    24    25   ar
    27    25    26   ar
    28    26    27   ar
    29    27    28   ar
    30    23    28   ar
    31     3    29    1
    32     4    30    1
    33    15    31    1
    34     8    32    1
    35     9    33    1
    36    10    34    1
    37    17    35    1
    38    18    36    1
    39    19    37    1
    40    20    38    1
    41    21    39    1
    42    22    40    1
    43    24    41    1
    44    25    42    1
    45    26    43    1
    46    27    44    1
    47    28    45    1
@<TRIPOS>MOLECULE
mol76_1_30
 45 47 0 0 0
SMALL
USER_CHARGES
****
VDW energy = 135.28
@<TRIPOS>ATOM
   1 O1        3.4420    -9.1855    -5.2979  O.2     1  <O>11      -0.2687
   2 C1        2.8552    -9.8129    -4.4288  C.2     1  <O>11       0.2601
   3 N1        3.5160   -10.1860    -3.2900  N.am    1  <O>11      -0.2301
   4 N2        2.8557   -10.8918    -2.3123  N.am    1  <O>11      -0.2301
   5 C2        1.7564   -10.3519    -1.7030  C.2     1  <O>11       0.2602
   6 O2        1.3607    -9.2426    -2.0280  O.2     1  <O>11      -0.2687
   7 C3        1.0562   -11.0997    -0.6674  C.ar    1  <O>11       0.0400
   8 C4        0.8659   -12.4858    -0.7977  C.ar    1  <O>11      -0.0495
   9 C5        0.1820   -13.2003     0.1918  C.ar    1  <O>11      -0.0592
  10 C6       -0.3137   -12.5411     1.3201  C.ar    1  <O>11      -0.0350
  11 C7       -0.1182   -11.1628     1.4541  C.ar    1  <O>11       0.1092
  12 S1       -0.7435   -10.3403     2.8780  S.O2    1  <O>11       0.0724
  13 O3       -2.1031   -11.1275     3.4198  O.2     1  <O>11      -0.1500
  14 O4       -1.1302    -8.7727     2.4877  O.2     1  <O>11      -0.1500
  15 N3        0.4049   -10.3455     4.0663  N.pl3   1  <O>11      -0.2163
  16 C8        0.1243    -9.7246     5.3474  C.ar    1  <O>11       0.0480
  17 C9        1.0953    -9.7239     6.3637  C.ar    1  <O>11      -0.0393
  18 C10       0.8199    -9.1345     7.6023  C.ar    1  <O>11      -0.0600
  19 C11      -0.4211    -8.5371     7.8366  C.ar    1  <O>11      -0.0616
  20 C12      -1.3850    -8.5319     6.8226  C.ar    1  <O>11      -0.0600
  21 C13      -1.1180    -9.1149     5.5836  C.ar    1  <O>11      -0.0393
  22 C14       0.5634   -10.4413     0.4723  C.ar    1  <O>11      -0.0229
  23 C15       1.4620   -10.1610    -4.6040  C.ar    1  <O>11       0.0382
  24 C16       0.6783    -9.4222    -5.4925  C.ar    1  <O>11      -0.0496
  25 C17      -0.6731    -9.7462    -5.6572  C.ar    1  <O>11      -0.0610
  26 C18      -1.2356   -10.8051    -4.9400  C.ar    1  <O>11      -0.0617
  27 C19      -0.4355   -11.5401    -4.0572  C.ar    1  <O>11      -0.0610
  28 C20       0.9129   -11.2267    -3.8876  C.ar    1  <O>11      -0.0496
  29 H1        4.4984    -9.9405    -3.1657  H       1  <O>11       0.1731
  30 H2        3.1862   -11.8182    -2.0415  H       1  <O>11       0.1731
  31 H3        1.3086   -10.7863     3.8998  H       1  <O>11       0.1737
  32 H4        1.2322   -12.9789    -1.6270  H       1  <O>11       0.0625
  33 H5        0.0430   -14.2176     0.0882  H       1  <O>11       0.0618
  34 H6       -0.8204   -13.0675     2.0490  H       1  <O>11       0.0637
  35 H7        2.0153   -10.1599     6.1955  H       1  <O>11       0.0636
  36 H8        1.5359    -9.1411     8.3455  H       1  <O>11       0.0618
  37 H9       -0.6252    -8.1030     8.7504  H       1  <O>11       0.0618
  38 H10      -2.3031    -8.0923     6.9929  H       1  <O>11       0.0618
  39 H11      -1.8339    -9.0980     4.8405  H       1  <O>11       0.0636
  40 H12       0.7053    -9.4252     0.5833  H       1  <O>11       0.0645
  41 H13       1.0934    -8.6416    -6.0249  H       1  <O>11       0.0625
  42 H14      -1.2564    -9.2009    -6.3109  H       1  <O>11       0.0618
  43 H15      -2.2325   -11.0434    -5.0601  H       1  <O>11       0.0618
  44 H16      -0.8481   -12.3227    -3.5258  H       1  <O>11       0.0618
  45 H17       1.4986   -11.7764    -3.2398  H       1  <O>11       0.0625
@<TRIPOS>BOND
     1     1     2    2
     2     2     3   am
     3     3     4    1
     4     4     5   am
     5     5     6    2
     6     5     7    1
     7     7     8   ar
     8     8     9   ar
     9     9    10   ar
    10    10    11   ar
    11    11    12    1
    12    12    13    2
    13    12    14    2
    14    12    15    1
    15    15    16    1
    16    16    17   ar
    17    17    18   ar
    18    18    19   ar
    19    19    20   ar
    20    20    21   ar
    21    16    21   ar
    22    11    22   ar
    23     7    22   ar
    24     2    23    1
    25    23    24   ar
    26    24    25   ar
    27    25    26   ar
    28    26    27   ar
    29    27    28   ar
    30    23    28   ar
    31     3    29    1
    32     4    30    1
    33    15    31    1
    34     8    32    1
    35     9    33    1
    36    10    34    1
    37    17    35    1
    38    18    36    1
    39    19    37    1
    40    20    38    1
    41    21    39    1
    42    22    40    1
    43    24    41    1
    44    25    42    1
    45    26    43    1
    46    27    44    1
    47    28    45    1
@<TRIPOS>MOLECULE
mol76_2_1
 45 47 0 0 0
SMALL
USER_CHARGES
****
VDW energy = 82.57
@<TRIPOS>ATOM
   1 O1        0.9439    -9.6922    -5.8421  O.2     1  <O>11      -0.2687
   2 C1        1.5306    -9.0649    -6.7113  C.2     1  <O>11       0.2601
   3 N1        2.8490    -8.7350    -6.5460  N.am    1  <O>11      -0.2301
   4 N2        3.5130    -9.1100    -5.4030  N.am    1  <O>11      -0.2301
   5 C2        4.8320    -8.7800    -5.2390  C.2     1  <O>11       0.2602
   6 O2        5.4170    -8.1520    -6.1090  O.2     1  <O>11      -0.2687
   7 C3        5.5330    -9.1740    -4.0370  C.ar    1  <O>11       0.0400
   8 C4        6.1922   -10.4040    -4.0009  C.ar    1  <O>11      -0.0495
   9 C5        6.8619   -10.7974    -2.8380  C.ar    1  <O>11      -0.0592
  10 C6        6.8762    -9.9618    -1.7175  C.ar    1  <O>11      -0.0350
  11 C7        6.2172    -8.7277    -1.7698  C.ar    1  <O>11       0.1092
  12 S1        6.2393    -7.6794    -0.3583  S.O2    1  <O>11       0.0724
  13 O3        7.7830    -7.5975     0.2475  O.2     1  <O>11      -0.1500
  14 O4        5.2218    -8.2928     0.8043  O.2     1  <O>11      -0.1500
  15 N3        5.7345    -6.1667    -0.7889  N.pl3   1  <O>11      -0.2163
  16 C8        5.6635    -5.1142     0.2103  C.ar    1  <O>11       0.0480
  17 C9        4.7445    -5.2046     1.2694  C.ar    1  <O>11      -0.0393
  18 C10       4.6682    -4.1844     2.2229  C.ar    1  <O>11      -0.0600
  19 C11       5.5049    -3.0699     2.1313  C.ar    1  <O>11      -0.0616
  20 C12       6.4233    -2.9833     1.0806  C.ar    1  <O>11      -0.0600
  21 C13       6.5101    -3.9962     0.1247  C.ar    1  <O>11      -0.0393
  22 C14       5.5481    -8.3272    -2.9272  C.ar    1  <O>11      -0.0229
  23 C15       0.8270    -8.6680    -7.9240  C.ar    1  <O>11       0.0382
  24 C16       0.8118    -9.5159    -9.0441  C.ar    1  <O>11      -0.0496
  25 C17       0.1451    -9.1290   -10.2123  C.ar    1  <O>11      -0.0610
  26 C18      -0.5129    -7.8981   -10.2719  C.ar    1  <O>11      -0.0617
  27 C19      -0.5038    -7.0569    -9.1532  C.ar    1  <O>11      -0.0610
  28 C20       0.1578    -7.4348    -7.9835  C.ar    1  <O>11      -0.0496
  29 H1        3.3390    -8.2120    -7.2710  H       1  <O>11       0.1731
  30 H2        3.0250    -9.6340    -4.6770  H       1  <O>11       0.1731
  31 H3        5.4704    -5.9730    -1.7532  H       1  <O>11       0.1737
  32 H4        6.1854   -11.0202    -4.8287  H       1  <O>11       0.0625
  33 H5        7.3472   -11.7077    -2.8070  H       1  <O>11       0.0618
  34 H6        7.3686   -10.2523    -0.8583  H       1  <O>11       0.0637
  35 H7        4.1242    -6.0259     1.3439  H       1  <O>11       0.0636
  36 H8        3.9904    -4.2553     2.9979  H       1  <O>11       0.0618
  37 H9        5.4458    -2.3161     2.8337  H       1  <O>11       0.0618
  38 H10       7.0436    -2.1615     1.0113  H       1  <O>11       0.0618
  39 H11       7.1951    -3.9242    -0.6439  H       1  <O>11       0.0636
  40 H12       5.0690    -7.4138    -2.9623  H       1  <O>11       0.0645
  41 H13       1.2941   -10.4275    -9.0053  H       1  <O>11       0.0625
  42 H14       0.1396    -9.7553   -11.0325  H       1  <O>11       0.0618
  43 H15      -1.0020    -7.6113   -11.1341  H       1  <O>11       0.0618
  44 H16      -0.9910    -6.1480    -9.1935  H       1  <O>11       0.0618
  45 H17       0.1551    -6.8087    -7.1633  H       1  <O>11       0.0625
@<TRIPOS>BOND
     1     1     2    2
     2     2     3   am
     3     3     4    1
     4     4     5   am
     5     5     6    2
     6     5     7    1
     7     7     8   ar
     8     8     9   ar
     9     9    10   ar
    10    10    11   ar
    11    11    12    1
    12    12    13    2
    13    12    14    2
    14    12    15    1
    15    15    16    1
    16    16    17   ar
    17    17    18   ar
    18    18    19   ar
    19    19    20   ar
    20    20    21   ar
    21    16    21   ar
    22    11    22   ar
    23     7    22   ar
    24     2    23    1
    25    23    24   ar
    26    24    25   ar
    27    25    26   ar
    28    26    27   ar
    29    27    28   ar
    30    23    28   ar
    31     3    29    1
    32     4    30    1
    33    15    31    1
    34     8    32    1
    35     9    33    1
    36    10    34    1
    37    17    35    1
    38    18    36    1
    39    19    37    1
    40    20    38    1
    41    21    39    1
    42    22    40    1
    43    24    41    1
    44    25    42    1
    45    26    43    1
    46    27    44    1
    47    28    45    1
@<TRIPOS>MOLECULE
mol76_2_2
 45 47 0 0 0
SMALL
USER_CHARGES
****
VDW energy = 83.79
@<TRIPOS>ATOM
   1 O1        0.9439    -9.6922    -5.8421  O.2     1  <O>11      -0.2687
   2 C1        1.5306    -9.0649    -6.7113  C.2     1  <O>11       0.2601
   3 N1        2.8490    -8.7350    -6.5460  N.am    1  <O>11      -0.2301
   4 N2        3.5086    -8.0297    -7.5235  N.am    1  <O>11      -0.2301
   5 C2        4.8272    -7.6997    -7.3568  C.2     1  <O>11       0.2602
   6 O2        5.4161    -8.0332    -6.3392  O.2     1  <O>11      -0.2687
   7 C3        5.5233    -6.9571    -8.3842  C.ar    1  <O>11       0.0400
   8 C4        6.6469    -6.2028    -8.0414  C.ar    1  <O>11      -0.0495
   9 C5        7.3181    -5.4722    -9.0270  C.ar    1  <O>11      -0.0592
  10 C6        6.8700    -5.4999   -10.3508  C.ar    1  <O>11      -0.0350
  11 C7        5.7463    -6.2663   -10.6821  C.ar    1  <O>11       0.1092
  12 S1        5.1875    -6.2991   -12.3490  S.O2    1  <O>11       0.0724
  13 O3        3.8509    -7.2771   -12.4665  O.2     1  <O>11      -0.1500
  14 O4        6.3934    -6.8926   -13.3269  O.2     1  <O>11      -0.1500
  15 N3        4.7945    -4.7677   -12.8274  N.pl3   1  <O>11      -0.2163
  16 C8        3.7588    -4.0312   -12.1231  C.ar    1  <O>11       0.0480
  17 C9        4.0895    -3.2217   -11.0232  C.ar    1  <O>11      -0.0393
  18 C10       3.0898    -2.5240   -10.3380  C.ar    1  <O>11      -0.0600
  19 C11       1.7567    -2.6245   -10.7421  C.ar    1  <O>11      -0.0616
  20 C12       1.4290    -3.4254   -11.8403  C.ar    1  <O>11      -0.0600
  21 C13       2.4183    -4.1244   -12.5332  C.ar    1  <O>11      -0.0393
  22 C14       5.0721    -6.9995    -9.7046  C.ar    1  <O>11      -0.0229
  23 C15       0.8270    -8.6680    -7.9240  C.ar    1  <O>11       0.0382
  24 C16       0.8118    -9.5159    -9.0441  C.ar    1  <O>11      -0.0496
  25 C17       0.1451    -9.1290   -10.2123  C.ar    1  <O>11      -0.0610
  26 C18      -0.5129    -7.8981   -10.2719  C.ar    1  <O>11      -0.0617
  27 C19      -0.5038    -7.0569    -9.1532  C.ar    1  <O>11      -0.0610
  28 C20       0.1578    -7.4348    -7.9835  C.ar    1  <O>11      -0.0496
  29 H1        3.3417    -9.0114    -5.6974  H       1  <O>11       0.1731
  30 H2        3.0173    -7.7515    -8.3727  H       1  <O>11       0.1731
  31 H3        5.2758    -4.3416   -13.6173  H       1  <O>11       0.1737
  32 H4        6.9807    -6.1845    -7.0651  H       1  <O>11       0.0625
  33 H5        8.1469    -4.9109    -8.7761  H       1  <O>11       0.0618
  34 H6        7.3637    -4.9595   -11.0783  H       1  <O>11       0.0637
  35 H7        5.0728    -3.1419   -10.7201  H       1  <O>11       0.0636
  36 H8        3.3383    -1.9320    -9.5300  H       1  <O>11       0.0618
  37 H9        1.0193    -2.1116   -10.2340  H       1  <O>11       0.0618
  38 H10       0.4449    -3.5004   -12.1418  H       1  <O>11       0.0618
  39 H11       2.1656    -4.7088   -13.3454  H       1  <O>11       0.0636
  40 H12       4.2478    -7.5676    -9.9554  H       1  <O>11       0.0645
  41 H13       1.2941   -10.4275    -9.0053  H       1  <O>11       0.0625
  42 H14       0.1396    -9.7553   -11.0325  H       1  <O>11       0.0618
  43 H15      -1.0020    -7.6113   -11.1341  H       1  <O>11       0.0618
  44 H16      -0.9910    -6.1480    -9.1935  H       1  <O>11       0.0618
  45 H17       0.1551    -6.8087    -7.1633  H       1  <O>11       0.0625
@<TRIPOS>BOND
     1     1     2    2
     2     2     3   am
     3     3     4    1
     4     4     5   am
     5     5     6    2
     6     5     7    1
     7     7     8   ar
     8     8     9   ar
     9     9    10   ar
    10    10    11   ar
    11    11    12    1
    12    12    13    2
    13    12    14    2
    14    12    15    1
    15    15    16    1
    16    16    17   ar
    17    17    18   ar
    18    18    19   ar
    19    19    20   ar
    20    20    21   ar
    21    16    21   ar
    22    11    22   ar
    23     7    22   ar
    24     2    23    1
    25    23    24   ar
    26    24    25   ar
    27    25    26   ar
    28    26    27   ar
    29    27    28   ar
    30    23    28   ar
    31     3    29    1
    32     4    30    1
    33    15    31    1
    34     8    32    1
    35     9    33    1
    36    10    34    1
    37    17    35    1
    38    18    36    1
    39    19    37    1
    40    20    38    1
    41    21    39    1
    42    22    40    1
    43    24    41    1
    44    25    42    1
    45    26    43    1
    46    27    44    1
    47    28    45    1
@<TRIPOS>MOLECULE
mol76_2_3
 45 47 0 0 0
SMALL
USER_CHARGES
****
VDW energy = 86.58
@<TRIPOS>ATOM
   1 O1        0.9439    -9.6922    -5.8421  O.2     1  <O>11      -0.2687
   2 C1        1.5306    -9.0649    -6.7113  C.2     1  <O>11       0.2601
   3 N1        2.8490    -8.7350    -6.5460  N.am    1  <O>11      -0.2301
   4 N2        3.5086    -8.0297    -7.5235  N.am    1  <O>11      -0.2301
   5 C2        4.8272    -7.6997    -7.3568  C.2     1  <O>11       0.2602
   6 O2        5.4161    -8.0332    -6.3392  O.2     1  <O>11      -0.2687
   7 C3        5.5233    -6.9571    -8.3842  C.ar    1  <O>11       0.0400
   8 C4        4.8625    -5.9214    -9.0470  C.ar    1  <O>11      -0.0495
   9 C5        5.5248    -5.2068   -10.0501  C.ar    1  <O>11      -0.0592
  10 C6        6.8444    -5.5237   -10.3854  C.ar    1  <O>11      -0.0350
  11 C7        7.4977    -6.5599    -9.7076  C.ar    1  <O>11       0.1092
  12 S1        9.1580    -6.9539   -10.1319  S.O2    1  <O>11       0.0724
  13 O3       10.0466    -5.5563   -10.2504  O.2     1  <O>11      -0.1500
  14 O4        9.1839    -7.7498   -11.5910  O.2     1  <O>11      -0.1500
  15 N3        9.8086    -7.9241    -8.9640  N.pl3   1  <O>11      -0.2163
  16 C8       11.1792    -8.3898    -9.0889  C.ar    1  <O>11       0.0480
  17 C9       11.5371    -9.2666   -10.1270  C.ar    1  <O>11      -0.0393
  18 C10      12.8538    -9.7244   -10.2380  C.ar    1  <O>11      -0.0600
  19 C11      13.8229    -9.3129    -9.3203  C.ar    1  <O>11      -0.0616
  20 C12      13.4676    -8.4358    -8.2911  C.ar    1  <O>11      -0.0600
  21 C13      12.1574    -7.9704    -8.1717  C.ar    1  <O>11      -0.0393
  22 C14       6.8441    -7.2767    -8.7042  C.ar    1  <O>11      -0.0229
  23 C15       0.8270    -8.6680    -7.9240  C.ar    1  <O>11       0.0382
  24 C16       0.8118    -9.5159    -9.0441  C.ar    1  <O>11      -0.0496
  25 C17       0.1451    -9.1290   -10.2123  C.ar    1  <O>11      -0.0610
  26 C18      -0.5129    -7.8981   -10.2719  C.ar    1  <O>11      -0.0617
  27 C19      -0.5038    -7.0569    -9.1532  C.ar    1  <O>11      -0.0610
  28 C20       0.1578    -7.4348    -7.9835  C.ar    1  <O>11      -0.0496
  29 H1        3.3417    -9.0114    -5.6974  H       1  <O>11       0.1731
  30 H2        3.0173    -7.7515    -8.3727  H       1  <O>11       0.1731
  31 H3        9.2483    -8.1980    -8.1589  H       1  <O>11       0.1737
  32 H4        3.8895    -5.6842    -8.7979  H       1  <O>11       0.0625
  33 H5        5.0379    -4.4429   -10.5444  H       1  <O>11       0.0618
  34 H6        7.3332    -4.9980   -11.1269  H       1  <O>11       0.0637
  35 H7       10.8263    -9.5736   -10.8093  H       1  <O>11       0.0636
  36 H8       13.1107   -10.3694   -11.0016  H       1  <O>11       0.0618
  37 H9       14.7936    -9.6537    -9.4012  H       1  <O>11       0.0618
  38 H10      14.1820    -8.1292    -7.6124  H       1  <O>11       0.0618
  39 H11      11.9074    -7.3194    -7.4110  H       1  <O>11       0.0636
  40 H12       7.3324    -8.0356    -8.2037  H       1  <O>11       0.0645
  41 H13       1.2941   -10.4275    -9.0053  H       1  <O>11       0.0625
  42 H14       0.1396    -9.7553   -11.0325  H       1  <O>11       0.0618
  43 H15      -1.0020    -7.6113   -11.1341  H       1  <O>11       0.0618
  44 H16      -0.9910    -6.1480    -9.1935  H       1  <O>11       0.0618
  45 H17       0.1551    -6.8087    -7.1633  H       1  <O>11       0.0625
@<TRIPOS>BOND
     1     1     2    2
     2     2     3   am
     3     3     4    1
     4     4     5   am
     5     5     6    2
     6     5     7    1
     7     7     8   ar
     8     8     9   ar
     9     9    10   ar
    10    10    11   ar
    11    11    12    1
    12    12    13    2
    13    12    14    2
    14    12    15    1
    15    15    16    1
    16    16    17   ar
    17    17    18   ar
    18    18    19   ar
    19    19    20   ar
    20    20    21   ar
    21    16    21   ar
    22    11    22   ar
    23     7    22   ar
    24     2    23    1
    25    23    24   ar
    26    24    25   ar
    27    25    26   ar
    28    26    27   ar
    29    27    28   ar
    30    23    28   ar
    31     3    29    1
    32     4    30    1
    33    15    31    1
    34     8    32    1
    35     9    33    1
    36    10    34    1
    37    17    35    1
    38    18    36    1
    39    19    37    1
    40    20    38    1
    41    21    39    1
    42    22    40    1
    43    24    41    1
    44    25    42    1
    45    26    43    1
    46    27    44    1
    47    28    45    1
@<TRIPOS>MOLECULE
mol76_2_4
 45 47 0 0 0
SMALL
USER_CHARGES
****
VDW energy = 88.68
@<TRIPOS>ATOM
   1 O1        0.9439    -9.6922    -5.8421  O.2     1  <O>11      -0.2687
   2 C1        1.5306    -9.0649    -6.7113  C.2     1  <O>11       0.2601
   3 N1        2.8490    -8.7350    -6.5460  N.am    1  <O>11      -0.2301
   4 N2        3.5130    -9.1100    -5.4030  N.am    1  <O>11      -0.2301
   5 C2        4.8320    -8.7800    -5.2390  C.2     1  <O>11       0.2602
   6 O2        5.4170    -8.1520    -6.1090  O.2     1  <O>11      -0.2687
   7 C3        5.5330    -9.1740    -4.0370  C.ar    1  <O>11       0.0400
   8 C4        6.9231    -9.2991    -4.0650  C.ar    1  <O>11      -0.0495
   9 C5        7.6069    -9.6916    -2.9100  C.ar    1  <O>11      -0.0592
  10 C6        6.9036    -9.9532    -1.7306  C.ar    1  <O>11      -0.0350
  11 C7        5.5104    -9.8167    -1.7145  C.ar    1  <O>11       0.1092
  12 S1        4.6302   -10.1454    -0.2282  S.O2    1  <O>11       0.0724
  13 O3        5.3977    -9.4069     1.0455  O.2     1  <O>11      -0.1500
  14 O4        4.5783   -11.7859     0.0347  O.2     1  <O>11      -0.1500
  15 N3        3.0912    -9.5600    -0.3596  N.pl3   1  <O>11      -0.2163
  16 C8        2.1607    -9.7120     0.7460  C.ar    1  <O>11       0.0480
  17 C9        1.7251   -10.9904     1.1338  C.ar    1  <O>11      -0.0393
  18 C10       0.8193   -11.1342     2.1895  C.ar    1  <O>11      -0.0600
  19 C11       0.3424   -10.0100     2.8672  C.ar    1  <O>11      -0.0616
  20 C12       0.7808    -8.7386     2.4848  C.ar    1  <O>11      -0.0600
  21 C13       1.6863    -8.5829     1.4345  C.ar    1  <O>11      -0.0393
  22 C14       4.8208    -9.4238    -2.8625  C.ar    1  <O>11      -0.0229
  23 C15       0.8270    -8.6680    -7.9240  C.ar    1  <O>11       0.0382
  24 C16       0.8118    -9.5159    -9.0441  C.ar    1  <O>11      -0.0496
  25 C17       0.1451    -9.1290   -10.2123  C.ar    1  <O>11      -0.0610
  26 C18      -0.5129    -7.8981   -10.2719  C.ar    1  <O>11      -0.0617
  27 C19      -0.5038    -7.0569    -9.1532  C.ar    1  <O>11      -0.0610
  28 C20       0.1578    -7.4348    -7.9835  C.ar    1  <O>11      -0.0496
  29 H1        3.3390    -8.2120    -7.2710  H       1  <O>11       0.1731
  30 H2        3.0250    -9.6340    -4.6770  H       1  <O>11       0.1731
  31 H3        2.7941    -9.0958    -1.2160  H       1  <O>11       0.1737
  32 H4        7.4438    -9.1029    -4.9341  H       1  <O>11       0.0625
  33 H5        8.6342    -9.7884    -2.9284  H       1  <O>11       0.0618
  34 H6        7.4074   -10.2447    -0.8784  H       1  <O>11       0.0637
  35 H7        2.0745   -11.8255     0.6382  H       1  <O>11       0.0636
  36 H8        0.5017   -12.0755     2.4692  H       1  <O>11       0.0618
  37 H9       -0.3283   -10.1169     3.6441  H       1  <O>11       0.0618
  38 H10       0.4310    -7.9063     2.9847  H       1  <O>11       0.0618
  39 H11       2.0069    -7.6400     1.1638  H       1  <O>11       0.0636
  40 H12       3.7943    -9.3190    -2.8434  H       1  <O>11       0.0645
  41 H13       1.2941   -10.4275    -9.0053  H       1  <O>11       0.0625
  42 H14       0.1396    -9.7553   -11.0325  H       1  <O>11       0.0618
  43 H15      -1.0020    -7.6113   -11.1341  H       1  <O>11       0.0618
  44 H16      -0.9910    -6.1480    -9.1935  H       1  <O>11       0.0618
  45 H17       0.1551    -6.8087    -7.1633  H       1  <O>11       0.0625
@<TRIPOS>BOND
     1     1     2    2
     2     2     3   am
     3     3     4    1
     4     4     5   am
     5     5     6    2
     6     5     7    1
     7     7     8   ar
     8     8     9   ar
     9     9    10   ar
    10    10    11   ar
    11    11    12    1
    12    12    13    2
    13    12    14    2
    14    12    15    1
    15    15    16    1
    16    16    17   ar
    17    17    18   ar
    18    18    19   ar
    19    19    20   ar
    20    20    21   ar
    21    16    21   ar
    22    11    22   ar
    23     7    22   ar
    24     2    23    1
    25    23    24   ar
    26    24    25   ar
    27    25    26   ar
    28    26    27   ar
    29    27    28   ar
    30    23    28   ar
    31     3    29    1
    32     4    30    1
    33    15    31    1
    34     8    32    1
    35     9    33    1
    36    10    34    1
    37    17    35    1
    38    18    36    1
    39    19    37    1
    40    20    38    1
    41    21    39    1
    42    22    40    1
    43    24    41    1
    44    25    42    1
    45    26    43    1
    46    27    44    1
    47    28    45    1
@<TRIPOS>MOLECULE
mol76_2_5
 45 47 0 0 0
SMALL
USER_CHARGES
****
VDW energy = 89.97
@<TRIPOS>ATOM
   1 O1        0.9439    -9.6922    -5.8421  O.2     1  <O>11      -0.2687
   2 C1        1.5306    -9.0649    -6.7113  C.2     1  <O>11       0.2601
   3 N1        2.8490    -8.7350    -6.5460  N.am    1  <O>11      -0.2301
   4 N2        3.5130    -9.1100    -5.4030  N.am    1  <O>11      -0.2301
   5 C2        4.8320    -8.7800    -5.2390  C.2     1  <O>11       0.2602
   6 O2        5.4170    -8.1520    -6.1090  O.2     1  <O>11      -0.2687
   7 C3        5.5330    -9.1740    -4.0370  C.ar    1  <O>11       0.0400
   8 C4        4.8768    -9.1021    -2.8070  C.ar    1  <O>11      -0.0495
   9 C5        5.5519    -9.4697    -1.6388  C.ar    1  <O>11      -0.0592
  10 C6        6.8765    -9.9119    -1.7013  C.ar    1  <O>11      -0.0350
  11 C7        7.5203    -9.9862    -2.9423  C.ar    1  <O>11       0.1092
  12 S1        9.1860   -10.5445    -3.0160  S.O2    1  <O>11       0.0724
  13 O3        9.9686   -10.1420    -1.6080  O.2     1  <O>11      -0.1500
  14 O4        9.9563    -9.8243    -4.3009  O.2     1  <O>11      -0.1500
  15 N3        9.2081   -12.1848    -3.2101  N.pl3   1  <O>11      -0.2163
  16 C8       10.4768   -12.8871    -3.3011  C.ar    1  <O>11       0.0480
  17 C9       10.5032   -14.2825    -3.4647  C.ar    1  <O>11      -0.0393
  18 C10      11.7251   -14.9587    -3.5388  C.ar    1  <O>11      -0.0600
  19 C11      12.9274   -14.2532    -3.4528  C.ar    1  <O>11      -0.0616
  20 C12      12.9006   -12.8641    -3.2961  C.ar    1  <O>11      -0.0600
  21 C13      11.6874   -12.1784    -3.2233  C.ar    1  <O>11      -0.0393
  22 C14       6.8528    -9.6227    -4.1128  C.ar    1  <O>11      -0.0229
  23 C15       0.8270    -8.6680    -7.9240  C.ar    1  <O>11       0.0382
  24 C16       0.8118    -9.5159    -9.0441  C.ar    1  <O>11      -0.0496
  25 C17       0.1451    -9.1290   -10.2123  C.ar    1  <O>11      -0.0610
  26 C18      -0.5129    -7.8981   -10.2719  C.ar    1  <O>11      -0.0617
  27 C19      -0.5038    -7.0569    -9.1532  C.ar    1  <O>11      -0.0610
  28 C20       0.1578    -7.4348    -7.9835  C.ar    1  <O>11      -0.0496
  29 H1        3.3390    -8.2120    -7.2710  H       1  <O>11       0.1731
  30 H2        3.0250    -9.6340    -4.6770  H       1  <O>11       0.1731
  31 H3        8.3332   -12.7026    -3.2690  H       1  <O>11       0.1737
  32 H4        3.8977    -8.7791    -2.7599  H       1  <O>11       0.0625
  33 H5        5.0707    -9.4143    -0.7275  H       1  <O>11       0.0618
  34 H6        7.3760   -10.1815    -0.8394  H       1  <O>11       0.0637
  35 H7        9.6184   -14.8098    -3.5303  H       1  <O>11       0.0636
  36 H8       11.7384   -15.9838    -3.6576  H       1  <O>11       0.0618
  37 H9       13.8285   -14.7535    -3.5046  H       1  <O>11       0.0618
  38 H10      13.7875   -12.3403    -3.2335  H       1  <O>11       0.0618
  39 H11      11.6795   -11.1524    -3.1124  H       1  <O>11       0.0636
  40 H12       7.3303    -9.6851    -5.0256  H       1  <O>11       0.0645
  41 H13       1.2941   -10.4275    -9.0053  H       1  <O>11       0.0625
  42 H14       0.1396    -9.7553   -11.0325  H       1  <O>11       0.0618
  43 H15      -1.0020    -7.6113   -11.1341  H       1  <O>11       0.0618
  44 H16      -0.9910    -6.1480    -9.1935  H       1  <O>11       0.0618
  45 H17       0.1551    -6.8087    -7.1633  H       1  <O>11       0.0625
@<TRIPOS>BOND
     1     1     2    2
     2     2     3   am
     3     3     4    1
     4     4     5   am
     5     5     6    2
     6     5     7    1
     7     7     8   ar
     8     8     9   ar
     9     9    10   ar
    10    10    11   ar
    11    11    12    1
    12    12    13    2
    13    12    14    2
    14    12    15    1
    15    15    16    1
    16    16    17   ar
    17    17    18   ar
    18    18    19   ar
    19    19    20   ar
    20    20    21   ar
    21    16    21   ar
    22    11    22   ar
    23     7    22   ar
    24     2    23    1
    25    23    24   ar
    26    24    25   ar
    27    25    26   ar
    28    26    27   ar
    29    27    28   ar
    30    23    28   ar
    31     3    29    1
    32     4    30    1
    33    15    31    1
    34     8    32    1
    35     9    33    1
    36    10    34    1
    37    17    35    1
    38    18    36    1
    39    19    37    1
    40    20    38    1
    41    21    39    1
    42    22    40    1
    43    24    41    1
    44    25    42    1
    45    26    43    1
    46    27    44    1
    47    28    45    1
@<TRIPOS>MOLECULE
mol76_2_6
 45 47 0 0 0
SMALL
USER_CHARGES
****
VDW energy = 90.34
@<TRIPOS>ATOM
   1 O1        0.9439    -9.6922    -5.8421  O.2     1  <O>11      -0.2687
   2 C1        1.5306    -9.0649    -6.7113  C.2     1  <O>11       0.2601
   3 N1        2.8490    -8.7350    -6.5460  N.am    1  <O>11      -0.2301
   4 N2        3.5130    -9.1100    -5.4030  N.am    1  <O>11      -0.2301
   5 C2        4.8320    -8.7800    -5.2390  C.2     1  <O>11       0.2602
   6 O2        5.4170    -8.1520    -6.1090  O.2     1  <O>11      -0.2687
   7 C3        5.5330    -9.1740    -4.0370  C.ar    1  <O>11       0.0400
   8 C4        6.9231    -9.2991    -4.0650  C.ar    1  <O>11      -0.0495
   9 C5        7.6069    -9.6916    -2.9100  C.ar    1  <O>11      -0.0592
  10 C6        6.9036    -9.9532    -1.7306  C.ar    1  <O>11      -0.0350
  11 C7        5.5104    -9.8167    -1.7145  C.ar    1  <O>11       0.1092
  12 S1        4.6302   -10.1454    -0.2282  S.O2    1  <O>11       0.0724
  13 O3        5.3977    -9.4069     1.0455  O.2     1  <O>11      -0.1500
  14 O4        4.5783   -11.7859     0.0347  O.2     1  <O>11      -0.1500
  15 N3        3.0912    -9.5600    -0.3596  N.pl3   1  <O>11      -0.2163
  16 C8        2.1607    -9.7120     0.7460  C.ar    1  <O>11       0.0480
  17 C9        1.3414   -10.8505     0.8301  C.ar    1  <O>11      -0.0393
  18 C10       0.4369   -10.9891     1.8877  C.ar    1  <O>11      -0.0600
  19 C11       0.3421    -9.9993     2.8684  C.ar    1  <O>11      -0.0616
  20 C12       1.1618    -8.8695     2.7874  C.ar    1  <O>11      -0.0600
  21 C13       2.0698    -8.7214     1.7381  C.ar    1  <O>11      -0.0393
  22 C14       4.8208    -9.4238    -2.8625  C.ar    1  <O>11      -0.0229
  23 C15       0.8270    -8.6680    -7.9240  C.ar    1  <O>11       0.0382
  24 C16       1.4714    -8.7335    -9.1707  C.ar    1  <O>11      -0.0496
  25 C17       0.7985    -8.3416   -10.3336  C.ar    1  <O>11      -0.0610
  26 C18      -0.5201    -7.8854   -10.2635  C.ar    1  <O>11      -0.0617
  27 C19      -1.1642    -7.8273    -9.0221  C.ar    1  <O>11      -0.0610
  28 C20      -0.5012    -8.2170    -7.8572  C.ar    1  <O>11      -0.0496
  29 H1        3.3390    -8.2120    -7.2710  H       1  <O>11       0.1731
  30 H2        3.0250    -9.6340    -4.6770  H       1  <O>11       0.1731
  31 H3        2.7941    -9.0958    -1.2160  H       1  <O>11       0.1737
  32 H4        7.4438    -9.1029    -4.9341  H       1  <O>11       0.0625
  33 H5        8.6342    -9.7884    -2.9284  H       1  <O>11       0.0618
  34 H6        7.4074   -10.2447    -0.8784  H       1  <O>11       0.0637
  35 H7        1.4073   -11.5863     0.1096  H       1  <O>11       0.0636
  36 H8       -0.1633   -11.8267     1.9437  H       1  <O>11       0.0618
  37 H9       -0.3278   -10.1010     3.6468  H       1  <O>11       0.0618
  38 H10       1.0946    -8.1372     3.5115  H       1  <O>11       0.0618
  39 H11       2.6734    -7.8856     1.6910  H       1  <O>11       0.0636
  40 H12       3.7943    -9.3190    -2.8434  H       1  <O>11       0.0645
  41 H13       2.4446    -9.0719    -9.2291  H       1  <O>11       0.0625
  42 H14       1.2781    -8.3897   -11.2461  H       1  <O>11       0.0618
  43 H15      -1.0155    -7.5935   -11.1205  H       1  <O>11       0.0618
  44 H16      -2.1390    -7.4929    -8.9676  H       1  <O>11       0.0618
  45 H17      -0.9867    -8.1737    -6.9475  H       1  <O>11       0.0625
@<TRIPOS>BOND
     1     1     2    2
     2     2     3   am
     3     3     4    1
     4     4     5   am
     5     5     6    2
     6     5     7    1
     7     7     8   ar
     8     8     9   ar
     9     9    10   ar
    10    10    11   ar
    11    11    12    1
    12    12    13    2
    13    12    14    2
    14    12    15    1
    15    15    16    1
    16    16    17   ar
    17    17    18   ar
    18    18    19   ar
    19    19    20   ar
    20    20    21   ar
    21    16    21   ar
    22    11    22   ar
    23     7    22   ar
    24     2    23    1
    25    23    24   ar
    26    24    25   ar
    27    25    26   ar
    28    26    27   ar
    29    27    28   ar
    30    23    28   ar
    31     3    29    1
    32     4    30    1
    33    15    31    1
    34     8    32    1
    35     9    33    1
    36    10    34    1
    37    17    35    1
    38    18    36    1
    39    19    37    1
    40    20    38    1
    41    21    39    1
    42    22    40    1
    43    24    41    1
    44    25    42    1
    45    26    43    1
    46    27    44    1
    47    28    45    1
@<TRIPOS>MOLECULE
mol76_2_7
 45 47 0 0 0
SMALL
USER_CHARGES
****
VDW energy = 90.35
@<TRIPOS>ATOM
   1 O1        0.9439    -9.6922    -5.8421  O.2     1  <O>11      -0.2687
   2 C1        1.5306    -9.0649    -6.7113  C.2     1  <O>11       0.2601
   3 N1        2.8490    -8.7350    -6.5460  N.am    1  <O>11      -0.2301
   4 N2        3.5130    -9.1100    -5.4030  N.am    1  <O>11      -0.2301
   5 C2        4.8320    -8.7800    -5.2390  C.2     1  <O>11       0.2602
   6 O2        5.4170    -8.1520    -6.1090  O.2     1  <O>11      -0.2687
   7 C3        5.5330    -9.1740    -4.0370  C.ar    1  <O>11       0.0400
   8 C4        6.9231    -9.2991    -4.0650  C.ar    1  <O>11      -0.0495
   9 C5        7.6069    -9.6916    -2.9100  C.ar    1  <O>11      -0.0592
  10 C6        6.9036    -9.9532    -1.7306  C.ar    1  <O>11      -0.0350
  11 C7        5.5104    -9.8167    -1.7145  C.ar    1  <O>11       0.1092
  12 S1        4.6302   -10.1454    -0.2282  S.O2    1  <O>11       0.0724
  13 O3        5.3977    -9.4069     1.0455  O.2     1  <O>11      -0.1500
  14 O4        4.5783   -11.7859     0.0347  O.2     1  <O>11      -0.1500
  15 N3        3.0912    -9.5600    -0.3596  N.pl3   1  <O>11      -0.2163
  16 C8        2.1607    -9.7120     0.7460  C.ar    1  <O>11       0.0480
  17 C9        2.0736    -8.7216     1.7390  C.ar    1  <O>11      -0.0393
  18 C10       1.1871    -8.8756     2.8096  C.ar    1  <O>11      -0.0600
  19 C11       0.3810   -10.0126     2.8993  C.ar    1  <O>11      -0.0616
  20 C12       0.4639   -10.9949     1.9078  C.ar    1  <O>11      -0.0600
  21 C13       1.3429   -10.8511     0.8337  C.ar    1  <O>11      -0.0393
  22 C14       4.8208    -9.4238    -2.8625  C.ar    1  <O>11      -0.0229
  23 C15       0.8270    -8.6680    -7.9240  C.ar    1  <O>11       0.0382
  24 C16       1.4714    -8.7335    -9.1707  C.ar    1  <O>11      -0.0496
  25 C17       0.7985    -8.3416   -10.3336  C.ar    1  <O>11      -0.0610
  26 C18      -0.5201    -7.8854   -10.2635  C.ar    1  <O>11      -0.0617
  27 C19      -1.1642    -7.8273    -9.0221  C.ar    1  <O>11      -0.0610
  28 C20      -0.5012    -8.2170    -7.8572  C.ar    1  <O>11      -0.0496
  29 H1        3.3390    -8.2120    -7.2710  H       1  <O>11       0.1731
  30 H2        3.0250    -9.6340    -4.6770  H       1  <O>11       0.1731
  31 H3        2.7941    -9.0958    -1.2160  H       1  <O>11       0.1737
  32 H4        7.4438    -9.1029    -4.9341  H       1  <O>11       0.0625
  33 H5        8.6342    -9.7884    -2.9284  H       1  <O>11       0.0618
  34 H6        7.4074   -10.2447    -0.8784  H       1  <O>11       0.0637
  35 H7        2.6653    -7.8783     1.6781  H       1  <O>11       0.0636
  36 H8        1.1282    -8.1456     3.5367  H       1  <O>11       0.0618
  37 H9       -0.2707   -10.1267     3.6913  H       1  <O>11       0.0618
  38 H10      -0.1315   -11.8355     1.9711  H       1  <O>11       0.0618
  39 H11       1.3923   -11.5802     0.1049  H       1  <O>11       0.0636
  40 H12       3.7943    -9.3190    -2.8434  H       1  <O>11       0.0645
  41 H13       2.4446    -9.0719    -9.2291  H       1  <O>11       0.0625
  42 H14       1.2781    -8.3897   -11.2461  H       1  <O>11       0.0618
  43 H15      -1.0155    -7.5935   -11.1205  H       1  <O>11       0.0618
  44 H16      -2.1390    -7.4929    -8.9676  H       1  <O>11       0.0618
  45 H17      -0.9867    -8.1737    -6.9475  H       1  <O>11       0.0625
@<TRIPOS>BOND
     1     1     2    2
     2     2     3   am
     3     3     4    1
     4     4     5   am
     5     5     6    2
     6     5     7    1
     7     7     8   ar
     8     8     9   ar
     9     9    10   ar
    10    10    11   ar
    11    11    12    1
    12    12    13    2
    13    12    14    2
    14    12    15    1
    15    15    16    1
    16    16    17   ar
    17    17    18   ar
    18    18    19   ar
    19    19    20   ar
    20    20    21   ar
    21    16    21   ar
    22    11    22   ar
    23     7    22   ar
    24     2    23    1
    25    23    24   ar
    26    24    25   ar
    27    25    26   ar
    28    26    27   ar
    29    27    28   ar
    30    23    28   ar
    31     3    29    1
    32     4    30    1
    33    15    31    1
    34     8    32    1
    35     9    33    1
    36    10    34    1
    37    17    35    1
    38    18    36    1
    39    19    37    1
    40    20    38    1
    41    21    39    1
    42    22    40    1
    43    24    41    1
    44    25    42    1
    45    26    43    1
    46    27    44    1
    47    28    45    1
@<TRIPOS>MOLECULE
mol76_2_8
 45 47 0 0 0
SMALL
USER_CHARGES
****
VDW energy = 90.38
@<TRIPOS>ATOM
   1 O1        0.9439    -9.6922    -5.8421  O.2     1  <O>11      -0.2687
   2 C1        1.5306    -9.0649    -6.7113  C.2     1  <O>11       0.2601
   3 N1        2.8490    -8.7350    -6.5460  N.am    1  <O>11      -0.2301
   4 N2        3.5130    -9.1100    -5.4030  N.am    1  <O>11      -0.2301
   5 C2        4.8320    -8.7800    -5.2390  C.2     1  <O>11       0.2602
   6 O2        5.4170    -8.1520    -6.1090  O.2     1  <O>11      -0.2687
   7 C3        5.5330    -9.1740    -4.0370  C.ar    1  <O>11       0.0400
   8 C4        4.8768    -9.1021    -2.8070  C.ar    1  <O>11      -0.0495
   9 C5        5.5519    -9.4697    -1.6388  C.ar    1  <O>11      -0.0592
  10 C6        6.8765    -9.9119    -1.7013  C.ar    1  <O>11      -0.0350
  11 C7        7.5203    -9.9862    -2.9423  C.ar    1  <O>11       0.1092
  12 S1        9.1860   -10.5445    -3.0160  S.O2    1  <O>11       0.0724
  13 O3        9.3560   -11.9070    -2.0824  O.2     1  <O>11      -0.1500
  14 O4       10.1960    -9.3544    -2.4445  O.2     1  <O>11      -0.1500
  15 N3        9.5796   -10.8956    -4.5814  N.pl3   1  <O>11      -0.2163
  16 C8       10.9120   -11.3772    -4.9035  C.ar    1  <O>11       0.0480
  17 C9       11.2532   -11.6793    -6.2327  C.ar    1  <O>11      -0.0393
  18 C10      12.5319   -12.1555    -6.5395  C.ar    1  <O>11      -0.0600
  19 C11      13.4793   -12.3326    -5.5287  C.ar    1  <O>11      -0.0616
  20 C12      13.1411   -12.0262    -4.2071  C.ar    1  <O>11      -0.0600
  21 C13      11.8692   -11.5481    -3.8894  C.ar    1  <O>11      -0.0393
  22 C14       6.8528    -9.6227    -4.1128  C.ar    1  <O>11      -0.0229
  23 C15       0.8270    -8.6680    -7.9240  C.ar    1  <O>11       0.0382
  24 C16       0.8118    -9.5159    -9.0441  C.ar    1  <O>11      -0.0496
  25 C17       0.1451    -9.1290   -10.2123  C.ar    1  <O>11      -0.0610
  26 C18      -0.5129    -7.8981   -10.2719  C.ar    1  <O>11      -0.0617
  27 C19      -0.5038    -7.0569    -9.1532  C.ar    1  <O>11      -0.0610
  28 C20       0.1578    -7.4348    -7.9835  C.ar    1  <O>11      -0.0496
  29 H1        3.3390    -8.2120    -7.2710  H       1  <O>11       0.1731
  30 H2        3.0250    -9.6340    -4.6770  H       1  <O>11       0.1731
  31 H3        8.8897   -10.7715    -5.3202  H       1  <O>11       0.1737
  32 H4        3.8977    -8.7791    -2.7599  H       1  <O>11       0.0625
  33 H5        5.0707    -9.4143    -0.7275  H       1  <O>11       0.0618
  34 H6        7.3760   -10.1815    -0.8394  H       1  <O>11       0.0637
  35 H7       10.5584   -11.5495    -6.9847  H       1  <O>11       0.0636
  36 H8       12.7766   -12.3770    -7.5173  H       1  <O>11       0.0618
  37 H9       14.4216   -12.6868    -5.7556  H       1  <O>11       0.0618
  38 H10      13.8397   -12.1549    -3.4585  H       1  <O>11       0.0618
  39 H11      11.6320   -11.3205    -2.9111  H       1  <O>11       0.0636
  40 H12       7.3303    -9.6851    -5.0256  H       1  <O>11       0.0645
  41 H13       1.2941   -10.4275    -9.0053  H       1  <O>11       0.0625
  42 H14       0.1396    -9.7553   -11.0325  H       1  <O>11       0.0618
  43 H15      -1.0020    -7.6113   -11.1341  H       1  <O>11       0.0618
  44 H16      -0.9910    -6.1480    -9.1935  H       1  <O>11       0.0618
  45 H17       0.1551    -6.8087    -7.1633  H       1  <O>11       0.0625
@<TRIPOS>BOND
     1     1     2    2
     2     2     3   am
     3     3     4    1
     4     4     5   am
     5     5     6    2
     6     5     7    1
     7     7     8   ar
     8     8     9   ar
     9     9    10   ar
    10    10    11   ar
    11    11    12    1
    12    12    13    2
    13    12    14    2
    14    12    15    1
    15    15    16    1
    16    16    17   ar
    17    17    18   ar
    18    18    19   ar
    19    19    20   ar
    20    20    21   ar
    21    16    21   ar
    22    11    22   ar
    23     7    22   ar
    24     2    23    1
    25    23    24   ar
    26    24    25   ar
    27    25    26   ar
    28    26    27   ar
    29    27    28   ar
    30    23    28   ar
    31     3    29    1
    32     4    30    1
    33    15    31    1
    34     8    32    1
    35     9    33    1
    36    10    34    1
    37    17    35    1
    38    18    36    1
    39    19    37    1
    40    20    38    1
    41    21    39    1
    42    22    40    1
    43    24    41    1
    44    25    42    1
    45    26    43    1
    46    27    44    1
    47    28    45    1
@<TRIPOS>MOLECULE
mol76_2_9
 45 47 0 0 0
SMALL
USER_CHARGES
****
VDW energy = 91.09
@<TRIPOS>ATOM
   1 O1        0.9439    -9.6922    -5.8421  O.2     1  <O>11      -0.2687
   2 C1        1.5306    -9.0649    -6.7113  C.2     1  <O>11       0.2601
   3 N1        2.8490    -8.7350    -6.5460  N.am    1  <O>11      -0.2301
   4 N2        3.5086    -8.0297    -7.5235  N.am    1  <O>11      -0.2301
   5 C2        4.8272    -7.6997    -7.3568  C.2     1  <O>11       0.2602
   6 O2        5.4161    -8.0332    -6.3392  O.2     1  <O>11      -0.2687
   7 C3        5.5233    -6.9571    -8.3842  C.ar    1  <O>11       0.0400
   8 C4        6.1813    -7.6492    -9.4024  C.ar    1  <O>11      -0.0495
   9 C5        6.8669    -6.9385   -10.3925  C.ar    1  <O>11      -0.0592
  10 C6        6.8903    -5.5410   -10.3669  C.ar    1  <O>11      -0.0350
  11 C7        6.2200    -4.8593    -9.3441  C.ar    1  <O>11       0.1092
  12 S1        6.2510    -3.1015    -9.3169  S.O2    1  <O>11       0.0724
  13 O3        5.9362    -2.5178   -10.8391  O.2     1  <O>11      -0.1500
  14 O4        7.7510    -2.5805    -8.8252  O.2     1  <O>11      -0.1500
  15 N3        5.1039    -2.5475    -8.2653  N.pl3   1  <O>11      -0.2163
  16 C8        4.9340    -1.1185    -8.0645  C.ar    1  <O>11       0.0480
  17 C9        3.9592    -0.6401    -7.1727  C.ar    1  <O>11      -0.0393
  18 C10       3.7878     0.7358    -6.9904  C.ar    1  <O>11      -0.0600
  19 C11       4.5844     1.6442    -7.6910  C.ar    1  <O>11      -0.0616
  20 C12       5.5582     1.1676    -8.5738  C.ar    1  <O>11      -0.0600
  21 C13       5.7400    -0.2032    -8.7620  C.ar    1  <O>11      -0.0393
  22 C14       5.5321    -5.5614    -8.3533  C.ar    1  <O>11      -0.0229
  23 C15       0.8270    -8.6680    -7.9240  C.ar    1  <O>11       0.0382
  24 C16       0.8118    -9.5159    -9.0441  C.ar    1  <O>11      -0.0496
  25 C17       0.1451    -9.1290   -10.2123  C.ar    1  <O>11      -0.0610
  26 C18      -0.5129    -7.8981   -10.2719  C.ar    1  <O>11      -0.0617
  27 C19      -0.5038    -7.0569    -9.1532  C.ar    1  <O>11      -0.0610
  28 C20       0.1578    -7.4348    -7.9835  C.ar    1  <O>11      -0.0496
  29 H1        3.3417    -9.0114    -5.6974  H       1  <O>11       0.1731
  30 H2        3.0173    -7.7515    -8.3727  H       1  <O>11       0.1731
  31 H3        4.5186    -3.2072    -7.7561  H       1  <O>11       0.1737
  32 H4        6.1618    -8.6808    -9.4244  H       1  <O>11       0.0625
  33 H5        7.3573    -7.4473   -11.1446  H       1  <O>11       0.0618
  34 H6        7.3976    -5.0159   -11.0961  H       1  <O>11       0.0637
  35 H7        3.3681    -1.3059    -6.6508  H       1  <O>11       0.0636
  36 H8        3.0694     1.0816    -6.3352  H       1  <O>11       0.0618
  37 H9        4.4552     2.6594    -7.5581  H       1  <O>11       0.0618
  38 H10       6.1490     1.8366    -9.0917  H       1  <O>11       0.0618
  39 H11       6.4651    -0.5439    -9.4124  H       1  <O>11       0.0636
  40 H12       5.0348    -5.0537    -7.6050  H       1  <O>11       0.0645
  41 H13       1.2941   -10.4275    -9.0053  H       1  <O>11       0.0625
  42 H14       0.1396    -9.7553   -11.0325  H       1  <O>11       0.0618
  43 H15      -1.0020    -7.6113   -11.1341  H       1  <O>11       0.0618
  44 H16      -0.9910    -6.1480    -9.1935  H       1  <O>11       0.0618
  45 H17       0.1551    -6.8087    -7.1633  H       1  <O>11       0.0625
@<TRIPOS>BOND
     1     1     2    2
     2     2     3   am
     3     3     4    1
     4     4     5   am
     5     5     6    2
     6     5     7    1
     7     7     8   ar
     8     8     9   ar
     9     9    10   ar
    10    10    11   ar
    11    11    12    1
    12    12    13    2
    13    12    14    2
    14    12    15    1
    15    15    16    1
    16    16    17   ar
    17    17    18   ar
    18    18    19   ar
    19    19    20   ar
    20    20    21   ar
    21    16    21   ar
    22    11    22   ar
    23     7    22   ar
    24     2    23    1
    25    23    24   ar
    26    24    25   ar
    27    25    26   ar
    28    26    27   ar
    29    27    28   ar
    30    23    28   ar
    31     3    29    1
    32     4    30    1
    33    15    31    1
    34     8    32    1
    35     9    33    1
    36    10    34    1
    37    17    35    1
    38    18    36    1
    39    19    37    1
    40    20    38    1
    41    21    39    1
    42    22    40    1
    43    24    41    1
    44    25    42    1
    45    26    43    1
    46    27    44    1
    47    28    45    1
@<TRIPOS>MOLECULE
mol76_2_10
 45 47 0 0 0
SMALL
USER_CHARGES
****
VDW energy = 91.09
@<TRIPOS>ATOM
   1 O1        0.9439    -9.6922    -5.8421  O.2     1  <O>11      -0.2687
   2 C1        1.5306    -9.0649    -6.7113  C.2     1  <O>11       0.2601
   3 N1        2.8490    -8.7350    -6.5460  N.am    1  <O>11      -0.2301
   4 N2        3.5086    -8.0297    -7.5235  N.am    1  <O>11      -0.2301
   5 C2        4.8272    -7.6997    -7.3568  C.2     1  <O>11       0.2602
   6 O2        5.4161    -8.0332    -6.3392  O.2     1  <O>11      -0.2687
   7 C3        5.5233    -6.9571    -8.3842  C.ar    1  <O>11       0.0400
   8 C4        6.1813    -7.6492    -9.4024  C.ar    1  <O>11      -0.0495
   9 C5        6.8669    -6.9385   -10.3925  C.ar    1  <O>11      -0.0592
  10 C6        6.8903    -5.5410   -10.3669  C.ar    1  <O>11      -0.0350
  11 C7        6.2200    -4.8593    -9.3441  C.ar    1  <O>11       0.1092
  12 S1        6.2510    -3.1015    -9.3169  S.O2    1  <O>11       0.0724
  13 O3        5.9362    -2.5178   -10.8391  O.2     1  <O>11      -0.1500
  14 O4        7.7510    -2.5805    -8.8252  O.2     1  <O>11      -0.1500
  15 N3        5.1039    -2.5475    -8.2653  N.pl3   1  <O>11      -0.2163
  16 C8        4.9340    -1.1185    -8.0645  C.ar    1  <O>11       0.0480
  17 C9        3.9592    -0.6401    -7.1727  C.ar    1  <O>11      -0.0393
  18 C10       3.7878     0.7358    -6.9904  C.ar    1  <O>11      -0.0600
  19 C11       4.5844     1.6442    -7.6910  C.ar    1  <O>11      -0.0616
  20 C12       5.5582     1.1676    -8.5738  C.ar    1  <O>11      -0.0600
  21 C13       5.7400    -0.2032    -8.7620  C.ar    1  <O>11      -0.0393
  22 C14       5.5321    -5.5614    -8.3533  C.ar    1  <O>11      -0.0229
  23 C15       0.8270    -8.6680    -7.9240  C.ar    1  <O>11       0.0382
  24 C16       0.1579    -7.4341    -7.9833  C.ar    1  <O>11      -0.0496
  25 C17      -0.5270    -7.0585    -9.1447  C.ar    1  <O>11      -0.0610
  26 C18      -0.5475    -7.9067   -10.2546  C.ar    1  <O>11      -0.0617
  27 C19       0.1255    -9.1327   -10.1976  C.ar    1  <O>11      -0.0610
  28 C20       0.8119    -9.5151    -9.0439  C.ar    1  <O>11      -0.0496
  29 H1        3.3417    -9.0114    -5.6974  H       1  <O>11       0.1731
  30 H2        3.0173    -7.7515    -8.3727  H       1  <O>11       0.1731
  31 H3        4.5186    -3.2072    -7.7561  H       1  <O>11       0.1737
  32 H4        6.1618    -8.6808    -9.4244  H       1  <O>11       0.0625
  33 H5        7.3573    -7.4473   -11.1446  H       1  <O>11       0.0618
  34 H6        7.3976    -5.0159   -11.0961  H       1  <O>11       0.0637
  35 H7        3.3681    -1.3059    -6.6508  H       1  <O>11       0.0636
  36 H8        3.0694     1.0816    -6.3352  H       1  <O>11       0.0618
  37 H9        4.4552     2.6594    -7.5581  H       1  <O>11       0.0618
  38 H10       6.1490     1.8366    -9.0917  H       1  <O>11       0.0618
  39 H11       6.4651    -0.5439    -9.4124  H       1  <O>11       0.0636
  40 H12       5.0348    -5.0537    -7.6050  H       1  <O>11       0.0645
  41 H13       0.1715    -6.8022    -7.1675  H       1  <O>11       0.0625
  42 H14      -1.0186    -6.1519    -9.1812  H       1  <O>11       0.0618
  43 H15      -1.0550    -7.6314   -11.1100  H       1  <O>11       0.0618
  44 H16       0.1140    -9.7603   -11.0168  H       1  <O>11       0.0618
  45 H17       1.3079   -10.4196    -9.0139  H       1  <O>11       0.0625
@<TRIPOS>BOND
     1     1     2    2
     2     2     3   am
     3     3     4    1
     4     4     5   am
     5     5     6    2
     6     5     7    1
     7     7     8   ar
     8     8     9   ar
     9     9    10   ar
    10    10    11   ar
    11    11    12    1
    12    12    13    2
    13    12    14    2
    14    12    15    1
    15    15    16    1
    16    16    17   ar
    17    17    18   ar
    18    18    19   ar
    19    19    20   ar
    20    20    21   ar
    21    16    21   ar
    22    11    22   ar
    23     7    22   ar
    24     2    23    1
    25    23    24   ar
    26    24    25   ar
    27    25    26   ar
    28    26    27   ar
    29    27    28   ar
    30    23    28   ar
    31     3    29    1
    32     4    30    1
    33    15    31    1
    34     8    32    1
    35     9    33    1
    36    10    34    1
    37    17    35    1
    38    18    36    1
    39    19    37    1
    40    20    38    1
    41    21    39    1
    42    22    40    1
    43    24    41    1
    44    25    42    1
    45    26    43    1
    46    27    44    1
    47    28    45    1
@<TRIPOS>MOLECULE
mol76_2_11
 45 47 0 0 0
SMALL
USER_CHARGES
****
VDW energy = 91.37
@<TRIPOS>ATOM
   1 O1        0.9439    -9.6922    -5.8421  O.2     1  <O>11      -0.2687
   2 C1        1.5306    -9.0649    -6.7113  C.2     1  <O>11       0.2601
   3 N1        2.8490    -8.7350    -6.5460  N.am    1  <O>11      -0.2301
   4 N2        3.5086    -8.0297    -7.5235  N.am    1  <O>11      -0.2301
   5 C2        4.8272    -7.6997    -7.3568  C.2     1  <O>11       0.2602
   6 O2        5.4161    -8.0332    -6.3392  O.2     1  <O>11      -0.2687
   7 C3        5.5233    -6.9571    -8.3842  C.ar    1  <O>11       0.0400
   8 C4        6.6469    -6.2028    -8.0414  C.ar    1  <O>11      -0.0495
   9 C5        7.3181    -5.4722    -9.0270  C.ar    1  <O>11      -0.0592
  10 C6        6.8700    -5.4999   -10.3508  C.ar    1  <O>11      -0.0350
  11 C7        5.7463    -6.2663   -10.6821  C.ar    1  <O>11       0.1092
  12 S1        5.1875    -6.2991   -12.3490  S.O2    1  <O>11       0.0724
  13 O3        3.8509    -7.2771   -12.4665  O.2     1  <O>11      -0.1500
  14 O4        6.3934    -6.8926   -13.3269  O.2     1  <O>11      -0.1500
  15 N3        4.7945    -4.7677   -12.8274  N.pl3   1  <O>11      -0.2163
  16 C8        3.7588    -4.0312   -12.1231  C.ar    1  <O>11       0.0480
  17 C9        3.4205    -2.7276   -12.5237  C.ar    1  <O>11      -0.0393
  18 C10       2.4327    -2.0150   -11.8364  C.ar    1  <O>11      -0.0600
  19 C11       1.7742    -2.5934   -10.7490  C.ar    1  <O>11      -0.0616
  20 C12       2.1070    -3.8928   -10.3546  C.ar    1  <O>11      -0.0600
  21 C13       3.0893    -4.6143   -11.0342  C.ar    1  <O>11      -0.0393
  22 C14       5.0721    -6.9995    -9.7046  C.ar    1  <O>11      -0.0229
  23 C15       0.8270    -8.6680    -7.9240  C.ar    1  <O>11       0.0382
  24 C16       0.8118    -9.5159    -9.0441  C.ar    1  <O>11      -0.0496
  25 C17       0.1451    -9.1290   -10.2123  C.ar    1  <O>11      -0.0610
  26 C18      -0.5129    -7.8981   -10.2719  C.ar    1  <O>11      -0.0617
  27 C19      -0.5038    -7.0569    -9.1532  C.ar    1  <O>11      -0.0610
  28 C20       0.1578    -7.4348    -7.9835  C.ar    1  <O>11      -0.0496
  29 H1        3.3417    -9.0114    -5.6974  H       1  <O>11       0.1731
  30 H2        3.0173    -7.7515    -8.3727  H       1  <O>11       0.1731
  31 H3        5.2758    -4.3416   -13.6173  H       1  <O>11       0.1737
  32 H4        6.9807    -6.1845    -7.0651  H       1  <O>11       0.0625
  33 H5        8.1469    -4.9109    -8.7761  H       1  <O>11       0.0618
  34 H6        7.3637    -4.9595   -11.0783  H       1  <O>11       0.0637
  35 H7        3.9023    -2.2947   -13.3271  H       1  <O>11       0.0636
  36 H8        2.1893    -1.0573   -12.1341  H       1  <O>11       0.0618
  37 H9        1.0475    -2.0656   -10.2406  H       1  <O>11       0.0618
  38 H10       1.6210    -4.3230    -9.5523  H       1  <O>11       0.0618
  39 H11       3.3235    -5.5747   -10.7375  H       1  <O>11       0.0636
  40 H12       4.2478    -7.5676    -9.9554  H       1  <O>11       0.0645
  41 H13       1.2941   -10.4275    -9.0053  H       1  <O>11       0.0625
  42 H14       0.1396    -9.7553   -11.0325  H       1  <O>11       0.0618
  43 H15      -1.0020    -7.6113   -11.1341  H       1  <O>11       0.0618
  44 H16      -0.9910    -6.1480    -9.1935  H       1  <O>11       0.0618
  45 H17       0.1551    -6.8087    -7.1633  H       1  <O>11       0.0625
@<TRIPOS>BOND
     1     1     2    2
     2     2     3   am
     3     3     4    1
     4     4     5   am
     5     5     6    2
     6     5     7    1
     7     7     8   ar
     8     8     9   ar
     9     9    10   ar
    10    10    11   ar
    11    11    12    1
    12    12    13    2
    13    12    14    2
    14    12    15    1
    15    15    16    1
    16    16    17   ar
    17    17    18   ar
    18    18    19   ar
    19    19    20   ar
    20    20    21   ar
    21    16    21   ar
    22    11    22   ar
    23     7    22   ar
    24     2    23    1
    25    23    24   ar
    26    24    25   ar
    27    25    26   ar
    28    26    27   ar
    29    27    28   ar
    30    23    28   ar
    31     3    29    1
    32     4    30    1
    33    15    31    1
    34     8    32    1
    35     9    33    1
    36    10    34    1
    37    17    35    1
    38    18    36    1
    39    19    37    1
    40    20    38    1
    41    21    39    1
    42    22    40    1
    43    24    41    1
    44    25    42    1
    45    26    43    1
    46    27    44    1
    47    28    45    1
@<TRIPOS>MOLECULE
mol76_2_12
 45 47 0 0 0
SMALL
USER_CHARGES
****
VDW energy = 91.91
@<TRIPOS>ATOM
   1 O1        0.9439    -9.6922    -5.8421  O.2     1  <O>11      -0.2687
   2 C1        1.5306    -9.0649    -6.7113  C.2     1  <O>11       0.2601
   3 N1        2.8490    -8.7350    -6.5460  N.am    1  <O>11      -0.2301
   4 N2        3.5086    -8.0297    -7.5235  N.am    1  <O>11      -0.2301
   5 C2        4.8272    -7.6997    -7.3568  C.2     1  <O>11       0.2602
   6 O2        5.4161    -8.0332    -6.3392  O.2     1  <O>11      -0.2687
   7 C3        5.5233    -6.9571    -8.3842  C.ar    1  <O>11       0.0400
   8 C4        4.8625    -5.9214    -9.0470  C.ar    1  <O>11      -0.0495
   9 C5        5.5248    -5.2068   -10.0501  C.ar    1  <O>11      -0.0592
  10 C6        6.8444    -5.5237   -10.3854  C.ar    1  <O>11      -0.0350
  11 C7        7.4977    -6.5599    -9.7076  C.ar    1  <O>11       0.1092
  12 S1        9.1580    -6.9539   -10.1319  S.O2    1  <O>11       0.0724
  13 O3       10.0466    -5.5563   -10.2504  O.2     1  <O>11      -0.1500
  14 O4        9.1839    -7.7498   -11.5910  O.2     1  <O>11      -0.1500
  15 N3        9.8086    -7.9241    -8.9640  N.pl3   1  <O>11      -0.2163
  16 C8       11.1792    -8.3898    -9.0889  C.ar    1  <O>11       0.0480
  17 C9       11.7397    -9.2141    -8.0985  C.ar    1  <O>11      -0.0393
  18 C10      13.0633    -9.6506    -8.2134  C.ar    1  <O>11      -0.0600
  19 C11      13.8372    -9.2728    -9.3129  C.ar    1  <O>11      -0.0616
  20 C12      13.2771    -8.4575   -10.3011  C.ar    1  <O>11      -0.0600
  21 C13      11.9568    -8.0177   -10.1984  C.ar    1  <O>11      -0.0393
  22 C14       6.8441    -7.2767    -8.7042  C.ar    1  <O>11      -0.0229
  23 C15       0.8270    -8.6680    -7.9240  C.ar    1  <O>11       0.0382
  24 C16       0.8118    -9.5159    -9.0441  C.ar    1  <O>11      -0.0496
  25 C17       0.1451    -9.1290   -10.2123  C.ar    1  <O>11      -0.0610
  26 C18      -0.5129    -7.8981   -10.2719  C.ar    1  <O>11      -0.0617
  27 C19      -0.5038    -7.0569    -9.1532  C.ar    1  <O>11      -0.0610
  28 C20       0.1578    -7.4348    -7.9835  C.ar    1  <O>11      -0.0496
  29 H1        3.3417    -9.0114    -5.6974  H       1  <O>11       0.1731
  30 H2        3.0173    -7.7515    -8.3727  H       1  <O>11       0.1731
  31 H3        9.2483    -8.1980    -8.1589  H       1  <O>11       0.1737
  32 H4        3.8895    -5.6842    -8.7979  H       1  <O>11       0.0625
  33 H5        5.0379    -4.4429   -10.5444  H       1  <O>11       0.0618
  34 H6        7.3332    -4.9980   -11.1269  H       1  <O>11       0.0637
  35 H7       11.1731    -9.4981    -7.2841  H       1  <O>11       0.0636
  36 H8       13.4702   -10.2548    -7.4823  H       1  <O>11       0.0618
  37 H9       14.8148    -9.5930    -9.3954  H       1  <O>11       0.0618
  38 H10      13.8463    -8.1779   -11.1152  H       1  <O>11       0.0618
  39 H11      11.5521    -7.4202   -10.9362  H       1  <O>11       0.0636
  40 H12       7.3324    -8.0356    -8.2037  H       1  <O>11       0.0645
  41 H13       1.2941   -10.4275    -9.0053  H       1  <O>11       0.0625
  42 H14       0.1396    -9.7553   -11.0325  H       1  <O>11       0.0618
  43 H15      -1.0020    -7.6113   -11.1341  H       1  <O>11       0.0618
  44 H16      -0.9910    -6.1480    -9.1935  H       1  <O>11       0.0618
  45 H17       0.1551    -6.8087    -7.1633  H       1  <O>11       0.0625
@<TRIPOS>BOND
     1     1     2    2
     2     2     3   am
     3     3     4    1
     4     4     5   am
     5     5     6    2
     6     5     7    1
     7     7     8   ar
     8     8     9   ar
     9     9    10   ar
    10    10    11   ar
    11    11    12    1
    12    12    13    2
    13    12    14    2
    14    12    15    1
    15    15    16    1
    16    16    17   ar
    17    17    18   ar
    18    18    19   ar
    19    19    20   ar
    20    20    21   ar
    21    16    21   ar
    22    11    22   ar
    23     7    22   ar
    24     2    23    1
    25    23    24   ar
    26    24    25   ar
    27    25    26   ar
    28    26    27   ar
    29    27    28   ar
    30    23    28   ar
    31     3    29    1
    32     4    30    1
    33    15    31    1
    34     8    32    1
    35     9    33    1
    36    10    34    1
    37    17    35    1
    38    18    36    1
    39    19    37    1
    40    20    38    1
    41    21    39    1
    42    22    40    1
    43    24    41    1
    44    25    42    1
    45    26    43    1
    46    27    44    1
    47    28    45    1
@<TRIPOS>MOLECULE
mol76_2_13
 45 47 0 0 0
SMALL
USER_CHARGES
****
VDW energy = 92.12
@<TRIPOS>ATOM
   1 O1        0.9439    -9.6922    -5.8421  O.2     1  <O>11      -0.2687
   2 C1        1.5306    -9.0649    -6.7113  C.2     1  <O>11       0.2601
   3 N1        2.8490    -8.7350    -6.5460  N.am    1  <O>11      -0.2301
   4 N2        3.5130    -9.1100    -5.4030  N.am    1  <O>11      -0.2301
   5 C2        4.8320    -8.7800    -5.2390  C.2     1  <O>11       0.2602
   6 O2        5.4170    -8.1520    -6.1090  O.2     1  <O>11      -0.2687
   7 C3        5.5330    -9.1740    -4.0370  C.ar    1  <O>11       0.0400
   8 C4        6.9231    -9.2991    -4.0650  C.ar    1  <O>11      -0.0495
   9 C5        7.6069    -9.6916    -2.9100  C.ar    1  <O>11      -0.0592
  10 C6        6.9036    -9.9532    -1.7306  C.ar    1  <O>11      -0.0350
  11 C7        5.5104    -9.8167    -1.7145  C.ar    1  <O>11       0.1092
  12 S1        4.6302   -10.1454    -0.2282  S.O2    1  <O>11       0.0724
  13 O3        5.3977    -9.4069     1.0455  O.2     1  <O>11      -0.1500
  14 O4        4.5783   -11.7859     0.0347  O.2     1  <O>11      -0.1500
  15 N3        3.0912    -9.5600    -0.3596  N.pl3   1  <O>11      -0.2163
  16 C8        2.8719    -8.1427    -0.5927  C.ar    1  <O>11       0.0480
  17 C9        1.5654    -7.6381    -0.7071  C.ar    1  <O>11      -0.0393
  18 C10       1.3563    -6.2759    -0.9448  C.ar    1  <O>11      -0.0600
  19 C11       2.4427    -5.4070    -1.0683  C.ar    1  <O>11      -0.0616
  20 C12       3.7423    -5.9087    -0.9485  C.ar    1  <O>11      -0.0600
  21 C13       3.9632    -7.2656    -0.7090  C.ar    1  <O>11      -0.0393
  22 C14       4.8208    -9.4238    -2.8625  C.ar    1  <O>11      -0.0229
  23 C15       0.8270    -8.6680    -7.9240  C.ar    1  <O>11       0.0382
  24 C16       0.8118    -9.5159    -9.0441  C.ar    1  <O>11      -0.0496
  25 C17       0.1451    -9.1290   -10.2123  C.ar    1  <O>11      -0.0610
  26 C18      -0.5129    -7.8981   -10.2719  C.ar    1  <O>11      -0.0617
  27 C19      -0.5038    -7.0569    -9.1532  C.ar    1  <O>11      -0.0610
  28 C20       0.1578    -7.4348    -7.9835  C.ar    1  <O>11      -0.0496
  29 H1        3.3390    -8.2120    -7.2710  H       1  <O>11       0.1731
  30 H2        3.0250    -9.6340    -4.6770  H       1  <O>11       0.1731
  31 H3        2.2969   -10.1917    -0.2741  H       1  <O>11       0.1737
  32 H4        7.4438    -9.1029    -4.9341  H       1  <O>11       0.0625
  33 H5        8.6342    -9.7884    -2.9284  H       1  <O>11       0.0618
  34 H6        7.4074   -10.2447    -0.8784  H       1  <O>11       0.0637
  35 H7        0.7581    -8.2744    -0.6155  H       1  <O>11       0.0636
  36 H8        0.3946    -5.9110    -1.0293  H       1  <O>11       0.0618
  37 H9        2.2874    -4.4025    -1.2467  H       1  <O>11       0.0618
  38 H10       4.5468    -5.2686    -1.0381  H       1  <O>11       0.0618
  39 H11       4.9266    -7.6241    -0.6174  H       1  <O>11       0.0636
  40 H12       3.7943    -9.3190    -2.8434  H       1  <O>11       0.0645
  41 H13       1.2941   -10.4275    -9.0053  H       1  <O>11       0.0625
  42 H14       0.1396    -9.7553   -11.0325  H       1  <O>11       0.0618
  43 H15      -1.0020    -7.6113   -11.1341  H       1  <O>11       0.0618
  44 H16      -0.9910    -6.1480    -9.1935  H       1  <O>11       0.0618
  45 H17       0.1551    -6.8087    -7.1633  H       1  <O>11       0.0625
@<TRIPOS>BOND
     1     1     2    2
     2     2     3   am
     3     3     4    1
     4     4     5   am
     5     5     6    2
     6     5     7    1
     7     7     8   ar
     8     8     9   ar
     9     9    10   ar
    10    10    11   ar
    11    11    12    1
    12    12    13    2
    13    12    14    2
    14    12    15    1
    15    15    16    1
    16    16    17   ar
    17    17    18   ar
    18    18    19   ar
    19    19    20   ar
    20    20    21   ar
    21    16    21   ar
    22    11    22   ar
    23     7    22   ar
    24     2    23    1
    25    23    24   ar
    26    24    25   ar
    27    25    26   ar
    28    26    27   ar
    29    27    28   ar
    30    23    28   ar
    31     3    29    1
    32     4    30    1
    33    15    31    1
    34     8    32    1
    35     9    33    1
    36    10    34    1
    37    17    35    1
    38    18    36    1
    39    19    37    1
    40    20    38    1
    41    21    39    1
    42    22    40    1
    43    24    41    1
    44    25    42    1
    45    26    43    1
    46    27    44    1
    47    28    45    1
@<TRIPOS>MOLECULE
mol76_2_14
 45 47 0 0 0
SMALL
USER_CHARGES
****
VDW energy = 92.63
@<TRIPOS>ATOM
   1 O1        0.9439    -9.6922    -5.8421  O.2     1  <O>11      -0.2687
   2 C1        1.5306    -9.0649    -6.7113  C.2     1  <O>11       0.2601
   3 N1        2.8490    -8.7350    -6.5460  N.am    1  <O>11      -0.2301
   4 N2        3.5130    -9.1100    -5.4030  N.am    1  <O>11      -0.2301
   5 C2        4.8320    -8.7800    -5.2390  C.2     1  <O>11       0.2602
   6 O2        5.4170    -8.1520    -6.1090  O.2     1  <O>11      -0.2687
   7 C3        5.5330    -9.1740    -4.0370  C.ar    1  <O>11       0.0400
   8 C4        4.8768    -9.1021    -2.8070  C.ar    1  <O>11      -0.0495
   9 C5        5.5519    -9.4697    -1.6388  C.ar    1  <O>11      -0.0592
  10 C6        6.8765    -9.9119    -1.7013  C.ar    1  <O>11      -0.0350
  11 C7        7.5203    -9.9862    -2.9423  C.ar    1  <O>11       0.1092
  12 S1        9.1860   -10.5445    -3.0160  S.O2    1  <O>11       0.0724
  13 O3        9.9686   -10.1420    -1.6080  O.2     1  <O>11      -0.1500
  14 O4        9.9563    -9.8243    -4.3009  O.2     1  <O>11      -0.1500
  15 N3        9.2081   -12.1848    -3.2101  N.pl3   1  <O>11      -0.2163
  16 C8       10.4768   -12.8871    -3.3011  C.ar    1  <O>11       0.0480
  17 C9       10.5032   -14.2825    -3.4647  C.ar    1  <O>11      -0.0393
  18 C10      11.7251   -14.9587    -3.5388  C.ar    1  <O>11      -0.0600
  19 C11      12.9274   -14.2532    -3.4528  C.ar    1  <O>11      -0.0616
  20 C12      12.9006   -12.8641    -3.2961  C.ar    1  <O>11      -0.0600
  21 C13      11.6874   -12.1784    -3.2233  C.ar    1  <O>11      -0.0393
  22 C14       6.8528    -9.6227    -4.1128  C.ar    1  <O>11      -0.0229
  23 C15       0.8270    -8.6680    -7.9240  C.ar    1  <O>11       0.0382
  24 C16       1.4714    -8.7335    -9.1707  C.ar    1  <O>11      -0.0496
  25 C17       0.7985    -8.3416   -10.3336  C.ar    1  <O>11      -0.0610
  26 C18      -0.5201    -7.8854   -10.2635  C.ar    1  <O>11      -0.0617
  27 C19      -1.1642    -7.8273    -9.0221  C.ar    1  <O>11      -0.0610
  28 C20      -0.5012    -8.2170    -7.8572  C.ar    1  <O>11      -0.0496
  29 H1        3.3390    -8.2120    -7.2710  H       1  <O>11       0.1731
  30 H2        3.0250    -9.6340    -4.6770  H       1  <O>11       0.1731
  31 H3        8.3332   -12.7026    -3.2690  H       1  <O>11       0.1737
  32 H4        3.8977    -8.7791    -2.7599  H       1  <O>11       0.0625
  33 H5        5.0707    -9.4143    -0.7275  H       1  <O>11       0.0618
  34 H6        7.3760   -10.1815    -0.8394  H       1  <O>11       0.0637
  35 H7        9.6184   -14.8098    -3.5303  H       1  <O>11       0.0636
  36 H8       11.7384   -15.9838    -3.6576  H       1  <O>11       0.0618
  37 H9       13.8285   -14.7535    -3.5046  H       1  <O>11       0.0618
  38 H10      13.7875   -12.3403    -3.2335  H       1  <O>11       0.0618
  39 H11      11.6795   -11.1524    -3.1124  H       1  <O>11       0.0636
  40 H12       7.3303    -9.6851    -5.0256  H       1  <O>11       0.0645
  41 H13       2.4446    -9.0719    -9.2291  H       1  <O>11       0.0625
  42 H14       1.2781    -8.3897   -11.2461  H       1  <O>11       0.0618
  43 H15      -1.0155    -7.5935   -11.1205  H       1  <O>11       0.0618
  44 H16      -2.1390    -7.4929    -8.9676  H       1  <O>11       0.0618
  45 H17      -0.9867    -8.1737    -6.9475  H       1  <O>11       0.0625
@<TRIPOS>BOND
     1     1     2    2
     2     2     3   am
     3     3     4    1
     4     4     5   am
     5     5     6    2
     6     5     7    1
     7     7     8   ar
     8     8     9   ar
     9     9    10   ar
    10    10    11   ar
    11    11    12    1
    12    12    13    2
    13    12    14    2
    14    12    15    1
    15    15    16    1
    16    16    17   ar
    17    17    18   ar
    18    18    19   ar
    19    19    20   ar
    20    20    21   ar
    21    16    21   ar
    22    11    22   ar
    23     7    22   ar
    24     2    23    1
    25    23    24   ar
    26    24    25   ar
    27    25    26   ar
    28    26    27   ar
    29    27    28   ar
    30    23    28   ar
    31     3    29    1
    32     4    30    1
    33    15    31    1
    34     8    32    1
    35     9    33    1
    36    10    34    1
    37    17    35    1
    38    18    36    1
    39    19    37    1
    40    20    38    1
    41    21    39    1
    42    22    40    1
    43    24    41    1
    44    25    42    1
    45    26    43    1
    46    27    44    1
    47    28    45    1
@<TRIPOS>MOLECULE
mol76_2_15
 45 47 0 0 0
SMALL
USER_CHARGES
****
VDW energy = 93.67
@<TRIPOS>ATOM
   1 O1        0.9439    -9.6922    -5.8421  O.2     1  <O>11      -0.2687
   2 C1        1.5306    -9.0649    -6.7113  C.2     1  <O>11       0.2601
   3 N1        2.8490    -8.7350    -6.5460  N.am    1  <O>11      -0.2301
   4 N2        3.5130    -9.1100    -5.4030  N.am    1  <O>11      -0.2301
   5 C2        4.8320    -8.7800    -5.2390  C.2     1  <O>11       0.2602
   6 O2        5.4170    -8.1520    -6.1090  O.2     1  <O>11      -0.2687
   7 C3        5.5330    -9.1740    -4.0370  C.ar    1  <O>11       0.0400
   8 C4        6.9231    -9.2991    -4.0650  C.ar    1  <O>11      -0.0495
   9 C5        7.6069    -9.6916    -2.9100  C.ar    1  <O>11      -0.0592
  10 C6        6.9036    -9.9532    -1.7306  C.ar    1  <O>11      -0.0350
  11 C7        5.5104    -9.8167    -1.7145  C.ar    1  <O>11       0.1092
  12 S1        4.6302   -10.1454    -0.2282  S.O2    1  <O>11       0.0724
  13 O3        5.3977    -9.4069     1.0455  O.2     1  <O>11      -0.1500
  14 O4        4.5783   -11.7859     0.0347  O.2     1  <O>11      -0.1500
  15 N3        3.0912    -9.5600    -0.3596  N.pl3   1  <O>11      -0.2163
  16 C8        2.1607    -9.7120     0.7460  C.ar    1  <O>11       0.0480
  17 C9        1.3414   -10.8505     0.8301  C.ar    1  <O>11      -0.0393
  18 C10       0.4369   -10.9891     1.8877  C.ar    1  <O>11      -0.0600
  19 C11       0.3421    -9.9993     2.8684  C.ar    1  <O>11      -0.0616
  20 C12       1.1618    -8.8695     2.7874  C.ar    1  <O>11      -0.0600
  21 C13       2.0698    -8.7214     1.7381  C.ar    1  <O>11      -0.0393
  22 C14       4.8208    -9.4238    -2.8625  C.ar    1  <O>11      -0.0229
  23 C15       0.8270    -8.6680    -7.9240  C.ar    1  <O>11       0.0382
  24 C16      -0.5761    -8.7156    -7.9768  C.ar    1  <O>11      -0.0496
  25 C17      -1.2506    -8.3447    -9.1458  C.ar    1  <O>11      -0.0610
  26 C18      -0.5335    -7.9215   -10.2675  C.ar    1  <O>11      -0.0617
  27 C19       0.8641    -7.8672   -10.2120  C.ar    1  <O>11      -0.0610
  28 C20       1.5452    -8.2342    -9.0501  C.ar    1  <O>11      -0.0496
  29 H1        3.3390    -8.2120    -7.2710  H       1  <O>11       0.1731
  30 H2        3.0250    -9.6340    -4.6770  H       1  <O>11       0.1731
  31 H3        2.7941    -9.0958    -1.2160  H       1  <O>11       0.1737
  32 H4        7.4438    -9.1029    -4.9341  H       1  <O>11       0.0625
  33 H5        8.6342    -9.7884    -2.9284  H       1  <O>11       0.0618
  34 H6        7.4074   -10.2447    -0.8784  H       1  <O>11       0.0637
  35 H7        1.4073   -11.5863     0.1096  H       1  <O>11       0.0636
  36 H8       -0.1633   -11.8267     1.9437  H       1  <O>11       0.0618
  37 H9       -0.3278   -10.1010     3.6468  H       1  <O>11       0.0618
  38 H10       1.0946    -8.1372     3.5115  H       1  <O>11       0.0618
  39 H11       2.6734    -7.8856     1.6910  H       1  <O>11       0.0636
  40 H12       3.7943    -9.3190    -2.8434  H       1  <O>11       0.0645
  41 H13      -1.1114    -9.0251    -7.1506  H       1  <O>11       0.0625
  42 H14      -2.2813    -8.3841    -9.1791  H       1  <O>11       0.0618
  43 H15      -1.0304    -7.6509   -11.1306  H       1  <O>11       0.0618
  44 H16       1.3963    -7.5527   -11.0383  H       1  <O>11       0.0618
  45 H17       2.5756    -8.1869    -9.0187  H       1  <O>11       0.0625
@<TRIPOS>BOND
     1     1     2    2
     2     2     3   am
     3     3     4    1
     4     4     5   am
     5     5     6    2
     6     5     7    1
     7     7     8   ar
     8     8     9   ar
     9     9    10   ar
    10    10    11   ar
    11    11    12    1
    12    12    13    2
    13    12    14    2
    14    12    15    1
    15    15    16    1
    16    16    17   ar
    17    17    18   ar
    18    18    19   ar
    19    19    20   ar
    20    20    21   ar
    21    16    21   ar
    22    11    22   ar
    23     7    22   ar
    24     2    23    1
    25    23    24   ar
    26    24    25   ar
    27    25    26   ar
    28    26    27   ar
    29    27    28   ar
    30    23    28   ar
    31     3    29    1
    32     4    30    1
    33    15    31    1
    34     8    32    1
    35     9    33    1
    36    10    34    1
    37    17    35    1
    38    18    36    1
    39    19    37    1
    40    20    38    1
    41    21    39    1
    42    22    40    1
    43    24    41    1
    44    25    42    1
    45    26    43    1
    46    27    44    1
    47    28    45    1
@<TRIPOS>MOLECULE
mol76_2_16
 45 47 0 0 0
SMALL
USER_CHARGES
****
VDW energy = 93.67
@<TRIPOS>ATOM
   1 O1        0.9439    -9.6922    -5.8421  O.2     1  <O>11      -0.2687
   2 C1        1.5306    -9.0649    -6.7113  C.2     1  <O>11       0.2601
   3 N1        2.8490    -8.7350    -6.5460  N.am    1  <O>11      -0.2301
   4 N2        3.5130    -9.1100    -5.4030  N.am    1  <O>11      -0.2301
   5 C2        4.8320    -8.7800    -5.2390  C.2     1  <O>11       0.2602
   6 O2        5.4170    -8.1520    -6.1090  O.2     1  <O>11      -0.2687
   7 C3        5.5330    -9.1740    -4.0370  C.ar    1  <O>11       0.0400
   8 C4        6.9231    -9.2991    -4.0650  C.ar    1  <O>11      -0.0495
   9 C5        7.6069    -9.6916    -2.9100  C.ar    1  <O>11      -0.0592
  10 C6        6.9036    -9.9532    -1.7306  C.ar    1  <O>11      -0.0350
  11 C7        5.5104    -9.8167    -1.7145  C.ar    1  <O>11       0.1092
  12 S1        4.6302   -10.1454    -0.2282  S.O2    1  <O>11       0.0724
  13 O3        5.3977    -9.4069     1.0455  O.2     1  <O>11      -0.1500
  14 O4        4.5783   -11.7859     0.0347  O.2     1  <O>11      -0.1500
  15 N3        3.0912    -9.5600    -0.3596  N.pl3   1  <O>11      -0.2163
  16 C8        2.1607    -9.7120     0.7460  C.ar    1  <O>11       0.0480
  17 C9        2.0736    -8.7216     1.7390  C.ar    1  <O>11      -0.0393
  18 C10       1.1871    -8.8756     2.8096  C.ar    1  <O>11      -0.0600
  19 C11       0.3810   -10.0126     2.8993  C.ar    1  <O>11      -0.0616
  20 C12       0.4639   -10.9949     1.9078  C.ar    1  <O>11      -0.0600
  21 C13       1.3429   -10.8511     0.8337  C.ar    1  <O>11      -0.0393
  22 C14       4.8208    -9.4238    -2.8625  C.ar    1  <O>11      -0.0229
  23 C15       0.8270    -8.6680    -7.9240  C.ar    1  <O>11       0.0382
  24 C16      -0.5761    -8.7156    -7.9768  C.ar    1  <O>11      -0.0496
  25 C17      -1.2506    -8.3447    -9.1458  C.ar    1  <O>11      -0.0610
  26 C18      -0.5335    -7.9215   -10.2675  C.ar    1  <O>11      -0.0617
  27 C19       0.8641    -7.8672   -10.2120  C.ar    1  <O>11      -0.0610
  28 C20       1.5452    -8.2342    -9.0501  C.ar    1  <O>11      -0.0496
  29 H1        3.3390    -8.2120    -7.2710  H       1  <O>11       0.1731
  30 H2        3.0250    -9.6340    -4.6770  H       1  <O>11       0.1731
  31 H3        2.7941    -9.0958    -1.2160  H       1  <O>11       0.1737
  32 H4        7.4438    -9.1029    -4.9341  H       1  <O>11       0.0625
  33 H5        8.6342    -9.7884    -2.9284  H       1  <O>11       0.0618
  34 H6        7.4074   -10.2447    -0.8784  H       1  <O>11       0.0637
  35 H7        2.6653    -7.8783     1.6781  H       1  <O>11       0.0636
  36 H8        1.1282    -8.1456     3.5367  H       1  <O>11       0.0618
  37 H9       -0.2707   -10.1267     3.6913  H       1  <O>11       0.0618
  38 H10      -0.1315   -11.8355     1.9711  H       1  <O>11       0.0618
  39 H11       1.3923   -11.5802     0.1049  H       1  <O>11       0.0636
  40 H12       3.7943    -9.3190    -2.8434  H       1  <O>11       0.0645
  41 H13      -1.1114    -9.0251    -7.1506  H       1  <O>11       0.0625
  42 H14      -2.2813    -8.3841    -9.1791  H       1  <O>11       0.0618
  43 H15      -1.0304    -7.6509   -11.1306  H       1  <O>11       0.0618
  44 H16       1.3963    -7.5527   -11.0383  H       1  <O>11       0.0618
  45 H17       2.5756    -8.1869    -9.0187  H       1  <O>11       0.0625
@<TRIPOS>BOND
     1     1     2    2
     2     2     3   am
     3     3     4    1
     4     4     5   am
     5     5     6    2
     6     5     7    1
     7     7     8   ar
     8     8     9   ar
     9     9    10   ar
    10    10    11   ar
    11    11    12    1
    12    12    13    2
    13    12    14    2
    14    12    15    1
    15    15    16    1
    16    16    17   ar
    17    17    18   ar
    18    18    19   ar
    19    19    20   ar
    20    20    21   ar
    21    16    21   ar
    22    11    22   ar
    23     7    22   ar
    24     2    23    1
    25    23    24   ar
    26    24    25   ar
    27    25    26   ar
    28    26    27   ar
    29    27    28   ar
    30    23    28   ar
    31     3    29    1
    32     4    30    1
    33    15    31    1
    34     8    32    1
    35     9    33    1
    36    10    34    1
    37    17    35    1
    38    18    36    1
    39    19    37    1
    40    20    38    1
    41    21    39    1
    42    22    40    1
    43    24    41    1
    44    25    42    1
    45    26    43    1
    46    27    44    1
    47    28    45    1
@<TRIPOS>MOLECULE
mol76_2_17
 45 47 0 0 0
SMALL
USER_CHARGES
****
VDW energy = 94.01
@<TRIPOS>ATOM
   1 O1        0.9439    -9.6922    -5.8421  O.2     1  <O>11      -0.2687
   2 C1        1.5306    -9.0649    -6.7113  C.2     1  <O>11       0.2601
   3 N1        2.8490    -8.7350    -6.5460  N.am    1  <O>11      -0.2301
   4 N2        3.5130    -9.1100    -5.4030  N.am    1  <O>11      -0.2301
   5 C2        4.8320    -8.7800    -5.2390  C.2     1  <O>11       0.2602
   6 O2        5.4170    -8.1520    -6.1090  O.2     1  <O>11      -0.2687
   7 C3        5.5330    -9.1740    -4.0370  C.ar    1  <O>11       0.0400
   8 C4        6.9231    -9.2991    -4.0650  C.ar    1  <O>11      -0.0495
   9 C5        7.6069    -9.6916    -2.9100  C.ar    1  <O>11      -0.0592
  10 C6        6.9036    -9.9532    -1.7306  C.ar    1  <O>11      -0.0350
  11 C7        5.5104    -9.8167    -1.7145  C.ar    1  <O>11       0.1092
  12 S1        4.6302   -10.1454    -0.2282  S.O2    1  <O>11       0.0724
  13 O3        5.3977    -9.4069     1.0455  O.2     1  <O>11      -0.1500
  14 O4        4.5783   -11.7859     0.0347  O.2     1  <O>11      -0.1500
  15 N3        3.0912    -9.5600    -0.3596  N.pl3   1  <O>11      -0.2163
  16 C8        2.1607    -9.7120     0.7460  C.ar    1  <O>11       0.0480
  17 C9        0.8505    -9.2151     0.6418  C.ar    1  <O>11      -0.0393
  18 C10      -0.0398    -9.3504     1.7118  C.ar    1  <O>11      -0.0600
  19 C11       0.3650    -9.9812     2.8902  C.ar    1  <O>11      -0.0616
  20 C12       1.6670   -10.4808     2.9911  C.ar    1  <O>11      -0.0600
  21 C13       2.5634   -10.3537     1.9292  C.ar    1  <O>11      -0.0393
  22 C14       4.8208    -9.4238    -2.8625  C.ar    1  <O>11      -0.0229
  23 C15       0.8270    -8.6680    -7.9240  C.ar    1  <O>11       0.0382
  24 C16       0.8118    -9.5159    -9.0441  C.ar    1  <O>11      -0.0496
  25 C17       0.1451    -9.1290   -10.2123  C.ar    1  <O>11      -0.0610
  26 C18      -0.5129    -7.8981   -10.2719  C.ar    1  <O>11      -0.0617
  27 C19      -0.5038    -7.0569    -9.1532  C.ar    1  <O>11      -0.0610
  28 C20       0.1578    -7.4348    -7.9835  C.ar    1  <O>11      -0.0496
  29 H1        3.3390    -8.2120    -7.2710  H       1  <O>11       0.1731
  30 H2        3.0250    -9.6340    -4.6770  H       1  <O>11       0.1731
  31 H3        2.7941    -9.0958    -1.2160  H       1  <O>11       0.1737
  32 H4        7.4438    -9.1029    -4.9341  H       1  <O>11       0.0625
  33 H5        8.6342    -9.7884    -2.9284  H       1  <O>11       0.0618
  34 H6        7.4074   -10.2447    -0.8784  H       1  <O>11       0.0637
  35 H7        0.5444    -8.7491    -0.2266  H       1  <O>11       0.0636
  36 H8       -1.0005    -8.9823     1.6302  H       1  <O>11       0.0618
  37 H9       -0.2917   -10.0779     3.6803  H       1  <O>11       0.0618
  38 H10       1.9684   -10.9484     3.8603  H       1  <O>11       0.0618
  39 H11       3.5206   -10.7305     2.0128  H       1  <O>11       0.0636
  40 H12       3.7943    -9.3190    -2.8434  H       1  <O>11       0.0645
  41 H13       1.2941   -10.4275    -9.0053  H       1  <O>11       0.0625
  42 H14       0.1396    -9.7553   -11.0325  H       1  <O>11       0.0618
  43 H15      -1.0020    -7.6113   -11.1341  H       1  <O>11       0.0618
  44 H16      -0.9910    -6.1480    -9.1935  H       1  <O>11       0.0618
  45 H17       0.1551    -6.8087    -7.1633  H       1  <O>11       0.0625
@<TRIPOS>BOND
     1     1     2    2
     2     2     3   am
     3     3     4    1
     4     4     5   am
     5     5     6    2
     6     5     7    1
     7     7     8   ar
     8     8     9   ar
     9     9    10   ar
    10    10    11   ar
    11    11    12    1
    12    12    13    2
    13    12    14    2
    14    12    15    1
    15    15    16    1
    16    16    17   ar
    17    17    18   ar
    18    18    19   ar
    19    19    20   ar
    20    20    21   ar
    21    16    21   ar
    22    11    22   ar
    23     7    22   ar
    24     2    23    1
    25    23    24   ar
    26    24    25   ar
    27    25    26   ar
    28    26    27   ar
    29    27    28   ar
    30    23    28   ar
    31     3    29    1
    32     4    30    1
    33    15    31    1
    34     8    32    1
    35     9    33    1
    36    10    34    1
    37    17    35    1
    38    18    36    1
    39    19    37    1
    40    20    38    1
    41    21    39    1
    42    22    40    1
    43    24    41    1
    44    25    42    1
    45    26    43    1
    46    27    44    1
    47    28    45    1
@<TRIPOS>MOLECULE
mol76_2_18
 45 47 0 0 0
SMALL
USER_CHARGES
****
VDW energy = 94.17
@<TRIPOS>ATOM
   1 O1        0.9439    -9.6922    -5.8421  O.2     1  <O>11      -0.2687
   2 C1        1.5306    -9.0649    -6.7113  C.2     1  <O>11       0.2601
   3 N1        2.8490    -8.7350    -6.5460  N.am    1  <O>11      -0.2301
   4 N2        3.5086    -8.0297    -7.5235  N.am    1  <O>11      -0.2301
   5 C2        4.8272    -7.6997    -7.3568  C.2     1  <O>11       0.2602
   6 O2        5.4161    -8.0332    -6.3392  O.2     1  <O>11      -0.2687
   7 C3        5.5233    -6.9571    -8.3842  C.ar    1  <O>11       0.0400
   8 C4        6.6469    -6.2028    -8.0414  C.ar    1  <O>11      -0.0495
   9 C5        7.3181    -5.4722    -9.0270  C.ar    1  <O>11      -0.0592
  10 C6        6.8700    -5.4999   -10.3508  C.ar    1  <O>11      -0.0350
  11 C7        5.7463    -6.2663   -10.6821  C.ar    1  <O>11       0.1092
  12 S1        5.1875    -6.2991   -12.3490  S.O2    1  <O>11       0.0724
  13 O3        6.4825    -6.5225   -13.3637  O.2     1  <O>11      -0.1500
  14 O4        4.4431    -4.8582   -12.7130  O.2     1  <O>11      -0.1500
  15 N3        4.1130    -7.5385   -12.5445  N.pl3   1  <O>11      -0.2163
  16 C8        4.5290    -8.9063   -12.2854  C.ar    1  <O>11       0.0480
  17 C9        3.6198    -9.9654   -12.4481  C.ar    1  <O>11      -0.0393
  18 C10       4.0178   -11.2801   -12.1856  C.ar    1  <O>11      -0.0600
  19 C11       5.3208   -11.5508   -11.7620  C.ar    1  <O>11      -0.0616
  20 C12       6.2267   -10.4973   -11.6060  C.ar    1  <O>11      -0.0600
  21 C13       5.8417    -9.1817   -11.8672  C.ar    1  <O>11      -0.0393
  22 C14       5.0721    -6.9995    -9.7046  C.ar    1  <O>11      -0.0229
  23 C15       0.8270    -8.6680    -7.9240  C.ar    1  <O>11       0.0382
  24 C16       0.8118    -9.5159    -9.0441  C.ar    1  <O>11      -0.0496
  25 C17       0.1451    -9.1290   -10.2123  C.ar    1  <O>11      -0.0610
  26 C18      -0.5129    -7.8981   -10.2719  C.ar    1  <O>11      -0.0617
  27 C19      -0.5038    -7.0569    -9.1532  C.ar    1  <O>11      -0.0610
  28 C20       0.1578    -7.4348    -7.9835  C.ar    1  <O>11      -0.0496
  29 H1        3.3417    -9.0114    -5.6974  H       1  <O>11       0.1731
  30 H2        3.0173    -7.7515    -8.3727  H       1  <O>11       0.1731
  31 H3        3.1610    -7.3439   -12.8492  H       1  <O>11       0.1737
  32 H4        6.9807    -6.1845    -7.0651  H       1  <O>11       0.0625
  33 H5        8.1469    -4.9109    -8.7761  H       1  <O>11       0.0618
  34 H6        7.3637    -4.9595   -11.0783  H       1  <O>11       0.0637
  35 H7        2.6559    -9.7725   -12.7622  H       1  <O>11       0.0636
  36 H8        3.3455   -12.0538   -12.3055  H       1  <O>11       0.0618
  37 H9        5.6127   -12.5210   -11.5656  H       1  <O>11       0.0618
  38 H10       7.1904   -10.6948   -11.2943  H       1  <O>11       0.0618
  39 H11       6.5200    -8.4123   -11.7534  H       1  <O>11       0.0636
  40 H12       4.2478    -7.5676    -9.9554  H       1  <O>11       0.0645
  41 H13       1.2941   -10.4275    -9.0053  H       1  <O>11       0.0625
  42 H14       0.1396    -9.7553   -11.0325  H       1  <O>11       0.0618
  43 H15      -1.0020    -7.6113   -11.1341  H       1  <O>11       0.0618
  44 H16      -0.9910    -6.1480    -9.1935  H       1  <O>11       0.0618
  45 H17       0.1551    -6.8087    -7.1633  H       1  <O>11       0.0625
@<TRIPOS>BOND
     1     1     2    2
     2     2     3   am
     3     3     4    1
     4     4     5   am
     5     5     6    2
     6     5     7    1
     7     7     8   ar
     8     8     9   ar
     9     9    10   ar
    10    10    11   ar
    11    11    12    1
    12    12    13    2
    13    12    14    2
    14    12    15    1
    15    15    16    1
    16    16    17   ar
    17    17    18   ar
    18    18    19   ar
    19    19    20   ar
    20    20    21   ar
    21    16    21   ar
    22    11    22   ar
    23     7    22   ar
    24     2    23    1
    25    23    24   ar
    26    24    25   ar
    27    25    26   ar
    28    26    27   ar
    29    27    28   ar
    30    23    28   ar
    31     3    29    1
    32     4    30    1
    33    15    31    1
    34     8    32    1
    35     9    33    1
    36    10    34    1
    37    17    35    1
    38    18    36    1
    39    19    37    1
    40    20    38    1
    41    21    39    1
    42    22    40    1
    43    24    41    1
    44    25    42    1
    45    26    43    1
    46    27    44    1
    47    28    45    1
@<TRIPOS>MOLECULE
mol76_2_19
 45 47 0 0 0
SMALL
USER_CHARGES
****
VDW energy = 94.19
@<TRIPOS>ATOM
   1 O1        0.9439    -9.6922    -5.8421  O.2     1  <O>11      -0.2687
   2 C1        1.5306    -9.0649    -6.7113  C.2     1  <O>11       0.2601
   3 N1        2.8490    -8.7350    -6.5460  N.am    1  <O>11      -0.2301
   4 N2        3.5086    -8.0297    -7.5235  N.am    1  <O>11      -0.2301
   5 C2        4.8272    -7.6997    -7.3568  C.2     1  <O>11       0.2602
   6 O2        5.4161    -8.0332    -6.3392  O.2     1  <O>11      -0.2687
   7 C3        5.5233    -6.9571    -8.3842  C.ar    1  <O>11       0.0400
   8 C4        6.6469    -6.2028    -8.0414  C.ar    1  <O>11      -0.0495
   9 C5        7.3181    -5.4722    -9.0270  C.ar    1  <O>11      -0.0592
  10 C6        6.8700    -5.4999   -10.3508  C.ar    1  <O>11      -0.0350
  11 C7        5.7463    -6.2663   -10.6821  C.ar    1  <O>11       0.1092
  12 S1        5.1875    -6.2991   -12.3490  S.O2    1  <O>11       0.0724
  13 O3        6.4825    -6.5225   -13.3637  O.2     1  <O>11      -0.1500
  14 O4        4.4431    -4.8582   -12.7130  O.2     1  <O>11      -0.1500
  15 N3        4.1130    -7.5385   -12.5445  N.pl3   1  <O>11      -0.2163
  16 C8        4.5290    -8.9063   -12.2854  C.ar    1  <O>11       0.0480
  17 C9        3.6198    -9.9654   -12.4481  C.ar    1  <O>11      -0.0393
  18 C10       4.0178   -11.2801   -12.1856  C.ar    1  <O>11      -0.0600
  19 C11       5.3208   -11.5508   -11.7620  C.ar    1  <O>11      -0.0616
  20 C12       6.2267   -10.4973   -11.6060  C.ar    1  <O>11      -0.0600
  21 C13       5.8417    -9.1817   -11.8672  C.ar    1  <O>11      -0.0393
  22 C14       5.0721    -6.9995    -9.7046  C.ar    1  <O>11      -0.0229
  23 C15       0.8270    -8.6680    -7.9240  C.ar    1  <O>11       0.0382
  24 C16       0.1579    -7.4341    -7.9833  C.ar    1  <O>11      -0.0496
  25 C17      -0.5270    -7.0585    -9.1447  C.ar    1  <O>11      -0.0610
  26 C18      -0.5475    -7.9067   -10.2546  C.ar    1  <O>11      -0.0617
  27 C19       0.1255    -9.1327   -10.1976  C.ar    1  <O>11      -0.0610
  28 C20       0.8119    -9.5151    -9.0439  C.ar    1  <O>11      -0.0496
  29 H1        3.3417    -9.0114    -5.6974  H       1  <O>11       0.1731
  30 H2        3.0173    -7.7515    -8.3727  H       1  <O>11       0.1731
  31 H3        3.1610    -7.3439   -12.8492  H       1  <O>11       0.1737
  32 H4        6.9807    -6.1845    -7.0651  H       1  <O>11       0.0625
  33 H5        8.1469    -4.9109    -8.7761  H       1  <O>11       0.0618
  34 H6        7.3637    -4.9595   -11.0783  H       1  <O>11       0.0637
  35 H7        2.6559    -9.7725   -12.7622  H       1  <O>11       0.0636
  36 H8        3.3455   -12.0538   -12.3055  H       1  <O>11       0.0618
  37 H9        5.6127   -12.5210   -11.5656  H       1  <O>11       0.0618
  38 H10       7.1904   -10.6948   -11.2943  H       1  <O>11       0.0618
  39 H11       6.5200    -8.4123   -11.7534  H       1  <O>11       0.0636
  40 H12       4.2478    -7.5676    -9.9554  H       1  <O>11       0.0645
  41 H13       0.1715    -6.8022    -7.1675  H       1  <O>11       0.0625
  42 H14      -1.0186    -6.1519    -9.1812  H       1  <O>11       0.0618
  43 H15      -1.0550    -7.6314   -11.1100  H       1  <O>11       0.0618
  44 H16       0.1140    -9.7603   -11.0168  H       1  <O>11       0.0618
  45 H17       1.3079   -10.4196    -9.0139  H       1  <O>11       0.0625
@<TRIPOS>BOND
     1     1     2    2
     2     2     3   am
     3     3     4    1
     4     4     5   am
     5     5     6    2
     6     5     7    1
     7     7     8   ar
     8     8     9   ar
     9     9    10   ar
    10    10    11   ar
    11    11    12    1
    12    12    13    2
    13    12    14    2
    14    12    15    1
    15    15    16    1
    16    16    17   ar
    17    17    18   ar
    18    18    19   ar
    19    19    20   ar
    20    20    21   ar
    21    16    21   ar
    22    11    22   ar
    23     7    22   ar
    24     2    23    1
    25    23    24   ar
    26    24    25   ar
    27    25    26   ar
    28    26    27   ar
    29    27    28   ar
    30    23    28   ar
    31     3    29    1
    32     4    30    1
    33    15    31    1
    34     8    32    1
    35     9    33    1
    36    10    34    1
    37    17    35    1
    38    18    36    1
    39    19    37    1
    40    20    38    1
    41    21    39    1
    42    22    40    1
    43    24    41    1
    44    25    42    1
    45    26    43    1
    46    27    44    1
    47    28    45    1
@<TRIPOS>MOLECULE
mol76_2_20
 45 47 0 0 0
SMALL
USER_CHARGES
****
VDW energy = 94.65
@<TRIPOS>ATOM
   1 O1        0.9439    -9.6922    -5.8421  O.2     1  <O>11      -0.2687
   2 C1        1.5306    -9.0649    -6.7113  C.2     1  <O>11       0.2601
   3 N1        2.8490    -8.7350    -6.5460  N.am    1  <O>11      -0.2301
   4 N2        3.5130    -9.1100    -5.4030  N.am    1  <O>11      -0.2301
   5 C2        4.8320    -8.7800    -5.2390  C.2     1  <O>11       0.2602
   6 O2        5.4170    -8.1520    -6.1090  O.2     1  <O>11      -0.2687
   7 C3        5.5330    -9.1740    -4.0370  C.ar    1  <O>11       0.0400
   8 C4        6.9231    -9.2991    -4.0650  C.ar    1  <O>11      -0.0495
   9 C5        7.6069    -9.6916    -2.9100  C.ar    1  <O>11      -0.0592
  10 C6        6.9036    -9.9532    -1.7306  C.ar    1  <O>11      -0.0350
  11 C7        5.5104    -9.8167    -1.7145  C.ar    1  <O>11       0.1092
  12 S1        4.6302   -10.1454    -0.2282  S.O2    1  <O>11       0.0724
  13 O3        5.3977    -9.4069     1.0455  O.2     1  <O>11      -0.1500
  14 O4        4.5783   -11.7859     0.0347  O.2     1  <O>11      -0.1500
  15 N3        3.0912    -9.5600    -0.3596  N.pl3   1  <O>11      -0.2163
  16 C8        2.1607    -9.7120     0.7460  C.ar    1  <O>11       0.0480
  17 C9        2.3929    -9.0486     1.9628  C.ar    1  <O>11      -0.0393
  18 C10       1.5035    -9.2064     3.0304  C.ar    1  <O>11      -0.0600
  19 C11       0.3779   -10.0221     2.8954  C.ar    1  <O>11      -0.0616
  20 C12       0.1442   -10.6773     1.6825  C.ar    1  <O>11      -0.0600
  21 C13       1.0233   -10.5254     0.6095  C.ar    1  <O>11      -0.0393
  22 C14       4.8208    -9.4238    -2.8625  C.ar    1  <O>11      -0.0229
  23 C15       0.8270    -8.6680    -7.9240  C.ar    1  <O>11       0.0382
  24 C16      -0.5761    -8.7156    -7.9768  C.ar    1  <O>11      -0.0496
  25 C17      -1.2506    -8.3447    -9.1458  C.ar    1  <O>11      -0.0610
  26 C18      -0.5335    -7.9215   -10.2675  C.ar    1  <O>11      -0.0617
  27 C19       0.8641    -7.8672   -10.2120  C.ar    1  <O>11      -0.0610
  28 C20       1.5452    -8.2342    -9.0501  C.ar    1  <O>11      -0.0496
  29 H1        3.3390    -8.2120    -7.2710  H       1  <O>11       0.1731
  30 H2        3.0250    -9.6340    -4.6770  H       1  <O>11       0.1731
  31 H3        2.7941    -9.0958    -1.2160  H       1  <O>11       0.1737
  32 H4        7.4438    -9.1029    -4.9341  H       1  <O>11       0.0625
  33 H5        8.6342    -9.7884    -2.9284  H       1  <O>11       0.0618
  34 H6        7.4074   -10.2447    -0.8784  H       1  <O>11       0.0637
  35 H7        3.2220    -8.4433     2.0689  H       1  <O>11       0.0636
  36 H8        1.6797    -8.7179     3.9222  H       1  <O>11       0.0618
  37 H9       -0.2762   -10.1404     3.6848  H       1  <O>11       0.0618
  38 H10      -0.6874   -11.2796     1.5797  H       1  <O>11       0.0618
  39 H11       0.8384   -11.0099    -0.2828  H       1  <O>11       0.0636
  40 H12       3.7943    -9.3190    -2.8434  H       1  <O>11       0.0645
  41 H13      -1.1114    -9.0251    -7.1506  H       1  <O>11       0.0625
  42 H14      -2.2813    -8.3841    -9.1791  H       1  <O>11       0.0618
  43 H15      -1.0304    -7.6509   -11.1306  H       1  <O>11       0.0618
  44 H16       1.3963    -7.5527   -11.0383  H       1  <O>11       0.0618
  45 H17       2.5756    -8.1869    -9.0187  H       1  <O>11       0.0625
@<TRIPOS>BOND
     1     1     2    2
     2     2     3   am
     3     3     4    1
     4     4     5   am
     5     5     6    2
     6     5     7    1
     7     7     8   ar
     8     8     9   ar
     9     9    10   ar
    10    10    11   ar
    11    11    12    1
    12    12    13    2
    13    12    14    2
    14    12    15    1
    15    15    16    1
    16    16    17   ar
    17    17    18   ar
    18    18    19   ar
    19    19    20   ar
    20    20    21   ar
    21    16    21   ar
    22    11    22   ar
    23     7    22   ar
    24     2    23    1
    25    23    24   ar
    26    24    25   ar
    27    25    26   ar
    28    26    27   ar
    29    27    28   ar
    30    23    28   ar
    31     3    29    1
    32     4    30    1
    33    15    31    1
    34     8    32    1
    35     9    33    1
    36    10    34    1
    37    17    35    1
    38    18    36    1
    39    19    37    1
    40    20    38    1
    41    21    39    1
    42    22    40    1
    43    24    41    1
    44    25    42    1
    45    26    43    1
    46    27    44    1
    47    28    45    1
@<TRIPOS>MOLECULE
mol76_2_21
 45 47 0 0 0
SMALL
USER_CHARGES
****
VDW energy = 96.57
@<TRIPOS>ATOM
   1 O1        0.9439    -9.6922    -5.8421  O.2     1  <O>11      -0.2687
   2 C1        1.5306    -9.0649    -6.7113  C.2     1  <O>11       0.2601
   3 N1        2.8490    -8.7350    -6.5460  N.am    1  <O>11      -0.2301
   4 N2        3.5086    -8.0297    -7.5235  N.am    1  <O>11      -0.2301
   5 C2        4.8272    -7.6997    -7.3568  C.2     1  <O>11       0.2602
   6 O2        5.4161    -8.0332    -6.3392  O.2     1  <O>11      -0.2687
   7 C3        5.5233    -6.9571    -8.3842  C.ar    1  <O>11       0.0400
   8 C4        6.6469    -6.2028    -8.0414  C.ar    1  <O>11      -0.0495
   9 C5        7.3181    -5.4722    -9.0270  C.ar    1  <O>11      -0.0592
  10 C6        6.8700    -5.4999   -10.3508  C.ar    1  <O>11      -0.0350
  11 C7        5.7463    -6.2663   -10.6821  C.ar    1  <O>11       0.1092
  12 S1        5.1875    -6.2991   -12.3490  S.O2    1  <O>11       0.0724
  13 O3        6.4825    -6.5225   -13.3637  O.2     1  <O>11      -0.1500
  14 O4        4.4431    -4.8582   -12.7130  O.2     1  <O>11      -0.1500
  15 N3        4.1130    -7.5385   -12.5445  N.pl3   1  <O>11      -0.2163
  16 C8        3.5046    -7.7726   -13.8430  C.ar    1  <O>11       0.0480
  17 C9        2.5910    -8.8260   -14.0169  C.ar    1  <O>11      -0.0393
  18 C10       2.0163    -9.0583   -15.2705  C.ar    1  <O>11      -0.0600
  19 C11       2.3439    -8.2452   -16.3577  C.ar    1  <O>11      -0.0616
  20 C12       3.2485    -7.1935   -16.1827  C.ar    1  <O>11      -0.0600
  21 C13       3.8264    -6.9506   -14.9360  C.ar    1  <O>11      -0.0393
  22 C14       5.0721    -6.9995    -9.7046  C.ar    1  <O>11      -0.0229
  23 C15       0.8270    -8.6680    -7.9240  C.ar    1  <O>11       0.0382
  24 C16       0.8118    -9.5159    -9.0441  C.ar    1  <O>11      -0.0496
  25 C17       0.1451    -9.1290   -10.2123  C.ar    1  <O>11      -0.0610
  26 C18      -0.5129    -7.8981   -10.2719  C.ar    1  <O>11      -0.0617
  27 C19      -0.5038    -7.0569    -9.1532  C.ar    1  <O>11      -0.0610
  28 C20       0.1578    -7.4348    -7.9835  C.ar    1  <O>11      -0.0496
  29 H1        3.3417    -9.0114    -5.6974  H       1  <O>11       0.1731
  30 H2        3.0173    -7.7515    -8.3727  H       1  <O>11       0.1731
  31 H3        3.8752    -8.1358   -11.7547  H       1  <O>11       0.1737
  32 H4        6.9807    -6.1845    -7.0651  H       1  <O>11       0.0625
  33 H5        8.1469    -4.9109    -8.7761  H       1  <O>11       0.0618
  34 H6        7.3637    -4.9595   -11.0783  H       1  <O>11       0.0637
  35 H7        2.3435    -9.4298   -13.2174  H       1  <O>11       0.0636
  36 H8        1.3470    -9.8343   -15.3928  H       1  <O>11       0.0618
  37 H9        1.9216    -8.4193   -17.2831  H       1  <O>11       0.0618
  38 H10       3.4913    -6.5904   -16.9841  H       1  <O>11       0.0618
  39 H11       4.4892    -6.1684   -14.8170  H       1  <O>11       0.0636
  40 H12       4.2478    -7.5676    -9.9554  H       1  <O>11       0.0645
  41 H13       1.2941   -10.4275    -9.0053  H       1  <O>11       0.0625
  42 H14       0.1396    -9.7553   -11.0325  H       1  <O>11       0.0618
  43 H15      -1.0020    -7.6113   -11.1341  H       1  <O>11       0.0618
  44 H16      -0.9910    -6.1480    -9.1935  H       1  <O>11       0.0618
  45 H17       0.1551    -6.8087    -7.1633  H       1  <O>11       0.0625
@<TRIPOS>BOND
     1     1     2    2
     2     2     3   am
     3     3     4    1
     4     4     5   am
     5     5     6    2
     6     5     7    1
     7     7     8   ar
     8     8     9   ar
     9     9    10   ar
    10    10    11   ar
    11    11    12    1
    12    12    13    2
    13    12    14    2
    14    12    15    1
    15    15    16    1
    16    16    17   ar
    17    17    18   ar
    18    18    19   ar
    19    19    20   ar
    20    20    21   ar
    21    16    21   ar
    22    11    22   ar
    23     7    22   ar
    24     2    23    1
    25    23    24   ar
    26    24    25   ar
    27    25    26   ar
    28    26    27   ar
    29    27    28   ar
    30    23    28   ar
    31     3    29    1
    32     4    30    1
    33    15    31    1
    34     8    32    1
    35     9    33    1
    36    10    34    1
    37    17    35    1
    38    18    36    1
    39    19    37    1
    40    20    38    1
    41    21    39    1
    42    22    40    1
    43    24    41    1
    44    25    42    1
    45    26    43    1
    46    27    44    1
    47    28    45    1
@<TRIPOS>MOLECULE
mol76_2_22
 45 47 0 0 0
SMALL
USER_CHARGES
****
VDW energy = 98.10
@<TRIPOS>ATOM
   1 O1        0.9439    -9.6922    -5.8421  O.2     1  <O>11      -0.2687
   2 C1        1.5306    -9.0649    -6.7113  C.2     1  <O>11       0.2601
   3 N1        2.8490    -8.7350    -6.5460  N.am    1  <O>11      -0.2301
   4 N2        3.5130    -9.1100    -5.4030  N.am    1  <O>11      -0.2301
   5 C2        4.8320    -8.7800    -5.2390  C.2     1  <O>11       0.2602
   6 O2        5.4170    -8.1520    -6.1090  O.2     1  <O>11      -0.2687
   7 C3        5.5330    -9.1740    -4.0370  C.ar    1  <O>11       0.0400
   8 C4        6.9231    -9.2991    -4.0650  C.ar    1  <O>11      -0.0495
   9 C5        7.6069    -9.6916    -2.9100  C.ar    1  <O>11      -0.0592
  10 C6        6.9036    -9.9532    -1.7306  C.ar    1  <O>11      -0.0350
  11 C7        5.5104    -9.8167    -1.7145  C.ar    1  <O>11       0.1092
  12 S1        4.6302   -10.1454    -0.2282  S.O2    1  <O>11       0.0724
  13 O3        5.3977    -9.4069     1.0455  O.2     1  <O>11      -0.1500
  14 O4        4.5783   -11.7859     0.0347  O.2     1  <O>11      -0.1500
  15 N3        3.0912    -9.5600    -0.3596  N.pl3   1  <O>11      -0.2163
  16 C8        2.8719    -8.1427    -0.5927  C.ar    1  <O>11       0.0480
  17 C9        1.5654    -7.6381    -0.7071  C.ar    1  <O>11      -0.0393
  18 C10       1.3563    -6.2759    -0.9448  C.ar    1  <O>11      -0.0600
  19 C11       2.4427    -5.4070    -1.0683  C.ar    1  <O>11      -0.0616
  20 C12       3.7423    -5.9087    -0.9485  C.ar    1  <O>11      -0.0600
  21 C13       3.9632    -7.2656    -0.7090  C.ar    1  <O>11      -0.0393
  22 C14       4.8208    -9.4238    -2.8625  C.ar    1  <O>11      -0.0229
  23 C15       0.8270    -8.6680    -7.9240  C.ar    1  <O>11       0.0382
  24 C16      -0.5761    -8.7156    -7.9768  C.ar    1  <O>11      -0.0496
  25 C17      -1.2506    -8.3447    -9.1458  C.ar    1  <O>11      -0.0610
  26 C18      -0.5335    -7.9215   -10.2675  C.ar    1  <O>11      -0.0617
  27 C19       0.8641    -7.8672   -10.2120  C.ar    1  <O>11      -0.0610
  28 C20       1.5452    -8.2342    -9.0501  C.ar    1  <O>11      -0.0496
  29 H1        3.3390    -8.2120    -7.2710  H       1  <O>11       0.1731
  30 H2        3.0250    -9.6340    -4.6770  H       1  <O>11       0.1731
  31 H3        2.2969   -10.1917    -0.2741  H       1  <O>11       0.1737
  32 H4        7.4438    -9.1029    -4.9341  H       1  <O>11       0.0625
  33 H5        8.6342    -9.7884    -2.9284  H       1  <O>11       0.0618
  34 H6        7.4074   -10.2447    -0.8784  H       1  <O>11       0.0637
  35 H7        0.7581    -8.2744    -0.6155  H       1  <O>11       0.0636
  36 H8        0.3946    -5.9110    -1.0293  H       1  <O>11       0.0618
  37 H9        2.2874    -4.4025    -1.2467  H       1  <O>11       0.0618
  38 H10       4.5468    -5.2686    -1.0381  H       1  <O>11       0.0618
  39 H11       4.9266    -7.6241    -0.6174  H       1  <O>11       0.0636
  40 H12       3.7943    -9.3190    -2.8434  H       1  <O>11       0.0645
  41 H13      -1.1114    -9.0251    -7.1506  H       1  <O>11       0.0625
  42 H14      -2.2813    -8.3841    -9.1791  H       1  <O>11       0.0618
  43 H15      -1.0304    -7.6509   -11.1306  H       1  <O>11       0.0618
  44 H16       1.3963    -7.5527   -11.0383  H       1  <O>11       0.0618
  45 H17       2.5756    -8.1869    -9.0187  H       1  <O>11       0.0625
@<TRIPOS>BOND
     1     1     2    2
     2     2     3   am
     3     3     4    1
     4     4     5   am
     5     5     6    2
     6     5     7    1
     7     7     8   ar
     8     8     9   ar
     9     9    10   ar
    10    10    11   ar
    11    11    12    1
    12    12    13    2
    13    12    14    2
    14    12    15    1
    15    15    16    1
    16    16    17   ar
    17    17    18   ar
    18    18    19   ar
    19    19    20   ar
    20    20    21   ar
    21    16    21   ar
    22    11    22   ar
    23     7    22   ar
    24     2    23    1
    25    23    24   ar
    26    24    25   ar
    27    25    26   ar
    28    26    27   ar
    29    27    28   ar
    30    23    28   ar
    31     3    29    1
    32     4    30    1
    33    15    31    1
    34     8    32    1
    35     9    33    1
    36    10    34    1
    37    17    35    1
    38    18    36    1
    39    19    37    1
    40    20    38    1
    41    21    39    1
    42    22    40    1
    43    24    41    1
    44    25    42    1
    45    26    43    1
    46    27    44    1
    47    28    45    1
@<TRIPOS>MOLECULE
mol76_2_23
 45 47 0 0 0
SMALL
USER_CHARGES
****
VDW energy = 99.99
@<TRIPOS>ATOM
   1 O1        0.9439    -9.6922    -5.8421  O.2     1  <O>11      -0.2687
   2 C1        1.5306    -9.0649    -6.7113  C.2     1  <O>11       0.2601
   3 N1        2.8490    -8.7350    -6.5460  N.am    1  <O>11      -0.2301
   4 N2        3.5130    -9.1100    -5.4030  N.am    1  <O>11      -0.2301
   5 C2        4.8320    -8.7800    -5.2390  C.2     1  <O>11       0.2602
   6 O2        5.4170    -8.1520    -6.1090  O.2     1  <O>11      -0.2687
   7 C3        5.5330    -9.1740    -4.0370  C.ar    1  <O>11       0.0400
   8 C4        6.9231    -9.2991    -4.0650  C.ar    1  <O>11      -0.0495
   9 C5        7.6069    -9.6916    -2.9100  C.ar    1  <O>11      -0.0592
  10 C6        6.9036    -9.9532    -1.7306  C.ar    1  <O>11      -0.0350
  11 C7        5.5104    -9.8167    -1.7145  C.ar    1  <O>11       0.1092
  12 S1        4.6302   -10.1454    -0.2282  S.O2    1  <O>11       0.0724
  13 O3        5.3977    -9.4069     1.0455  O.2     1  <O>11      -0.1500
  14 O4        4.5783   -11.7859     0.0347  O.2     1  <O>11      -0.1500
  15 N3        3.0912    -9.5600    -0.3596  N.pl3   1  <O>11      -0.2163
  16 C8        2.1607    -9.7120     0.7460  C.ar    1  <O>11       0.0480
  17 C9        0.8505    -9.2151     0.6418  C.ar    1  <O>11      -0.0393
  18 C10      -0.0398    -9.3504     1.7118  C.ar    1  <O>11      -0.0600
  19 C11       0.3650    -9.9812     2.8902  C.ar    1  <O>11      -0.0616
  20 C12       1.6670   -10.4808     2.9911  C.ar    1  <O>11      -0.0600
  21 C13       2.5634   -10.3537     1.9292  C.ar    1  <O>11      -0.0393
  22 C14       4.8208    -9.4238    -2.8625  C.ar    1  <O>11      -0.0229
  23 C15       0.8270    -8.6680    -7.9240  C.ar    1  <O>11       0.0382
  24 C16      -0.5761    -8.7156    -7.9768  C.ar    1  <O>11      -0.0496
  25 C17      -1.2506    -8.3447    -9.1458  C.ar    1  <O>11      -0.0610
  26 C18      -0.5335    -7.9215   -10.2675  C.ar    1  <O>11      -0.0617
  27 C19       0.8641    -7.8672   -10.2120  C.ar    1  <O>11      -0.0610
  28 C20       1.5452    -8.2342    -9.0501  C.ar    1  <O>11      -0.0496
  29 H1        3.3390    -8.2120    -7.2710  H       1  <O>11       0.1731
  30 H2        3.0250    -9.6340    -4.6770  H       1  <O>11       0.1731
  31 H3        2.7941    -9.0958    -1.2160  H       1  <O>11       0.1737
  32 H4        7.4438    -9.1029    -4.9341  H       1  <O>11       0.0625
  33 H5        8.6342    -9.7884    -2.9284  H       1  <O>11       0.0618
  34 H6        7.4074   -10.2447    -0.8784  H       1  <O>11       0.0637
  35 H7        0.5444    -8.7491    -0.2266  H       1  <O>11       0.0636
  36 H8       -1.0005    -8.9823     1.6302  H       1  <O>11       0.0618
  37 H9       -0.2917   -10.0779     3.6803  H       1  <O>11       0.0618
  38 H10       1.9684   -10.9484     3.8603  H       1  <O>11       0.0618
  39 H11       3.5206   -10.7305     2.0128  H       1  <O>11       0.0636
  40 H12       3.7943    -9.3190    -2.8434  H       1  <O>11       0.0645
  41 H13      -1.1114    -9.0251    -7.1506  H       1  <O>11       0.0625
  42 H14      -2.2813    -8.3841    -9.1791  H       1  <O>11       0.0618
  43 H15      -1.0304    -7.6509   -11.1306  H       1  <O>11       0.0618
  44 H16       1.3963    -7.5527   -11.0383  H       1  <O>11       0.0618
  45 H17       2.5756    -8.1869    -9.0187  H       1  <O>11       0.0625
@<TRIPOS>BOND
     1     1     2    2
     2     2     3   am
     3     3     4    1
     4     4     5   am
     5     5     6    2
     6     5     7    1
     7     7     8   ar
     8     8     9   ar
     9     9    10   ar
    10    10    11   ar
    11    11    12    1
    12    12    13    2
    13    12    14    2
    14    12    15    1
    15    15    16    1
    16    16    17   ar
    17    17    18   ar
    18    18    19   ar
    19    19    20   ar
    20    20    21   ar
    21    16    21   ar
    22    11    22   ar
    23     7    22   ar
    24     2    23    1
    25    23    24   ar
    26    24    25   ar
    27    25    26   ar
    28    26    27   ar
    29    27    28   ar
    30    23    28   ar
    31     3    29    1
    32     4    30    1
    33    15    31    1
    34     8    32    1
    35     9    33    1
    36    10    34    1
    37    17    35    1
    38    18    36    1
    39    19    37    1
    40    20    38    1
    41    21    39    1
    42    22    40    1
    43    24    41    1
    44    25    42    1
    45    26    43    1
    46    27    44    1
    47    28    45    1
@<TRIPOS>MOLECULE
mol76_2_24
 45 47 0 0 0
SMALL
USER_CHARGES
****
VDW energy = 100.65
@<TRIPOS>ATOM
   1 O1        0.9439    -9.6922    -5.8421  O.2     1  <O>11      -0.2687
   2 C1        1.5306    -9.0649    -6.7113  C.2     1  <O>11       0.2601
   3 N1        2.8490    -8.7350    -6.5460  N.am    1  <O>11      -0.2301
   4 N2        3.5086    -8.0297    -7.5235  N.am    1  <O>11      -0.2301
   5 C2        4.8272    -7.6997    -7.3568  C.2     1  <O>11       0.2602
   6 O2        5.4161    -8.0332    -6.3392  O.2     1  <O>11      -0.2687
   7 C3        5.5233    -6.9571    -8.3842  C.ar    1  <O>11       0.0400
   8 C4        6.6469    -6.2028    -8.0414  C.ar    1  <O>11      -0.0495
   9 C5        7.3181    -5.4722    -9.0270  C.ar    1  <O>11      -0.0592
  10 C6        6.8700    -5.4999   -10.3508  C.ar    1  <O>11      -0.0350
  11 C7        5.7463    -6.2663   -10.6821  C.ar    1  <O>11       0.1092
  12 S1        5.1875    -6.2991   -12.3490  S.O2    1  <O>11       0.0724
  13 O3        3.8509    -7.2771   -12.4665  O.2     1  <O>11      -0.1500
  14 O4        6.3934    -6.8926   -13.3269  O.2     1  <O>11      -0.1500
  15 N3        4.7945    -4.7677   -12.8274  N.pl3   1  <O>11      -0.2163
  16 C8        3.7588    -4.0312   -12.1231  C.ar    1  <O>11       0.0480
  17 C9        4.0895    -3.2217   -11.0232  C.ar    1  <O>11      -0.0393
  18 C10       3.0898    -2.5240   -10.3380  C.ar    1  <O>11      -0.0600
  19 C11       1.7567    -2.6245   -10.7421  C.ar    1  <O>11      -0.0616
  20 C12       1.4290    -3.4254   -11.8403  C.ar    1  <O>11      -0.0600
  21 C13       2.4183    -4.1244   -12.5332  C.ar    1  <O>11      -0.0393
  22 C14       5.0721    -6.9995    -9.7046  C.ar    1  <O>11      -0.0229
  23 C15       0.8270    -8.6680    -7.9240  C.ar    1  <O>11       0.0382
  24 C16       1.4714    -8.7335    -9.1707  C.ar    1  <O>11      -0.0496
  25 C17       0.7985    -8.3416   -10.3336  C.ar    1  <O>11      -0.0610
  26 C18      -0.5201    -7.8854   -10.2635  C.ar    1  <O>11      -0.0617
  27 C19      -1.1642    -7.8273    -9.0221  C.ar    1  <O>11      -0.0610
  28 C20      -0.5012    -8.2170    -7.8572  C.ar    1  <O>11      -0.0496
  29 H1        3.3417    -9.0114    -5.6974  H       1  <O>11       0.1731
  30 H2        3.0173    -7.7515    -8.3727  H       1  <O>11       0.1731
  31 H3        5.2758    -4.3416   -13.6173  H       1  <O>11       0.1737
  32 H4        6.9807    -6.1845    -7.0651  H       1  <O>11       0.0625
  33 H5        8.1469    -4.9109    -8.7761  H       1  <O>11       0.0618
  34 H6        7.3637    -4.9595   -11.0783  H       1  <O>11       0.0637
  35 H7        5.0728    -3.1419   -10.7201  H       1  <O>11       0.0636
  36 H8        3.3383    -1.9320    -9.5300  H       1  <O>11       0.0618
  37 H9        1.0193    -2.1116   -10.2340  H       1  <O>11       0.0618
  38 H10       0.4449    -3.5004   -12.1418  H       1  <O>11       0.0618
  39 H11       2.1656    -4.7088   -13.3454  H       1  <O>11       0.0636
  40 H12       4.2478    -7.5676    -9.9554  H       1  <O>11       0.0645
  41 H13       2.4446    -9.0719    -9.2291  H       1  <O>11       0.0625
  42 H14       1.2781    -8.3897   -11.2461  H       1  <O>11       0.0618
  43 H15      -1.0155    -7.5935   -11.1205  H       1  <O>11       0.0618
  44 H16      -2.1390    -7.4929    -8.9676  H       1  <O>11       0.0618
  45 H17      -0.9867    -8.1737    -6.9475  H       1  <O>11       0.0625
@<TRIPOS>BOND
     1     1     2    2
     2     2     3   am
     3     3     4    1
     4     4     5   am
     5     5     6    2
     6     5     7    1
     7     7     8   ar
     8     8     9   ar
     9     9    10   ar
    10    10    11   ar
    11    11    12    1
    12    12    13    2
    13    12    14    2
    14    12    15    1
    15    15    16    1
    16    16    17   ar
    17    17    18   ar
    18    18    19   ar
    19    19    20   ar
    20    20    21   ar
    21    16    21   ar
    22    11    22   ar
    23     7    22   ar
    24     2    23    1
    25    23    24   ar
    26    24    25   ar
    27    25    26   ar
    28    26    27   ar
    29    27    28   ar
    30    23    28   ar
    31     3    29    1
    32     4    30    1
    33    15    31    1
    34     8    32    1
    35     9    33    1
    36    10    34    1
    37    17    35    1
    38    18    36    1
    39    19    37    1
    40    20    38    1
    41    21    39    1
    42    22    40    1
    43    24    41    1
    44    25    42    1
    45    26    43    1
    46    27    44    1
    47    28    45    1
@<TRIPOS>MOLECULE
mol76_2_25
 45 47 0 0 0
SMALL
USER_CHARGES
****
VDW energy = 104.30
@<TRIPOS>ATOM
   1 O1        0.9439    -9.6922    -5.8421  O.2     1  <O>11      -0.2687
   2 C1        1.5306    -9.0649    -6.7113  C.2     1  <O>11       0.2601
   3 N1        2.8490    -8.7350    -6.5460  N.am    1  <O>11      -0.2301
   4 N2        3.5130    -9.1100    -5.4030  N.am    1  <O>11      -0.2301
   5 C2        3.0723    -8.6739    -4.1819  C.2     1  <O>11       0.2602
   6 O2        2.0887    -7.9521    -4.1099  O.2     1  <O>11      -0.2687
   7 C3        3.7698    -9.0669    -2.9776  C.ar    1  <O>11       0.0400
   8 C4        3.6658    -8.2710    -1.8354  C.ar    1  <O>11      -0.0495
   9 C5        4.3473    -8.6380    -0.6707  C.ar    1  <O>11      -0.0592
  10 C6        5.1257    -9.7988    -0.6471  C.ar    1  <O>11      -0.0350
  11 C7        5.2154   -10.5918    -1.7974  C.ar    1  <O>11       0.1092
  12 S1        6.1945   -12.0518    -1.7624  S.O2    1  <O>11       0.0724
  13 O3        5.8687   -12.9049    -0.3757  O.2     1  <O>11      -0.1500
  14 O4        7.8049   -11.6408    -1.7922  O.2     1  <O>11      -0.1500
  15 N3        5.8399   -12.9835    -3.0796  N.pl3   1  <O>11      -0.2163
  16 C8        4.4861   -13.4720    -3.2789  C.ar    1  <O>11       0.0480
  17 C9        4.1769   -14.2636    -4.3979  C.ar    1  <O>11      -0.0393
  18 C10       2.8705   -14.7220    -4.5954  C.ar    1  <O>11      -0.0600
  19 C11       1.8644   -14.3985    -3.6823  C.ar    1  <O>11      -0.0616
  20 C12       2.1739   -13.6157    -2.5659  C.ar    1  <O>11      -0.0600
  21 C13       3.4743   -13.1547    -2.3571  C.ar    1  <O>11      -0.0393
  22 C14       4.5369   -10.2332    -2.9632  C.ar    1  <O>11      -0.0229
  23 C15       0.8270    -8.6680    -7.9240  C.ar    1  <O>11       0.0382
  24 C16       0.8118    -9.5159    -9.0441  C.ar    1  <O>11      -0.0496
  25 C17       0.1451    -9.1290   -10.2123  C.ar    1  <O>11      -0.0610
  26 C18      -0.5129    -7.8981   -10.2719  C.ar    1  <O>11      -0.0617
  27 C19      -0.5038    -7.0569    -9.1532  C.ar    1  <O>11      -0.0610
  28 C20       0.1578    -7.4348    -7.9835  C.ar    1  <O>11      -0.0496
  29 H1        3.3390    -8.2120    -7.2710  H       1  <O>11       0.1731
  30 H2        4.3337    -9.7122    -5.4629  H       1  <O>11       0.1731
  31 H3        6.5703   -13.2176    -3.7495  H       1  <O>11       0.1737
  32 H4        3.0886    -7.4157    -1.8505  H       1  <O>11       0.0625
  33 H5        4.2752    -8.0498     0.1742  H       1  <O>11       0.0618
  34 H6        5.6304   -10.0692     0.2115  H       1  <O>11       0.0637
  35 H7        4.9158   -14.5075    -5.0758  H       1  <O>11       0.0636
  36 H8        2.6488   -15.3019    -5.4198  H       1  <O>11       0.0618
  37 H9        0.9000   -14.7347    -3.8306  H       1  <O>11       0.0618
  38 H10       1.4326   -13.3763    -1.8891  H       1  <O>11       0.0618
  39 H11       3.6925   -12.5816    -1.5270  H       1  <O>11       0.0636
  40 H12       4.6018   -10.8246    -3.8065  H       1  <O>11       0.0645
  41 H13       1.2941   -10.4275    -9.0053  H       1  <O>11       0.0625
  42 H14       0.1396    -9.7553   -11.0325  H       1  <O>11       0.0618
  43 H15      -1.0020    -7.6113   -11.1341  H       1  <O>11       0.0618
  44 H16      -0.9910    -6.1480    -9.1935  H       1  <O>11       0.0618
  45 H17       0.1551    -6.8087    -7.1633  H       1  <O>11       0.0625
@<TRIPOS>BOND
     1     1     2    2
     2     2     3   am
     3     3     4    1
     4     4     5   am
     5     5     6    2
     6     5     7    1
     7     7     8   ar
     8     8     9   ar
     9     9    10   ar
    10    10    11   ar
    11    11    12    1
    12    12    13    2
    13    12    14    2
    14    12    15    1
    15    15    16    1
    16    16    17   ar
    17    17    18   ar
    18    18    19   ar
    19    19    20   ar
    20    20    21   ar
    21    16    21   ar
    22    11    22   ar
    23     7    22   ar
    24     2    23    1
    25    23    24   ar
    26    24    25   ar
    27    25    26   ar
    28    26    27   ar
    29    27    28   ar
    30    23    28   ar
    31     3    29    1
    32     4    30    1
    33    15    31    1
    34     8    32    1
    35     9    33    1
    36    10    34    1
    37    17    35    1
    38    18    36    1
    39    19    37    1
    40    20    38    1
    41    21    39    1
    42    22    40    1
    43    24    41    1
    44    25    42    1
    45    26    43    1
    46    27    44    1
    47    28    45    1
@<TRIPOS>MOLECULE
mol76_2_26
 45 47 0 0 0
SMALL
USER_CHARGES
****
VDW energy = 106.72
@<TRIPOS>ATOM
   1 O1        0.9439    -9.6922    -5.8421  O.2     1  <O>11      -0.2687
   2 C1        1.5306    -9.0649    -6.7113  C.2     1  <O>11       0.2601
   3 N1        2.8490    -8.7350    -6.5460  N.am    1  <O>11      -0.2301
   4 N2        3.5086    -8.0297    -7.5235  N.am    1  <O>11      -0.2301
   5 C2        4.8272    -7.6997    -7.3568  C.2     1  <O>11       0.2602
   6 O2        5.4142    -7.0724    -8.2259  O.2     1  <O>11      -0.2687
   7 C3        5.5255    -8.0930    -6.1530  C.ar    1  <O>11       0.0400
   8 C4        5.2861    -9.3537    -5.6035  C.ar    1  <O>11      -0.0495
   9 C5        5.9483    -9.7365    -4.4328  C.ar    1  <O>11      -0.0592
  10 C6        6.8498    -8.8636    -3.8169  C.ar    1  <O>11      -0.0350
  11 C7        7.0861    -7.6050    -4.3827  C.ar    1  <O>11       0.1092
  12 S1        8.2220    -6.5110    -3.6051  S.O2    1  <O>11       0.0724
  13 O3        9.6018    -7.3408    -3.1995  O.2     1  <O>11      -0.1500
  14 O4        7.5327    -5.8806    -2.2302  O.2     1  <O>11      -0.1500
  15 N3        8.6014    -5.2833    -4.6432  N.pl3   1  <O>11      -0.2163
  16 C8        9.5269    -4.2429    -4.2283  C.ar    1  <O>11       0.0480
  17 C9        9.8555    -3.1965    -5.1067  C.ar    1  <O>11      -0.0393
  18 C10      10.7566    -2.2031    -4.7107  C.ar    1  <O>11      -0.0600
  19 C11      11.3351    -2.2420    -3.4401  C.ar    1  <O>11      -0.0616
  20 C12      11.0033    -3.2802    -2.5644  C.ar    1  <O>11      -0.0600
  21 C13      10.1036    -4.2757    -2.9475  C.ar    1  <O>11      -0.0393
  22 C14       6.4304    -7.2162    -5.5518  C.ar    1  <O>11      -0.0229
  23 C15       0.8270    -8.6680    -7.9240  C.ar    1  <O>11       0.0382
  24 C16       0.8118    -9.5159    -9.0441  C.ar    1  <O>11      -0.0496
  25 C17       0.1451    -9.1290   -10.2123  C.ar    1  <O>11      -0.0610
  26 C18      -0.5129    -7.8981   -10.2719  C.ar    1  <O>11      -0.0617
  27 C19      -0.5038    -7.0569    -9.1532  C.ar    1  <O>11      -0.0610
  28 C20       0.1578    -7.4348    -7.9835  C.ar    1  <O>11      -0.0496
  29 H1        3.3417    -9.0114    -5.6974  H       1  <O>11       0.1731
  30 H2        3.0173    -7.7515    -8.3727  H       1  <O>11       0.1731
  31 H3        8.1845    -5.2544    -5.5719  H       1  <O>11       0.1737
  32 H4        4.6235   -10.0005    -6.0592  H       1  <O>11       0.0625
  33 H5        5.7709   -10.6666    -4.0222  H       1  <O>11       0.0618
  34 H6        7.3374    -9.1446    -2.9519  H       1  <O>11       0.0637
  35 H7        9.4306    -3.1609    -6.0465  H       1  <O>11       0.0636
  36 H8       10.9953    -1.4376    -5.3605  H       1  <O>11       0.0618
  37 H9       12.0023    -1.5101    -3.1500  H       1  <O>11       0.0618
  38 H10      11.4284    -3.3106    -1.6245  H       1  <O>11       0.0618
  39 H11       9.8621    -5.0346    -2.2912  H       1  <O>11       0.0636
  40 H12       6.6128    -6.2896    -5.9678  H       1  <O>11       0.0645
  41 H13       1.2941   -10.4275    -9.0053  H       1  <O>11       0.0625
  42 H14       0.1396    -9.7553   -11.0325  H       1  <O>11       0.0618
  43 H15      -1.0020    -7.6113   -11.1341  H       1  <O>11       0.0618
  44 H16      -0.9910    -6.1480    -9.1935  H       1  <O>11       0.0618
  45 H17       0.1551    -6.8087    -7.1633  H       1  <O>11       0.0625
@<TRIPOS>BOND
     1     1     2    2
     2     2     3   am
     3     3     4    1
     4     4     5   am
     5     5     6    2
     6     5     7    1
     7     7     8   ar
     8     8     9   ar
     9     9    10   ar
    10    10    11   ar
    11    11    12    1
    12    12    13    2
    13    12    14    2
    14    12    15    1
    15    15    16    1
    16    16    17   ar
    17    17    18   ar
    18    18    19   ar
    19    19    20   ar
    20    20    21   ar
    21    16    21   ar
    22    11    22   ar
    23     7    22   ar
    24     2    23    1
    25    23    24   ar
    26    24    25   ar
    27    25    26   ar
    28    26    27   ar
    29    27    28   ar
    30    23    28   ar
    31     3    29    1
    32     4    30    1
    33    15    31    1
    34     8    32    1
    35     9    33    1
    36    10    34    1
    37    17    35    1
    38    18    36    1
    39    19    37    1
    40    20    38    1
    41    21    39    1
    42    22    40    1
    43    24    41    1
    44    25    42    1
    45    26    43    1
    46    27    44    1
    47    28    45    1
@<TRIPOS>MOLECULE
mol76_2_27
 45 47 0 0 0
SMALL
USER_CHARGES
****
VDW energy = 106.81
@<TRIPOS>ATOM
   1 O1        0.9439    -9.6922    -5.8421  O.2     1  <O>11      -0.2687
   2 C1        1.5306    -9.0649    -6.7113  C.2     1  <O>11       0.2601
   3 N1        2.8490    -8.7350    -6.5460  N.am    1  <O>11      -0.2301
   4 N2        3.5130    -9.1100    -5.4030  N.am    1  <O>11      -0.2301
   5 C2        3.0723    -8.6739    -4.1819  C.2     1  <O>11       0.2602
   6 O2        2.0887    -7.9521    -4.1099  O.2     1  <O>11      -0.2687
   7 C3        3.7698    -9.0669    -2.9776  C.ar    1  <O>11       0.0400
   8 C4        3.6658    -8.2710    -1.8354  C.ar    1  <O>11      -0.0495
   9 C5        4.3473    -8.6380    -0.6707  C.ar    1  <O>11      -0.0592
  10 C6        5.1257    -9.7988    -0.6471  C.ar    1  <O>11      -0.0350
  11 C7        5.2154   -10.5918    -1.7974  C.ar    1  <O>11       0.1092
  12 S1        6.1945   -12.0518    -1.7624  S.O2    1  <O>11       0.0724
  13 O3        5.8687   -12.9049    -0.3757  O.2     1  <O>11      -0.1500
  14 O4        7.8049   -11.6408    -1.7922  O.2     1  <O>11      -0.1500
  15 N3        5.8399   -12.9835    -3.0796  N.pl3   1  <O>11      -0.2163
  16 C8        4.4861   -13.4720    -3.2789  C.ar    1  <O>11       0.0480
  17 C9        4.1769   -14.2636    -4.3979  C.ar    1  <O>11      -0.0393
  18 C10       2.8705   -14.7220    -4.5954  C.ar    1  <O>11      -0.0600
  19 C11       1.8644   -14.3985    -3.6823  C.ar    1  <O>11      -0.0616
  20 C12       2.1739   -13.6157    -2.5659  C.ar    1  <O>11      -0.0600
  21 C13       3.4743   -13.1547    -2.3571  C.ar    1  <O>11      -0.0393
  22 C14       4.5369   -10.2332    -2.9632  C.ar    1  <O>11      -0.0229
  23 C15       0.8270    -8.6680    -7.9240  C.ar    1  <O>11       0.0382
  24 C16       1.4714    -8.7335    -9.1707  C.ar    1  <O>11      -0.0496
  25 C17       0.7985    -8.3416   -10.3336  C.ar    1  <O>11      -0.0610
  26 C18      -0.5201    -7.8854   -10.2635  C.ar    1  <O>11      -0.0617
  27 C19      -1.1642    -7.8273    -9.0221  C.ar    1  <O>11      -0.0610
  28 C20      -0.5012    -8.2170    -7.8572  C.ar    1  <O>11      -0.0496
  29 H1        3.3390    -8.2120    -7.2710  H       1  <O>11       0.1731
  30 H2        4.3337    -9.7122    -5.4629  H       1  <O>11       0.1731
  31 H3        6.5703   -13.2176    -3.7495  H       1  <O>11       0.1737
  32 H4        3.0886    -7.4157    -1.8505  H       1  <O>11       0.0625
  33 H5        4.2752    -8.0498     0.1742  H       1  <O>11       0.0618
  34 H6        5.6304   -10.0692     0.2115  H       1  <O>11       0.0637
  35 H7        4.9158   -14.5075    -5.0758  H       1  <O>11       0.0636
  36 H8        2.6488   -15.3019    -5.4198  H       1  <O>11       0.0618
  37 H9        0.9000   -14.7347    -3.8306  H       1  <O>11       0.0618
  38 H10       1.4326   -13.3763    -1.8891  H       1  <O>11       0.0618
  39 H11       3.6925   -12.5816    -1.5270  H       1  <O>11       0.0636
  40 H12       4.6018   -10.8246    -3.8065  H       1  <O>11       0.0645
  41 H13       2.4446    -9.0719    -9.2291  H       1  <O>11       0.0625
  42 H14       1.2781    -8.3897   -11.2461  H       1  <O>11       0.0618
  43 H15      -1.0155    -7.5935   -11.1205  H       1  <O>11       0.0618
  44 H16      -2.1390    -7.4929    -8.9676  H       1  <O>11       0.0618
  45 H17      -0.9867    -8.1737    -6.9475  H       1  <O>11       0.0625
@<TRIPOS>BOND
     1     1     2    2
     2     2     3   am
     3     3     4    1
     4     4     5   am
     5     5     6    2
     6     5     7    1
     7     7     8   ar
     8     8     9   ar
     9     9    10   ar
    10    10    11   ar
    11    11    12    1
    12    12    13    2
    13    12    14    2
    14    12    15    1
    15    15    16    1
    16    16    17   ar
    17    17    18   ar
    18    18    19   ar
    19    19    20   ar
    20    20    21   ar
    21    16    21   ar
    22    11    22   ar
    23     7    22   ar
    24     2    23    1
    25    23    24   ar
    26    24    25   ar
    27    25    26   ar
    28    26    27   ar
    29    27    28   ar
    30    23    28   ar
    31     3    29    1
    32     4    30    1
    33    15    31    1
    34     8    32    1
    35     9    33    1
    36    10    34    1
    37    17    35    1
    38    18    36    1
    39    19    37    1
    40    20    38    1
    41    21    39    1
    42    22    40    1
    43    24    41    1
    44    25    42    1
    45    26    43    1
    46    27    44    1
    47    28    45    1
@<TRIPOS>MOLECULE
mol76_2_28
 45 47 0 0 0
SMALL
USER_CHARGES
****
VDW energy = 108.99
@<TRIPOS>ATOM
   1 O1        0.9439    -9.6922    -5.8421  O.2     1  <O>11      -0.2687
   2 C1        1.5306    -9.0649    -6.7113  C.2     1  <O>11       0.2601
   3 N1        2.8490    -8.7350    -6.5460  N.am    1  <O>11      -0.2301
   4 N2        3.5130    -9.1100    -5.4030  N.am    1  <O>11      -0.2301
   5 C2        4.8320    -8.7800    -5.2390  C.2     1  <O>11       0.2602
   6 O2        5.4230    -9.1134    -4.2226  O.2     1  <O>11      -0.2687
   7 C3        5.5260    -8.0374    -6.2678  C.ar    1  <O>11       0.0400
   8 C4        5.2820    -8.3350    -7.6096  C.ar    1  <O>11      -0.0495
   9 C5        5.9583    -7.6297    -8.6100  C.ar    1  <O>11      -0.0592
  10 C6        6.8715    -6.6275    -8.2695  C.ar    1  <O>11      -0.0350
  11 C7        7.1012    -6.3342    -6.9200  C.ar    1  <O>11       0.1092
  12 S1        8.2496    -5.0717    -6.4967  S.O2    1  <O>11       0.0724
  13 O3        9.4305    -4.9834    -7.6605  O.2     1  <O>11      -0.1500
  14 O4        8.9461    -5.4245    -5.0292  O.2     1  <O>11      -0.1500
  15 N3        7.4624    -3.6228    -6.3982  N.pl3   1  <O>11      -0.2163
  16 C8        8.2004    -2.4183    -6.0580  C.ar    1  <O>11       0.0480
  17 C9        7.5376    -1.1822    -5.9740  C.ar    1  <O>11      -0.0393
  18 C10       8.2516    -0.0216    -5.6596  C.ar    1  <O>11      -0.0600
  19 C11       9.6271    -0.0821    -5.4249  C.ar    1  <O>11      -0.0616
  20 C12      10.2850    -1.3133    -5.5028  C.ar    1  <O>11      -0.0600
  21 C13       9.5826    -2.4784    -5.8134  C.ar    1  <O>11      -0.0393
  22 C14       6.4289    -7.0325    -5.9159  C.ar    1  <O>11      -0.0229
  23 C15       0.8270    -8.6680    -7.9240  C.ar    1  <O>11       0.0382
  24 C16       0.8118    -9.5159    -9.0441  C.ar    1  <O>11      -0.0496
  25 C17       0.1451    -9.1290   -10.2123  C.ar    1  <O>11      -0.0610
  26 C18      -0.5129    -7.8981   -10.2719  C.ar    1  <O>11      -0.0617
  27 C19      -0.5038    -7.0569    -9.1532  C.ar    1  <O>11      -0.0610
  28 C20       0.1578    -7.4348    -7.9835  C.ar    1  <O>11      -0.0496
  29 H1        3.3390    -8.2120    -7.2710  H       1  <O>11       0.1731
  30 H2        3.0250    -9.6340    -4.6770  H       1  <O>11       0.1731
  31 H3        6.4603    -3.5747    -6.5729  H       1  <O>11       0.1737
  32 H4        4.6055    -9.0722    -7.8623  H       1  <O>11       0.0625
  33 H5        5.7828    -7.8497    -9.6029  H       1  <O>11       0.0618
  34 H6        7.3723    -6.1079    -9.0071  H       1  <O>11       0.0637
  35 H7        6.5211    -1.1306    -6.1449  H       1  <O>11       0.0636
  36 H8        7.7599     0.8839    -5.6006  H       1  <O>11       0.0618
  37 H9       10.1537     0.7754    -5.1959  H       1  <O>11       0.0618
  38 H10      11.3011    -1.3610    -5.3286  H       1  <O>11       0.0618
  39 H11      10.0776    -3.3826    -5.8634  H       1  <O>11       0.0636
  40 H12       6.5977    -6.8081    -4.9228  H       1  <O>11       0.0645
  41 H13       1.2941   -10.4275    -9.0053  H       1  <O>11       0.0625
  42 H14       0.1396    -9.7553   -11.0325  H       1  <O>11       0.0618
  43 H15      -1.0020    -7.6113   -11.1341  H       1  <O>11       0.0618
  44 H16      -0.9910    -6.1480    -9.1935  H       1  <O>11       0.0618
  45 H17       0.1551    -6.8087    -7.1633  H       1  <O>11       0.0625
@<TRIPOS>BOND
     1     1     2    2
     2     2     3   am
     3     3     4    1
     4     4     5   am
     5     5     6    2
     6     5     7    1
     7     7     8   ar
     8     8     9   ar
     9     9    10   ar
    10    10    11   ar
    11    11    12    1
    12    12    13    2
    13    12    14    2
    14    12    15    1
    15    15    16    1
    16    16    17   ar
    17    17    18   ar
    18    18    19   ar
    19    19    20   ar
    20    20    21   ar
    21    16    21   ar
    22    11    22   ar
    23     7    22   ar
    24     2    23    1
    25    23    24   ar
    26    24    25   ar
    27    25    26   ar
    28    26    27   ar
    29    27    28   ar
    30    23    28   ar
    31     3    29    1
    32     4    30    1
    33    15    31    1
    34     8    32    1
    35     9    33    1
    36    10    34    1
    37    17    35    1
    38    18    36    1
    39    19    37    1
    40    20    38    1
    41    21    39    1
    42    22    40    1
    43    24    41    1
    44    25    42    1
    45    26    43    1
    46    27    44    1
    47    28    45    1
@<TRIPOS>MOLECULE
mol76_2_29
 45 47 0 0 0
SMALL
USER_CHARGES
****
VDW energy = 110.73
@<TRIPOS>ATOM
   1 O1        0.9439    -9.6922    -5.8421  O.2     1  <O>11      -0.2687
   2 C1        1.5306    -9.0649    -6.7113  C.2     1  <O>11       0.2601
   3 N1        2.8490    -8.7350    -6.5460  N.am    1  <O>11      -0.2301
   4 N2        3.5086    -8.0297    -7.5235  N.am    1  <O>11      -0.2301
   5 C2        4.8272    -7.6997    -7.3568  C.2     1  <O>11       0.2602
   6 O2        5.4161    -8.0332    -6.3392  O.2     1  <O>11      -0.2687
   7 C3        5.5233    -6.9571    -8.3842  C.ar    1  <O>11       0.0400
   8 C4        6.6469    -6.2028    -8.0414  C.ar    1  <O>11      -0.0495
   9 C5        7.3181    -5.4722    -9.0270  C.ar    1  <O>11      -0.0592
  10 C6        6.8700    -5.4999   -10.3508  C.ar    1  <O>11      -0.0350
  11 C7        5.7463    -6.2663   -10.6821  C.ar    1  <O>11       0.1092
  12 S1        5.1875    -6.2991   -12.3490  S.O2    1  <O>11       0.0724
  13 O3        6.4825    -6.5225   -13.3637  O.2     1  <O>11      -0.1500
  14 O4        4.4431    -4.8582   -12.7130  O.2     1  <O>11      -0.1500
  15 N3        4.1130    -7.5385   -12.5445  N.pl3   1  <O>11      -0.2163
  16 C8        4.5290    -8.9063   -12.2854  C.ar    1  <O>11       0.0480
  17 C9        3.6198    -9.9654   -12.4481  C.ar    1  <O>11      -0.0393
  18 C10       4.0178   -11.2801   -12.1856  C.ar    1  <O>11      -0.0600
  19 C11       5.3208   -11.5508   -11.7620  C.ar    1  <O>11      -0.0616
  20 C12       6.2267   -10.4973   -11.6060  C.ar    1  <O>11      -0.0600
  21 C13       5.8417    -9.1817   -11.8672  C.ar    1  <O>11      -0.0393
  22 C14       5.0721    -6.9995    -9.7046  C.ar    1  <O>11      -0.0229
  23 C15       0.8270    -8.6680    -7.9240  C.ar    1  <O>11       0.0382
  24 C16       1.4714    -8.7335    -9.1707  C.ar    1  <O>11      -0.0496
  25 C17       0.7985    -8.3416   -10.3336  C.ar    1  <O>11      -0.0610
  26 C18      -0.5201    -7.8854   -10.2635  C.ar    1  <O>11      -0.0617
  27 C19      -1.1642    -7.8273    -9.0221  C.ar    1  <O>11      -0.0610
  28 C20      -0.5012    -8.2170    -7.8572  C.ar    1  <O>11      -0.0496
  29 H1        3.3417    -9.0114    -5.6974  H       1  <O>11       0.1731
  30 H2        3.0173    -7.7515    -8.3727  H       1  <O>11       0.1731
  31 H3        3.1610    -7.3439   -12.8492  H       1  <O>11       0.1737
  32 H4        6.9807    -6.1845    -7.0651  H       1  <O>11       0.0625
  33 H5        8.1469    -4.9109    -8.7761  H       1  <O>11       0.0618
  34 H6        7.3637    -4.9595   -11.0783  H       1  <O>11       0.0637
  35 H7        2.6559    -9.7725   -12.7622  H       1  <O>11       0.0636
  36 H8        3.3455   -12.0538   -12.3055  H       1  <O>11       0.0618
  37 H9        5.6127   -12.5210   -11.5656  H       1  <O>11       0.0618
  38 H10       7.1904   -10.6948   -11.2943  H       1  <O>11       0.0618
  39 H11       6.5200    -8.4123   -11.7534  H       1  <O>11       0.0636
  40 H12       4.2478    -7.5676    -9.9554  H       1  <O>11       0.0645
  41 H13       2.4446    -9.0719    -9.2291  H       1  <O>11       0.0625
  42 H14       1.2781    -8.3897   -11.2461  H       1  <O>11       0.0618
  43 H15      -1.0155    -7.5935   -11.1205  H       1  <O>11       0.0618
  44 H16      -2.1390    -7.4929    -8.9676  H       1  <O>11       0.0618
  45 H17      -0.9867    -8.1737    -6.9475  H       1  <O>11       0.0625
@<TRIPOS>BOND
     1     1     2    2
     2     2     3   am
     3     3     4    1
     4     4     5   am
     5     5     6    2
     6     5     7    1
     7     7     8   ar
     8     8     9   ar
     9     9    10   ar
    10    10    11   ar
    11    11    12    1
    12    12    13    2
    13    12    14    2
    14    12    15    1
    15    15    16    1
    16    16    17   ar
    17    17    18   ar
    18    18    19   ar
    19    19    20   ar
    20    20    21   ar
    21    16    21   ar
    22    11    22   ar
    23     7    22   ar
    24     2    23    1
    25    23    24   ar
    26    24    25   ar
    27    25    26   ar
    28    26    27   ar
    29    27    28   ar
    30    23    28   ar
    31     3    29    1
    32     4    30    1
    33    15    31    1
    34     8    32    1
    35     9    33    1
    36    10    34    1
    37    17    35    1
    38    18    36    1
    39    19    37    1
    40    20    38    1
    41    21    39    1
    42    22    40    1
    43    24    41    1
    44    25    42    1
    45    26    43    1
    46    27    44    1
    47    28    45    1
@<TRIPOS>MOLECULE
mol76_2_30
 45 47 0 0 0
SMALL
USER_CHARGES
****
VDW energy = 128.81
@<TRIPOS>ATOM
   1 O1        0.9439    -9.6922    -5.8421  O.2     1  <O>11      -0.2687
   2 C1        1.5306    -9.0649    -6.7113  C.2     1  <O>11       0.2601
   3 N1        2.8490    -8.7350    -6.5460  N.am    1  <O>11      -0.2301
   4 N2        3.5086    -8.0297    -7.5235  N.am    1  <O>11      -0.2301
   5 C2        4.8272    -7.6997    -7.3568  C.2     1  <O>11       0.2602
   6 O2        5.4161    -8.0332    -6.3392  O.2     1  <O>11      -0.2687
   7 C3        5.5233    -6.9571    -8.3842  C.ar    1  <O>11       0.0400
   8 C4        6.1813    -7.6492    -9.4024  C.ar    1  <O>11      -0.0495
   9 C5        6.8669    -6.9385   -10.3925  C.ar    1  <O>11      -0.0592
  10 C6        6.8903    -5.5410   -10.3669  C.ar    1  <O>11      -0.0350
  11 C7        6.2200    -4.8593    -9.3441  C.ar    1  <O>11       0.1092
  12 S1        6.2510    -3.1015    -9.3169  S.O2    1  <O>11       0.0724
  13 O3        5.9362    -2.5178   -10.8391  O.2     1  <O>11      -0.1500
  14 O4        7.7510    -2.5805    -8.8252  O.2     1  <O>11      -0.1500
  15 N3        5.1039    -2.5475    -8.2653  N.pl3   1  <O>11      -0.2163
  16 C8        3.7043    -2.8718    -8.4821  C.ar    1  <O>11       0.0480
  17 C9        2.8936    -2.0256    -9.2574  C.ar    1  <O>11      -0.0393
  18 C10       1.5433    -2.3321    -9.4542  C.ar    1  <O>11      -0.0600
  19 C11       0.9911    -3.4812    -8.8840  C.ar    1  <O>11      -0.0616
  20 C12       1.7997    -4.3260    -8.1176  C.ar    1  <O>11      -0.0600
  21 C13       3.1488    -4.0317    -7.9163  C.ar    1  <O>11      -0.0393
  22 C14       5.5321    -5.5614    -8.3533  C.ar    1  <O>11      -0.0229
  23 C15       0.8270    -8.6680    -7.9240  C.ar    1  <O>11       0.0382
  24 C16       1.4714    -8.7335    -9.1707  C.ar    1  <O>11      -0.0496
  25 C17       0.7985    -8.3416   -10.3336  C.ar    1  <O>11      -0.0610
  26 C18      -0.5201    -7.8854   -10.2635  C.ar    1  <O>11      -0.0617
  27 C19      -1.1642    -7.8273    -9.0221  C.ar    1  <O>11      -0.0610
  28 C20      -0.5012    -8.2170    -7.8572  C.ar    1  <O>11      -0.0496
  29 H1        3.3417    -9.0114    -5.6974  H       1  <O>11       0.1731
  30 H2        3.0173    -7.7515    -8.3727  H       1  <O>11       0.1731
  31 H3        5.3775    -1.9766    -7.4675  H       1  <O>11       0.1737
  32 H4        6.1618    -8.6808    -9.4244  H       1  <O>11       0.0625
  33 H5        7.3573    -7.4473   -11.1446  H       1  <O>11       0.0618
  34 H6        7.3976    -5.0159   -11.0961  H       1  <O>11       0.0637
  35 H7        3.2956    -1.1756    -9.6827  H       1  <O>11       0.0636
  36 H8        0.9523    -1.7063   -10.0234  H       1  <O>11       0.0618
  37 H9       -0.0061    -3.7050    -9.0273  H       1  <O>11       0.0618
  38 H10       1.3945    -5.1764    -7.6962  H       1  <O>11       0.0618
  39 H11       3.7376    -4.6649    -7.3528  H       1  <O>11       0.0636
  40 H12       5.0348    -5.0537    -7.6050  H       1  <O>11       0.0645
  41 H13       2.4446    -9.0719    -9.2291  H       1  <O>11       0.0625
  42 H14       1.2781    -8.3897   -11.2461  H       1  <O>11       0.0618
  43 H15      -1.0155    -7.5935   -11.1205  H       1  <O>11       0.0618
  44 H16      -2.1390    -7.4929    -8.9676  H       1  <O>11       0.0618
  45 H17      -0.9867    -8.1737    -6.9475  H       1  <O>11       0.0625
@<TRIPOS>BOND
     1     1     2    2
     2     2     3   am
     3     3     4    1
     4     4     5   am
     5     5     6    2
     6     5     7    1
     7     7     8   ar
     8     8     9   ar
     9     9    10   ar
    10    10    11   ar
    11    11    12    1
    12    12    13    2
    13    12    14    2
    14    12    15    1
    15    15    16    1
    16    16    17   ar
    17    17    18   ar
    18    18    19   ar
    19    19    20   ar
    20    20    21   ar
    21    16    21   ar
    22    11    22   ar
    23     7    22   ar
    24     2    23    1
    25    23    24   ar
    26    24    25   ar
    27    25    26   ar
    28    26    27   ar
    29    27    28   ar
    30    23    28   ar
    31     3    29    1
    32     4    30    1
    33    15    31    1
    34     8    32    1
    35     9    33    1
    36    10    34    1
    37    17    35    1
    38    18    36    1
    39    19    37    1
    40    20    38    1
    41    21    39    1
    42    22    40    1
    43    24    41    1
    44    25    42    1
    45    26    43    1
    46    27    44    1
    47    28    45    1
