@<TRIPOS>MOLECULE
mol78_1_1
 48 51 0 0 0
SMALL
USER_CHARGES
****
VDW energy = -125.10
@<TRIPOS>ATOM
   1 O1        3.4420    -9.1855    -5.2979  O.2     1  <O>11      -0.2698
   2 C1        2.8552    -9.8129    -4.4288  C.2     1  <O>11       0.2484
   3 N1        3.5160   -10.1860    -3.2900  N.am    1  <O>11      -0.2815
   4 C2        4.8600    -9.8501    -3.1211  C.ar    1  <O>11       0.0339
   5 C3        5.2165    -8.6384    -2.5045  C.ar    1  <O>11      -0.0405
   6 C4        6.5639    -8.2979    -2.3458  C.ar    1  <O>11      -0.0597
   7 C5        7.5654    -9.1609    -2.7970  C.ar    1  <O>11      -0.0581
   8 C6        7.2105   -10.3706    -3.4043  C.ar    1  <O>11      -0.0398
   9 C7        8.2733   -11.2800    -3.8771  C.3     1  <O>11       0.0168
  10 C8        8.6448   -12.2175    -2.7845  C.ar    1  <O>11       0.0693
  11 N2        8.0047   -12.1359    -1.5526  N.ar    1  <O>11      -0.1753
  12 N3        8.3362   -12.9889    -0.5503  N.ar    1  <O>11      -0.2427
  13 C9        9.2983   -13.9135    -0.7509  C.ar    1  <O>11       0.2682
  14 O2        9.5832   -14.7786     0.3221  O.2     1  <O>11      -0.2661
  15 C10       9.9999   -14.0370    -1.9492  C.ar    1  <O>11       0.0232
  16 C11       9.6331   -13.1749    -2.9968  C.ar    1  <O>11      -0.0158
  17 C12      10.3145   -13.2036    -4.3384  C.3     1  <O>11      -0.0255
  18 C13      11.0991   -14.4906    -4.5827  C.3     1  <O>11      -0.0487
  19 C14      11.9558   -14.8238    -3.3696  C.3     1  <O>11      -0.0486
  20 C15      11.0762   -15.0738    -2.1445  C.3     1  <O>11      -0.0222
  21 C16       5.8695   -10.7203    -3.5655  C.ar    1  <O>11      -0.0369
  22 C17       1.4620   -10.1610    -4.6040  C.ar    1  <O>11       0.0424
  23 C18       1.1306   -11.3698    -5.2192  C.ar    1  <O>11      -0.0142
  24 C19      -0.2153   -11.7066    -5.4026  C.ar    1  <O>11       0.1268
  25 F1       -0.5430   -12.8918    -6.0096  F       1  <O>11      -0.2054
  26 C20      -1.2229   -10.8409    -4.9699  C.ar    1  <O>11       0.0088
  27 C21      -0.8747    -9.6351    -4.3496  C.ar    1  <O>11       0.1268
  28 F2       -1.8676    -8.7896    -3.9265  F       1  <O>11      -0.2054
  29 C22       0.4636    -9.2913    -4.1600  C.ar    1  <O>11      -0.0142
  30 H1        3.0270   -10.7099    -2.5639  H       1  <O>11       0.1551
  31 H2        9.1468   -10.6974    -4.1686  H       1  <O>11       0.0377
  32 H3        7.9120   -11.8461    -4.7346  H       1  <O>11       0.0377
  33 H4        7.8604   -12.9276     0.3387  H       1  <O>11       0.1921
  34 H5        9.5561   -13.1073    -5.1150  H       1  <O>11       0.0314
  35 H6       11.0030   -12.3607    -4.3959  H       1  <O>11       0.0314
  36 H7       10.4029   -15.3082    -4.7667  H       1  <O>11       0.0268
  37 H8       11.7434   -14.3586    -5.4528  H       1  <O>11       0.0268
  38 H9       12.5399   -15.7193    -3.5793  H       1  <O>11       0.0269
  39 H10      12.6264   -13.9902    -3.1653  H       1  <O>11       0.0269
  40 H11      10.6006   -16.0479    -2.2543  H       1  <O>11       0.0315
  41 H12      11.7128   -15.0780    -1.2593  H       1  <O>11       0.0315
  42 H13       4.4812    -7.9974    -2.1675  H       1  <O>11       0.0636
  43 H14       6.8190    -7.4060    -1.8937  H       1  <O>11       0.0618
  44 H15       8.5595    -8.9082    -2.6834  H       1  <O>11       0.0620
  45 H16       5.6193   -11.6172    -4.0106  H       1  <O>11       0.0639
  46 H17       1.8739   -12.0113    -5.5368  H       1  <O>11       0.0654
  47 H18      -2.2155   -11.0882    -5.1063  H       1  <O>11       0.0675
  48 H19       0.7134    -8.4037    -3.6966  H       1  <O>11       0.0654
@<TRIPOS>BOND
     1     1     2    2
     2     2     3   am
     3     3     4    1
     4     4     5   ar
     5     5     6   ar
     6     6     7   ar
     7     7     8   ar
     8     8     9    1
     9     9    10    1
    10    10    11   ar
    11    11    12   ar
    12    12    13   ar
    13    13    14    2
    14    13    15   ar
    15    15    16   ar
    16    10    16   ar
    17    16    17    1
    18    17    18    1
    19    18    19    1
    20    19    20    1
    21    15    20    1
    22     8    21   ar
    23     4    21   ar
    24     2    22    1
    25    22    23   ar
    26    23    24   ar
    27    24    25    1
    28    24    26   ar
    29    26    27   ar
    30    27    28    1
    31    27    29   ar
    32    22    29   ar
    33     3    30    1
    34     9    31    1
    35     9    32    1
    36    12    33    1
    37    17    34    1
    38    17    35    1
    39    18    36    1
    40    18    37    1
    41    19    38    1
    42    19    39    1
    43    20    40    1
    44    20    41    1
    45     5    42    1
    46     6    43    1
    47     7    44    1
    48    21    45    1
    49    23    46    1
    50    26    47    1
    51    29    48    1
@<TRIPOS>MOLECULE
mol78_1_2
 48 51 0 0 0
SMALL
USER_CHARGES
****
VDW energy = -124.78
@<TRIPOS>ATOM
   1 O1        3.4420    -9.1855    -5.2979  O.2     1  <O>11      -0.2698
   2 C1        2.8552    -9.8129    -4.4288  C.2     1  <O>11       0.2484
   3 N1        3.5160   -10.1860    -3.2900  N.am    1  <O>11      -0.2815
   4 C2        2.8461   -10.9025    -2.2972  C.ar    1  <O>11       0.0339
   5 C3        2.8323   -12.3077    -2.3232  C.ar    1  <O>11      -0.0405
   6 C4        2.1512   -13.0243    -1.3337  C.ar    1  <O>11      -0.0597
   7 C5        1.4813   -12.3486    -0.3110  C.ar    1  <O>11      -0.0581
   8 C6        1.5011   -10.9497    -0.2811  C.ar    1  <O>11      -0.0398
   9 C7        0.7935   -10.2408     0.8037  C.3     1  <O>11       0.0168
  10 C8        1.7201   -10.0363     1.9483  C.ar    1  <O>11       0.0693
  11 N2        3.0303   -10.4962     1.8711  N.ar    1  <O>11      -0.1753
  12 N3        3.8834   -10.3121     2.9105  N.ar    1  <O>11      -0.2427
  13 C9        3.4522    -9.6873     4.0259  C.ar    1  <O>11       0.2682
  14 O2        4.3903    -9.5127     5.0606  O.2     1  <O>11      -0.2661
  15 C10       2.1473    -9.2231     4.1845  C.ar    1  <O>11       0.0232
  16 C11       1.2741    -9.3851     3.0953  C.ar    1  <O>11      -0.0158
  17 C12      -0.1602    -8.9313     3.1393  C.3     1  <O>11      -0.0255
  18 C13      -0.4364    -7.9314     4.2598  C.3     1  <O>11      -0.0487
  19 C14       0.1691    -8.4237     5.5666  C.3     1  <O>11      -0.0486
  20 C15       1.6889    -8.5352     5.4448  C.3     1  <O>11      -0.0222
  21 C16       2.1793   -10.2258    -1.2622  C.ar    1  <O>11      -0.0369
  22 C17       1.4620   -10.1610    -4.6040  C.ar    1  <O>11       0.0424
  23 C18       0.4750    -9.2817    -4.1546  C.ar    1  <O>11      -0.0142
  24 C19      -0.8745    -9.6183    -4.3101  C.ar    1  <O>11       0.1268
  25 F1       -1.8455    -8.7576    -3.8665  F       1  <O>11      -0.2054
  26 C20      -1.2337   -10.8255    -4.9148  C.ar    1  <O>11       0.0088
  27 C21      -0.2326   -11.6941    -5.3653  C.ar    1  <O>11       0.1268
  28 F2       -0.5908   -12.8772    -5.9584  F       1  <O>11      -0.2054
  29 C22       1.1151   -11.3668    -5.2172  C.ar    1  <O>11      -0.0142
  30 H1        4.4984    -9.9407    -3.1658  H       1  <O>11       0.1551
  31 H2       -0.0604   -10.8345     1.1291  H       1  <O>11       0.0377
  32 H3        0.4462    -9.2746     0.4400  H       1  <O>11       0.0377
  33 H4        4.8357   -10.6425     2.8425  H       1  <O>11       0.1921
  34 H5       -0.4049    -8.4612     2.1871  H       1  <O>11       0.0314
  35 H6       -0.7957    -9.8041     3.2880  H       1  <O>11       0.0314
  36 H7        0.0026    -6.9685     4.0005  H       1  <O>11       0.0268
  37 H8       -1.5142    -7.8186     4.3828  H       1  <O>11       0.0268
  38 H9       -0.0753    -7.7200     6.3616  H       1  <O>11       0.0269
  39 H10      -0.2441    -9.4027     5.8059  H       1  <O>11       0.0269
  40 H11       2.1109    -7.5309     5.4623  H       1  <O>11       0.0315
  41 H12       2.0617    -9.1009     6.2991  H       1  <O>11       0.0315
  42 H13       3.3267   -12.8127    -3.0753  H       1  <O>11       0.0636
  43 H14       2.1435   -14.0560    -1.3594  H       1  <O>11       0.0618
  44 H15       0.9756   -12.8770     0.4170  H       1  <O>11       0.0620
  45 H16       2.1912    -9.1944    -1.2277  H       1  <O>11       0.0639
  46 H17       0.7391    -8.3884    -3.7103  H       1  <O>11       0.0654
  47 H18      -2.2287   -11.0748    -5.0282  H       1  <O>11       0.0675
  48 H19       1.8481   -12.0089    -5.5570  H       1  <O>11       0.0654
@<TRIPOS>BOND
     1     1     2    2
     2     2     3   am
     3     3     4    1
     4     4     5   ar
     5     5     6   ar
     6     6     7   ar
     7     7     8   ar
     8     8     9    1
     9     9    10    1
    10    10    11   ar
    11    11    12   ar
    12    12    13   ar
    13    13    14    2
    14    13    15   ar
    15    15    16   ar
    16    10    16   ar
    17    16    17    1
    18    17    18    1
    19    18    19    1
    20    19    20    1
    21    15    20    1
    22     8    21   ar
    23     4    21   ar
    24     2    22    1
    25    22    23   ar
    26    23    24   ar
    27    24    25    1
    28    24    26   ar
    29    26    27   ar
    30    27    28    1
    31    27    29   ar
    32    22    29   ar
    33     3    30    1
    34     9    31    1
    35     9    32    1
    36    12    33    1
    37    17    34    1
    38    17    35    1
    39    18    36    1
    40    18    37    1
    41    19    38    1
    42    19    39    1
    43    20    40    1
    44    20    41    1
    45     5    42    1
    46     6    43    1
    47     7    44    1
    48    21    45    1
    49    23    46    1
    50    26    47    1
    51    29    48    1
@<TRIPOS>MOLECULE
mol78_1_3
 48 51 0 0 0
SMALL
USER_CHARGES
****
VDW energy = -124.76
@<TRIPOS>ATOM
   1 O1        3.4420    -9.1855    -5.2979  O.2     1  <O>11      -0.2698
   2 C1        2.8552    -9.8129    -4.4288  C.2     1  <O>11       0.2484
   3 N1        3.5160   -10.1860    -3.2900  N.am    1  <O>11      -0.2815
   4 C2        2.8461   -10.9025    -2.2972  C.ar    1  <O>11       0.0339
   5 C3        2.8323   -12.3077    -2.3232  C.ar    1  <O>11      -0.0405
   6 C4        2.1512   -13.0243    -1.3337  C.ar    1  <O>11      -0.0597
   7 C5        1.4813   -12.3486    -0.3110  C.ar    1  <O>11      -0.0581
   8 C6        1.5011   -10.9497    -0.2811  C.ar    1  <O>11      -0.0398
   9 C7        0.7935   -10.2408     0.8037  C.3     1  <O>11       0.0168
  10 C8        1.7201   -10.0363     1.9483  C.ar    1  <O>11       0.0693
  11 N2        3.0303   -10.4962     1.8711  N.ar    1  <O>11      -0.1753
  12 N3        3.8834   -10.3121     2.9105  N.ar    1  <O>11      -0.2427
  13 C9        3.4522    -9.6873     4.0259  C.ar    1  <O>11       0.2682
  14 O2        4.3903    -9.5127     5.0606  O.2     1  <O>11      -0.2661
  15 C10       2.1473    -9.2231     4.1845  C.ar    1  <O>11       0.0232
  16 C11       1.2741    -9.3851     3.0953  C.ar    1  <O>11      -0.0158
  17 C12      -0.1602    -8.9313     3.1393  C.3     1  <O>11      -0.0255
  18 C13      -0.4364    -7.9314     4.2598  C.3     1  <O>11      -0.0487
  19 C14       0.1691    -8.4237     5.5666  C.3     1  <O>11      -0.0486
  20 C15       1.6889    -8.5352     5.4448  C.3     1  <O>11      -0.0222
  21 C16       2.1793   -10.2258    -1.2622  C.ar    1  <O>11      -0.0369
  22 C17       1.4620   -10.1610    -4.6040  C.ar    1  <O>11       0.0424
  23 C18       1.1306   -11.3698    -5.2192  C.ar    1  <O>11      -0.0142
  24 C19      -0.2153   -11.7066    -5.4026  C.ar    1  <O>11       0.1268
  25 F1       -0.5430   -12.8918    -6.0096  F       1  <O>11      -0.2054
  26 C20      -1.2229   -10.8409    -4.9699  C.ar    1  <O>11       0.0088
  27 C21      -0.8747    -9.6351    -4.3496  C.ar    1  <O>11       0.1268
  28 F2       -1.8676    -8.7896    -3.9265  F       1  <O>11      -0.2054
  29 C22       0.4636    -9.2913    -4.1600  C.ar    1  <O>11      -0.0142
  30 H1        4.4984    -9.9407    -3.1658  H       1  <O>11       0.1551
  31 H2       -0.0604   -10.8345     1.1291  H       1  <O>11       0.0377
  32 H3        0.4462    -9.2746     0.4400  H       1  <O>11       0.0377
  33 H4        4.8357   -10.6425     2.8425  H       1  <O>11       0.1921
  34 H5       -0.4049    -8.4612     2.1871  H       1  <O>11       0.0314
  35 H6       -0.7957    -9.8041     3.2880  H       1  <O>11       0.0314
  36 H7        0.0026    -6.9685     4.0005  H       1  <O>11       0.0268
  37 H8       -1.5142    -7.8186     4.3828  H       1  <O>11       0.0268
  38 H9       -0.0753    -7.7200     6.3616  H       1  <O>11       0.0269
  39 H10      -0.2441    -9.4027     5.8059  H       1  <O>11       0.0269
  40 H11       2.1109    -7.5309     5.4623  H       1  <O>11       0.0315
  41 H12       2.0617    -9.1009     6.2991  H       1  <O>11       0.0315
  42 H13       3.3267   -12.8127    -3.0753  H       1  <O>11       0.0636
  43 H14       2.1435   -14.0560    -1.3594  H       1  <O>11       0.0618
  44 H15       0.9756   -12.8770     0.4170  H       1  <O>11       0.0620
  45 H16       2.1912    -9.1944    -1.2277  H       1  <O>11       0.0639
  46 H17       1.8739   -12.0113    -5.5368  H       1  <O>11       0.0654
  47 H18      -2.2155   -11.0882    -5.1063  H       1  <O>11       0.0675
  48 H19       0.7134    -8.4037    -3.6966  H       1  <O>11       0.0654
@<TRIPOS>BOND
     1     1     2    2
     2     2     3   am
     3     3     4    1
     4     4     5   ar
     5     5     6   ar
     6     6     7   ar
     7     7     8   ar
     8     8     9    1
     9     9    10    1
    10    10    11   ar
    11    11    12   ar
    12    12    13   ar
    13    13    14    2
    14    13    15   ar
    15    15    16   ar
    16    10    16   ar
    17    16    17    1
    18    17    18    1
    19    18    19    1
    20    19    20    1
    21    15    20    1
    22     8    21   ar
    23     4    21   ar
    24     2    22    1
    25    22    23   ar
    26    23    24   ar
    27    24    25    1
    28    24    26   ar
    29    26    27   ar
    30    27    28    1
    31    27    29   ar
    32    22    29   ar
    33     3    30    1
    34     9    31    1
    35     9    32    1
    36    12    33    1
    37    17    34    1
    38    17    35    1
    39    18    36    1
    40    18    37    1
    41    19    38    1
    42    19    39    1
    43    20    40    1
    44    20    41    1
    45     5    42    1
    46     6    43    1
    47     7    44    1
    48    21    45    1
    49    23    46    1
    50    26    47    1
    51    29    48    1
@<TRIPOS>MOLECULE
mol78_1_4
 48 51 0 0 0
SMALL
USER_CHARGES
****
VDW energy = -124.46
@<TRIPOS>ATOM
   1 O1        3.4420    -9.1855    -5.2979  O.2     1  <O>11      -0.2698
   2 C1        2.8552    -9.8129    -4.4288  C.2     1  <O>11       0.2484
   3 N1        3.5160   -10.1860    -3.2900  N.am    1  <O>11      -0.2815
   4 C2        2.8461   -10.9025    -2.2972  C.ar    1  <O>11       0.0339
   5 C3        2.8323   -12.3077    -2.3232  C.ar    1  <O>11      -0.0405
   6 C4        2.1512   -13.0243    -1.3337  C.ar    1  <O>11      -0.0597
   7 C5        1.4813   -12.3486    -0.3110  C.ar    1  <O>11      -0.0581
   8 C6        1.5011   -10.9497    -0.2811  C.ar    1  <O>11      -0.0398
   9 C7        0.7935   -10.2408     0.8037  C.3     1  <O>11       0.0168
  10 C8       -0.6076    -9.9699     0.3865  C.ar    1  <O>11       0.0693
  11 N2       -1.0500   -10.3795    -0.8668  N.ar    1  <O>11      -0.1753
  12 N3       -2.3279   -10.1380    -1.2551  N.ar    1  <O>11      -0.2427
  13 C9       -3.1678    -9.4894    -0.4219  C.ar    1  <O>11       0.2682
  14 O2       -4.4840    -9.2852    -0.8769  O.2     1  <O>11      -0.2661
  15 C10      -2.7876    -9.0271     0.8372  C.ar    1  <O>11       0.0232
  16 C11      -1.4740    -9.3064     1.2511  C.ar    1  <O>11      -0.0158
  17 C12      -0.9384    -8.8598     2.5849  C.3     1  <O>11      -0.0255
  18 C13      -2.0384    -8.4810     3.5740  C.3     1  <O>11      -0.0487
  19 C14      -3.0593    -7.5724     2.9042  C.3     1  <O>11      -0.0486
  20 C15      -3.7440    -8.2977     1.7456  C.3     1  <O>11      -0.0222
  21 C16       2.1793   -10.2258    -1.2622  C.ar    1  <O>11      -0.0369
  22 C17       1.4620   -10.1610    -4.6040  C.ar    1  <O>11       0.0424
  23 C18       1.1306   -11.3698    -5.2192  C.ar    1  <O>11      -0.0142
  24 C19      -0.2153   -11.7066    -5.4026  C.ar    1  <O>11       0.1268
  25 F1       -0.5430   -12.8918    -6.0096  F       1  <O>11      -0.2054
  26 C20      -1.2229   -10.8409    -4.9699  C.ar    1  <O>11       0.0088
  27 C21      -0.8747    -9.6351    -4.3496  C.ar    1  <O>11       0.1268
  28 F2       -1.8676    -8.7896    -3.9265  F       1  <O>11      -0.2054
  29 C22       0.4636    -9.2913    -4.1600  C.ar    1  <O>11      -0.0142
  30 H1        4.4984    -9.9407    -3.1658  H       1  <O>11       0.1551
  31 H2        1.2992    -9.2983     1.0120  H       1  <O>11       0.0377
  32 H3        0.7927   -10.8582     1.7010  H       1  <O>11       0.0377
  33 H4       -2.6428   -10.4462    -2.1641  H       1  <O>11       0.1921
  34 H5       -0.3519    -9.6723     3.0132  H       1  <O>11       0.0314
  35 H6       -0.2979    -7.9920     2.4285  H       1  <O>11       0.0314
  36 H7       -2.5362    -9.3849     3.9235  H       1  <O>11       0.0268
  37 H8       -1.5942    -7.9590     4.4224  H       1  <O>11       0.0268
  38 H9       -3.8110    -7.2783     3.6360  H       1  <O>11       0.0269
  39 H10      -2.5540    -6.6858     2.5235  H       1  <O>11       0.0269
  40 H11      -4.4466    -9.0208     2.1583  H       1  <O>11       0.0315
  41 H12      -4.2867    -7.5616     1.1519  H       1  <O>11       0.0315
  42 H13       3.3267   -12.8127    -3.0753  H       1  <O>11       0.0636
  43 H14       2.1435   -14.0560    -1.3594  H       1  <O>11       0.0618
  44 H15       0.9756   -12.8770     0.4170  H       1  <O>11       0.0620
  45 H16       2.1912    -9.1944    -1.2277  H       1  <O>11       0.0639
  46 H17       1.8739   -12.0113    -5.5368  H       1  <O>11       0.0654
  47 H18      -2.2155   -11.0882    -5.1063  H       1  <O>11       0.0675
  48 H19       0.7134    -8.4037    -3.6966  H       1  <O>11       0.0654
@<TRIPOS>BOND
     1     1     2    2
     2     2     3   am
     3     3     4    1
     4     4     5   ar
     5     5     6   ar
     6     6     7   ar
     7     7     8   ar
     8     8     9    1
     9     9    10    1
    10    10    11   ar
    11    11    12   ar
    12    12    13   ar
    13    13    14    2
    14    13    15   ar
    15    15    16   ar
    16    10    16   ar
    17    16    17    1
    18    17    18    1
    19    18    19    1
    20    19    20    1
    21    15    20    1
    22     8    21   ar
    23     4    21   ar
    24     2    22    1
    25    22    23   ar
    26    23    24   ar
    27    24    25    1
    28    24    26   ar
    29    26    27   ar
    30    27    28    1
    31    27    29   ar
    32    22    29   ar
    33     3    30    1
    34     9    31    1
    35     9    32    1
    36    12    33    1
    37    17    34    1
    38    17    35    1
    39    18    36    1
    40    18    37    1
    41    19    38    1
    42    19    39    1
    43    20    40    1
    44    20    41    1
    45     5    42    1
    46     6    43    1
    47     7    44    1
    48    21    45    1
    49    23    46    1
    50    26    47    1
    51    29    48    1
@<TRIPOS>MOLECULE
mol78_1_5
 48 51 0 0 0
SMALL
USER_CHARGES
****
VDW energy = -123.26
@<TRIPOS>ATOM
   1 O1        3.4420    -9.1855    -5.2979  O.2     1  <O>11      -0.2698
   2 C1        2.8552    -9.8129    -4.4288  C.2     1  <O>11       0.2484
   3 N1        3.5160   -10.1860    -3.2900  N.am    1  <O>11      -0.2815
   4 C2        4.8600    -9.8500    -3.1210  C.ar    1  <O>11       0.0339
   5 C3        5.8255   -10.3053    -4.0353  C.ar    1  <O>11      -0.0405
   6 C4        7.1737    -9.9770    -3.8586  C.ar    1  <O>11      -0.0597
   7 C5        7.5702    -9.1922    -2.7731  C.ar    1  <O>11      -0.0581
   8 C6        6.6079    -8.7329    -1.8669  C.ar    1  <O>11      -0.0398
   9 C7        7.0324    -7.9017    -0.7228  C.3     1  <O>11       0.0168
  10 C8        6.9975    -6.4675    -1.1131  C.ar    1  <O>11       0.0693
  11 N2        6.6040    -6.1072    -2.3974  N.ar    1  <O>11      -0.1753
  12 N3        6.5674    -4.8002    -2.7615  N.ar    1  <O>11      -0.2427
  13 C9        6.9238    -3.8492    -1.8733  C.ar    1  <O>11       0.2682
  14 O2        6.8477    -2.5124    -2.3073  O.2     1  <O>11      -0.2661
  15 C10       7.3529    -4.1368    -0.5784  C.ar    1  <O>11       0.0232
  16 C11       7.3592    -5.4879    -0.1921  C.ar    1  <O>11      -0.0158
  17 C12       7.8038    -5.9318     1.1756  C.3     1  <O>11      -0.0255
  18 C13       7.8238    -4.7954     2.1954  C.3     1  <O>11      -0.0487
  19 C14       8.5180    -3.5740     1.6098  C.3     1  <O>11      -0.0486
  20 C15       7.7533    -3.0552     0.3919  C.3     1  <O>11      -0.0222
  21 C16       5.2604    -9.0532    -2.0355  C.ar    1  <O>11      -0.0369
  22 C17       1.4620   -10.1610    -4.6040  C.ar    1  <O>11       0.0424
  23 C18       1.1306   -11.3698    -5.2192  C.ar    1  <O>11      -0.0142
  24 C19      -0.2153   -11.7066    -5.4026  C.ar    1  <O>11       0.1268
  25 F1       -0.5430   -12.8918    -6.0096  F       1  <O>11      -0.2054
  26 C20      -1.2229   -10.8409    -4.9699  C.ar    1  <O>11       0.0088
  27 C21      -0.8747    -9.6351    -4.3496  C.ar    1  <O>11       0.1268
  28 F2       -1.8676    -8.7896    -3.9265  F       1  <O>11      -0.2054
  29 C22       0.4636    -9.2913    -4.1600  C.ar    1  <O>11      -0.0142
  30 H1        3.0270   -10.7100    -2.5640  H       1  <O>11       0.1551
  31 H2        8.0465    -8.1745    -0.4320  H       1  <O>11       0.0377
  32 H3        6.3575    -8.0667     0.1161  H       1  <O>11       0.0377
  33 H4        6.2727    -4.5473    -3.6941  H       1  <O>11       0.1921
  34 H5        7.1201    -6.7031     1.5295  H       1  <O>11       0.0314
  35 H6        8.8091    -6.3453     1.0963  H       1  <O>11       0.0314
  36 H7        6.8009    -4.5334     2.4637  H       1  <O>11       0.0268
  37 H8        8.3613    -5.1221     3.0864  H       1  <O>11       0.0268
  38 H9        8.5610    -2.7904     2.3656  H       1  <O>11       0.0269
  39 H10       9.5286    -3.8468     1.3090  H       1  <O>11       0.0269
  40 H11       6.8512    -2.5528     0.7394  H       1  <O>11       0.0315
  41 H12       8.3876    -2.3408    -0.1335  H       1  <O>11       0.0315
  42 H13       5.5387   -10.8841    -4.8402  H       1  <O>11       0.0636
  43 H14       7.8781   -10.3158    -4.5325  H       1  <O>11       0.0618
  44 H15       8.5653    -8.9530    -2.6404  H       1  <O>11       0.0620
  45 H16       4.5587    -8.7051    -1.3635  H       1  <O>11       0.0639
  46 H17       1.8739   -12.0113    -5.5368  H       1  <O>11       0.0654
  47 H18      -2.2155   -11.0882    -5.1063  H       1  <O>11       0.0675
  48 H19       0.7134    -8.4037    -3.6966  H       1  <O>11       0.0654
@<TRIPOS>BOND
     1     1     2    2
     2     2     3   am
     3     3     4    1
     4     4     5   ar
     5     5     6   ar
     6     6     7   ar
     7     7     8   ar
     8     8     9    1
     9     9    10    1
    10    10    11   ar
    11    11    12   ar
    12    12    13   ar
    13    13    14    2
    14    13    15   ar
    15    15    16   ar
    16    10    16   ar
    17    16    17    1
    18    17    18    1
    19    18    19    1
    20    19    20    1
    21    15    20    1
    22     8    21   ar
    23     4    21   ar
    24     2    22    1
    25    22    23   ar
    26    23    24   ar
    27    24    25    1
    28    24    26   ar
    29    26    27   ar
    30    27    28    1
    31    27    29   ar
    32    22    29   ar
    33     3    30    1
    34     9    31    1
    35     9    32    1
    36    12    33    1
    37    17    34    1
    38    17    35    1
    39    18    36    1
    40    18    37    1
    41    19    38    1
    42    19    39    1
    43    20    40    1
    44    20    41    1
    45     5    42    1
    46     6    43    1
    47     7    44    1
    48    21    45    1
    49    23    46    1
    50    26    47    1
    51    29    48    1
@<TRIPOS>MOLECULE
mol78_1_6
 48 51 0 0 0
SMALL
USER_CHARGES
****
VDW energy = -123.20
@<TRIPOS>ATOM
   1 O1        3.4420    -9.1855    -5.2979  O.2     1  <O>11      -0.2698
   2 C1        2.8552    -9.8129    -4.4288  C.2     1  <O>11       0.2484
   3 N1        3.5160   -10.1860    -3.2900  N.am    1  <O>11      -0.2815
   4 C2        4.8600    -9.8500    -3.1210  C.ar    1  <O>11       0.0339
   5 C3        5.2592    -8.5024    -3.1160  C.ar    1  <O>11      -0.0405
   6 C4        6.6081    -8.1674    -2.9576  C.ar    1  <O>11      -0.0597
   7 C5        7.5681    -9.1699    -2.8010  C.ar    1  <O>11      -0.0581
   8 C6        7.1697   -10.5113    -2.7987  C.ar    1  <O>11      -0.0398
   9 C7        8.1884   -11.5667    -2.6302  C.3     1  <O>11       0.0168
  10 C8        8.3561   -11.8665    -1.1837  C.ar    1  <O>11       0.0693
  11 N2        7.6006   -11.1785    -0.2403  N.ar    1  <O>11      -0.1753
  12 N3        7.7458   -11.4471     1.0821  N.ar    1  <O>11      -0.2427
  13 C9        8.6349   -12.3806     1.4803  C.ar    1  <O>11       0.2682
  14 O2        8.7255   -12.6242     2.8636  O.2     1  <O>11      -0.2661
  15 C10       9.4440   -13.0908     0.5945  C.ar    1  <O>11       0.0232
  16 C11       9.2695   -12.8351    -0.7763  C.ar    1  <O>11      -0.0158
  17 C12      10.0822   -13.5314    -1.8346  C.3     1  <O>11      -0.0255
  18 C13      10.7671   -14.7976    -1.3253  C.3     1  <O>11      -0.0487
  19 C14      11.4578   -14.5252     0.0033  C.3     1  <O>11      -0.0486
  20 C15      10.4355   -14.1232     1.0665  C.3     1  <O>11      -0.0222
  21 C16       5.8266   -10.8557    -2.9540  C.ar    1  <O>11      -0.0369
  22 C17       1.4620   -10.1610    -4.6040  C.ar    1  <O>11       0.0424
  23 C18       1.1306   -11.3698    -5.2192  C.ar    1  <O>11      -0.0142
  24 C19      -0.2153   -11.7066    -5.4026  C.ar    1  <O>11       0.1268
  25 F1       -0.5430   -12.8918    -6.0096  F       1  <O>11      -0.2054
  26 C20      -1.2229   -10.8409    -4.9699  C.ar    1  <O>11       0.0088
  27 C21      -0.8747    -9.6351    -4.3496  C.ar    1  <O>11       0.1268
  28 F2       -1.8676    -8.7896    -3.9265  F       1  <O>11      -0.2054
  29 C22       0.4636    -9.2913    -4.1600  C.ar    1  <O>11      -0.0142
  30 H1        3.0270   -10.7100    -2.5640  H       1  <O>11       0.1551
  31 H2        9.1374   -11.2247    -3.0427  H       1  <O>11       0.0377
  32 H3        7.8687   -12.4669    -3.1534  H       1  <O>11       0.0377
  33 H4        7.1870   -10.9480     1.7598  H       1  <O>11       0.1921
  34 H5        9.4213   -13.8019    -2.6578  H       1  <O>11       0.0314
  35 H6       10.8471   -12.8429    -2.1934  H       1  <O>11       0.0314
  36 H7       10.0221   -15.5809    -1.1892  H       1  <O>11       0.0268
  37 H8       11.5083   -15.1235    -2.0560  H       1  <O>11       0.0268
  38 H9       11.9762   -15.4266     0.3284  H       1  <O>11       0.0269
  39 H10      12.1767   -13.7173    -0.1262  H       1  <O>11       0.0269
  40 H11       9.8869   -15.0136     1.3717  H       1  <O>11       0.0315
  41 H12      10.9727   -13.7159     1.9234  H       1  <O>11       0.0315
  42 H13       4.5545    -7.7571    -3.2296  H       1  <O>11       0.0636
  43 H14       6.8949    -7.1761    -2.9565  H       1  <O>11       0.0618
  44 H15       8.5638    -8.9231    -2.6878  H       1  <O>11       0.0620
  45 H16       5.5435   -11.8481    -2.9460  H       1  <O>11       0.0639
  46 H17       1.8739   -12.0113    -5.5368  H       1  <O>11       0.0654
  47 H18      -2.2155   -11.0882    -5.1063  H       1  <O>11       0.0675
  48 H19       0.7134    -8.4037    -3.6966  H       1  <O>11       0.0654
@<TRIPOS>BOND
     1     1     2    2
     2     2     3   am
     3     3     4    1
     4     4     5   ar
     5     5     6   ar
     6     6     7   ar
     7     7     8   ar
     8     8     9    1
     9     9    10    1
    10    10    11   ar
    11    11    12   ar
    12    12    13   ar
    13    13    14    2
    14    13    15   ar
    15    15    16   ar
    16    10    16   ar
    17    16    17    1
    18    17    18    1
    19    18    19    1
    20    19    20    1
    21    15    20    1
    22     8    21   ar
    23     4    21   ar
    24     2    22    1
    25    22    23   ar
    26    23    24   ar
    27    24    25    1
    28    24    26   ar
    29    26    27   ar
    30    27    28    1
    31    27    29   ar
    32    22    29   ar
    33     3    30    1
    34     9    31    1
    35     9    32    1
    36    12    33    1
    37    17    34    1
    38    17    35    1
    39    18    36    1
    40    18    37    1
    41    19    38    1
    42    19    39    1
    43    20    40    1
    44    20    41    1
    45     5    42    1
    46     6    43    1
    47     7    44    1
    48    21    45    1
    49    23    46    1
    50    26    47    1
    51    29    48    1
@<TRIPOS>MOLECULE
mol78_1_7
 48 51 0 0 0
SMALL
USER_CHARGES
****
VDW energy = -123.16
@<TRIPOS>ATOM
   1 O1        3.4420    -9.1855    -5.2979  O.2     1  <O>11      -0.2698
   2 C1        2.8552    -9.8129    -4.4288  C.2     1  <O>11       0.2484
   3 N1        3.5160   -10.1860    -3.2900  N.am    1  <O>11      -0.2815
   4 C2        4.8600    -9.8500    -3.1210  C.ar    1  <O>11       0.0339
   5 C3        5.8255   -10.3053    -4.0353  C.ar    1  <O>11      -0.0405
   6 C4        7.1737    -9.9770    -3.8586  C.ar    1  <O>11      -0.0597
   7 C5        7.5702    -9.1922    -2.7731  C.ar    1  <O>11      -0.0581
   8 C6        6.6079    -8.7329    -1.8669  C.ar    1  <O>11      -0.0398
   9 C7        7.0324    -7.9017    -0.7228  C.3     1  <O>11       0.0168
  10 C8        7.3519    -8.7785     0.4346  C.ar    1  <O>11       0.0693
  11 N2        7.2248   -10.1583     0.3157  N.ar    1  <O>11      -0.1753
  12 N3        7.5161   -10.9663     1.3666  N.ar    1  <O>11      -0.2427
  13 C9        7.9222   -10.4241     2.5335  C.ar    1  <O>11       0.2682
  14 O2        8.2250   -11.3167     3.5788  O.2     1  <O>11      -0.2661
  15 C10       8.0477    -9.0502     2.7338  C.ar    1  <O>11       0.0232
  16 C11       7.7772    -8.2165     1.6353  C.ar    1  <O>11      -0.0158
  17 C12       7.8717    -6.7168     1.7207  C.3     1  <O>11      -0.0255
  18 C13       8.6771    -6.2366     2.9259  C.3     1  <O>11      -0.0487
  19 C14       8.2321    -6.9699     4.1832  C.3     1  <O>11      -0.0486
  20 C15       8.4958    -8.4699     4.0507  C.3     1  <O>11      -0.0222
  21 C16       5.2604    -9.0532    -2.0355  C.ar    1  <O>11      -0.0369
  22 C17       1.4620   -10.1610    -4.6040  C.ar    1  <O>11       0.0424
  23 C18       1.1306   -11.3698    -5.2192  C.ar    1  <O>11      -0.0142
  24 C19      -0.2153   -11.7066    -5.4026  C.ar    1  <O>11       0.1268
  25 F1       -0.5430   -12.8918    -6.0096  F       1  <O>11      -0.2054
  26 C20      -1.2229   -10.8409    -4.9699  C.ar    1  <O>11       0.0088
  27 C21      -0.8747    -9.6351    -4.3496  C.ar    1  <O>11       0.1268
  28 F2       -1.8676    -8.7896    -3.9265  F       1  <O>11      -0.2054
  29 C22       0.4636    -9.2913    -4.1600  C.ar    1  <O>11      -0.0142
  30 H1        3.0270   -10.7100    -2.5640  H       1  <O>11       0.1551
  31 H2        6.2270    -7.2198    -0.4507  H       1  <O>11       0.0377
  32 H3        7.9160    -7.3278    -0.9989  H       1  <O>11       0.0377
  33 H4        7.4286   -11.9679     1.2687  H       1  <O>11       0.1921
  34 H5        8.3504    -6.3470     0.8143  H       1  <O>11       0.0314
  35 H6        6.8634    -6.3092     1.7919  H       1  <O>11       0.0314
  36 H7        9.7353    -6.4295     2.7527  H       1  <O>11       0.0268
  37 H8        8.5196    -5.1656     3.0593  H       1  <O>11       0.0268
  38 H9        8.7865    -6.5835     5.0378  H       1  <O>11       0.0269
  39 H10       7.1662    -6.8054     4.3350  H       1  <O>11       0.0269
  40 H11       9.5663    -8.6426     4.1570  H       1  <O>11       0.0315
  41 H12       7.9635    -8.9846     4.8510  H       1  <O>11       0.0315
  42 H13       5.5387   -10.8841    -4.8402  H       1  <O>11       0.0636
  43 H14       7.8781   -10.3158    -4.5325  H       1  <O>11       0.0618
  44 H15       8.5653    -8.9530    -2.6404  H       1  <O>11       0.0620
  45 H16       4.5587    -8.7051    -1.3635  H       1  <O>11       0.0639
  46 H17       1.8739   -12.0113    -5.5368  H       1  <O>11       0.0654
  47 H18      -2.2155   -11.0882    -5.1063  H       1  <O>11       0.0675
  48 H19       0.7134    -8.4037    -3.6966  H       1  <O>11       0.0654
@<TRIPOS>BOND
     1     1     2    2
     2     2     3   am
     3     3     4    1
     4     4     5   ar
     5     5     6   ar
     6     6     7   ar
     7     7     8   ar
     8     8     9    1
     9     9    10    1
    10    10    11   ar
    11    11    12   ar
    12    12    13   ar
    13    13    14    2
    14    13    15   ar
    15    15    16   ar
    16    10    16   ar
    17    16    17    1
    18    17    18    1
    19    18    19    1
    20    19    20    1
    21    15    20    1
    22     8    21   ar
    23     4    21   ar
    24     2    22    1
    25    22    23   ar
    26    23    24   ar
    27    24    25    1
    28    24    26   ar
    29    26    27   ar
    30    27    28    1
    31    27    29   ar
    32    22    29   ar
    33     3    30    1
    34     9    31    1
    35     9    32    1
    36    12    33    1
    37    17    34    1
    38    17    35    1
    39    18    36    1
    40    18    37    1
    41    19    38    1
    42    19    39    1
    43    20    40    1
    44    20    41    1
    45     5    42    1
    46     6    43    1
    47     7    44    1
    48    21    45    1
    49    23    46    1
    50    26    47    1
    51    29    48    1
@<TRIPOS>MOLECULE
mol78_1_8
 48 51 0 0 0
SMALL
USER_CHARGES
****
VDW energy = -123.16
@<TRIPOS>ATOM
   1 O1        3.4420    -9.1855    -5.2979  O.2     1  <O>11      -0.2698
   2 C1        2.8552    -9.8129    -4.4288  C.2     1  <O>11       0.2484
   3 N1        3.5160   -10.1860    -3.2900  N.am    1  <O>11      -0.2815
   4 C2        4.8600    -9.8500    -3.1210  C.ar    1  <O>11       0.0339
   5 C3        5.8255   -10.3053    -4.0353  C.ar    1  <O>11      -0.0405
   6 C4        7.1737    -9.9770    -3.8586  C.ar    1  <O>11      -0.0597
   7 C5        7.5702    -9.1922    -2.7731  C.ar    1  <O>11      -0.0581
   8 C6        6.6079    -8.7329    -1.8669  C.ar    1  <O>11      -0.0398
   9 C7        7.0324    -7.9017    -0.7228  C.3     1  <O>11       0.0168
  10 C8        7.3519    -8.7785     0.4346  C.ar    1  <O>11       0.0693
  11 N2        7.2248   -10.1583     0.3157  N.ar    1  <O>11      -0.1753
  12 N3        7.5161   -10.9663     1.3666  N.ar    1  <O>11      -0.2427
  13 C9        7.9222   -10.4241     2.5335  C.ar    1  <O>11       0.2682
  14 O2        8.2250   -11.3167     3.5788  O.2     1  <O>11      -0.2661
  15 C10       8.0477    -9.0502     2.7338  C.ar    1  <O>11       0.0232
  16 C11       7.7772    -8.2165     1.6353  C.ar    1  <O>11      -0.0158
  17 C12       7.8717    -6.7168     1.7207  C.3     1  <O>11      -0.0255
  18 C13       8.6771    -6.2366     2.9259  C.3     1  <O>11      -0.0487
  19 C14       8.2321    -6.9699     4.1832  C.3     1  <O>11      -0.0486
  20 C15       8.4958    -8.4699     4.0507  C.3     1  <O>11      -0.0222
  21 C16       5.2604    -9.0532    -2.0355  C.ar    1  <O>11      -0.0369
  22 C17       1.4620   -10.1610    -4.6040  C.ar    1  <O>11       0.0424
  23 C18       0.4750    -9.2817    -4.1546  C.ar    1  <O>11      -0.0142
  24 C19      -0.8745    -9.6183    -4.3101  C.ar    1  <O>11       0.1268
  25 F1       -1.8455    -8.7576    -3.8665  F       1  <O>11      -0.2054
  26 C20      -1.2337   -10.8255    -4.9148  C.ar    1  <O>11       0.0088
  27 C21      -0.2326   -11.6941    -5.3653  C.ar    1  <O>11       0.1268
  28 F2       -0.5908   -12.8772    -5.9584  F       1  <O>11      -0.2054
  29 C22       1.1151   -11.3668    -5.2172  C.ar    1  <O>11      -0.0142
  30 H1        3.0270   -10.7100    -2.5640  H       1  <O>11       0.1551
  31 H2        6.2270    -7.2198    -0.4507  H       1  <O>11       0.0377
  32 H3        7.9160    -7.3278    -0.9989  H       1  <O>11       0.0377
  33 H4        7.4286   -11.9679     1.2687  H       1  <O>11       0.1921
  34 H5        8.3504    -6.3470     0.8143  H       1  <O>11       0.0314
  35 H6        6.8634    -6.3092     1.7919  H       1  <O>11       0.0314
  36 H7        9.7353    -6.4295     2.7527  H       1  <O>11       0.0268
  37 H8        8.5196    -5.1656     3.0593  H       1  <O>11       0.0268
  38 H9        8.7865    -6.5835     5.0378  H       1  <O>11       0.0269
  39 H10       7.1662    -6.8054     4.3350  H       1  <O>11       0.0269
  40 H11       9.5663    -8.6426     4.1570  H       1  <O>11       0.0315
  41 H12       7.9635    -8.9846     4.8510  H       1  <O>11       0.0315
  42 H13       5.5387   -10.8841    -4.8402  H       1  <O>11       0.0636
  43 H14       7.8781   -10.3158    -4.5325  H       1  <O>11       0.0618
  44 H15       8.5653    -8.9530    -2.6404  H       1  <O>11       0.0620
  45 H16       4.5587    -8.7051    -1.3635  H       1  <O>11       0.0639
  46 H17       0.7391    -8.3884    -3.7103  H       1  <O>11       0.0654
  47 H18      -2.2287   -11.0748    -5.0282  H       1  <O>11       0.0675
  48 H19       1.8481   -12.0089    -5.5570  H       1  <O>11       0.0654
@<TRIPOS>BOND
     1     1     2    2
     2     2     3   am
     3     3     4    1
     4     4     5   ar
     5     5     6   ar
     6     6     7   ar
     7     7     8   ar
     8     8     9    1
     9     9    10    1
    10    10    11   ar
    11    11    12   ar
    12    12    13   ar
    13    13    14    2
    14    13    15   ar
    15    15    16   ar
    16    10    16   ar
    17    16    17    1
    18    17    18    1
    19    18    19    1
    20    19    20    1
    21    15    20    1
    22     8    21   ar
    23     4    21   ar
    24     2    22    1
    25    22    23   ar
    26    23    24   ar
    27    24    25    1
    28    24    26   ar
    29    26    27   ar
    30    27    28    1
    31    27    29   ar
    32    22    29   ar
    33     3    30    1
    34     9    31    1
    35     9    32    1
    36    12    33    1
    37    17    34    1
    38    17    35    1
    39    18    36    1
    40    18    37    1
    41    19    38    1
    42    19    39    1
    43    20    40    1
    44    20    41    1
    45     5    42    1
    46     6    43    1
    47     7    44    1
    48    21    45    1
    49    23    46    1
    50    26    47    1
    51    29    48    1
@<TRIPOS>MOLECULE
mol78_1_9
 48 51 0 0 0
SMALL
USER_CHARGES
****
VDW energy = -121.14
@<TRIPOS>ATOM
   1 O1        3.4420    -9.1855    -5.2979  O.2     1  <O>11      -0.2698
   2 C1        2.8552    -9.8129    -4.4288  C.2     1  <O>11       0.2484
   3 N1        3.5160   -10.1860    -3.2900  N.am    1  <O>11      -0.2815
   4 C2        2.8461   -10.9025    -2.2972  C.ar    1  <O>11       0.0339
   5 C3        2.8323   -12.3077    -2.3232  C.ar    1  <O>11      -0.0405
   6 C4        2.1512   -13.0243    -1.3337  C.ar    1  <O>11      -0.0597
   7 C5        1.4813   -12.3486    -0.3110  C.ar    1  <O>11      -0.0581
   8 C6        1.5011   -10.9497    -0.2811  C.ar    1  <O>11      -0.0398
   9 C7        0.7935   -10.2408     0.8037  C.3     1  <O>11       0.0168
  10 C8       -0.6514   -10.5890     0.7626  C.ar    1  <O>11       0.0693
  11 N2       -1.1267   -11.4648    -0.2076  N.ar    1  <O>11      -0.1753
  12 N3       -2.4438   -11.7896    -0.2513  N.ar    1  <O>11      -0.2427
  13 C9       -3.2946   -11.2514     0.6470  C.ar    1  <O>11       0.2682
  14 O2       -4.6440   -11.6418     0.5588  O.2     1  <O>11      -0.2661
  15 C10      -2.8948   -10.3477     1.6304  C.ar    1  <O>11       0.0232
  16 C11      -1.5257   -10.0374     1.6951  C.ar    1  <O>11      -0.0158
  17 C12      -0.9660    -9.0739     2.7069  C.3     1  <O>11      -0.0255
  18 C13      -1.9124    -8.8206     3.8781  C.3     1  <O>11      -0.0487
  19 C14      -3.3190    -8.5414     3.3681  C.3     1  <O>11      -0.0486
  20 C15      -3.8677    -9.7547     2.6170  C.3     1  <O>11      -0.0222
  21 C16       2.1793   -10.2258    -1.2622  C.ar    1  <O>11      -0.0369
  22 C17       1.4620   -10.1610    -4.6040  C.ar    1  <O>11       0.0424
  23 C18       1.1306   -11.3698    -5.2192  C.ar    1  <O>11      -0.0142
  24 C19      -0.2153   -11.7066    -5.4026  C.ar    1  <O>11       0.1268
  25 F1       -0.5430   -12.8918    -6.0096  F       1  <O>11      -0.2054
  26 C20      -1.2229   -10.8409    -4.9699  C.ar    1  <O>11       0.0088
  27 C21      -0.8747    -9.6351    -4.3496  C.ar    1  <O>11       0.1268
  28 F2       -1.8676    -8.7896    -3.9265  F       1  <O>11      -0.2054
  29 C22       0.4636    -9.2913    -4.1600  C.ar    1  <O>11      -0.0142
  30 H1        4.4984    -9.9407    -3.1658  H       1  <O>11       0.1551
  31 H2        0.9119    -9.1655     0.6726  H       1  <O>11       0.0377
  32 H3        1.2117   -10.5374     1.7646  H       1  <O>11       0.0377
  33 H4       -2.7788   -12.4328    -0.9545  H       1  <O>11       0.1921
  34 H5       -0.0339    -9.4824     3.0966  H       1  <O>11       0.0314
  35 H6       -0.7672    -8.1249     2.2092  H       1  <O>11       0.0314
  36 H7       -1.9316    -9.6985     4.5230  H       1  <O>11       0.0268
  37 H8       -1.5583    -7.9595     4.4462  H       1  <O>11       0.0268
  38 H9       -3.9690    -8.3205     4.2141  H       1  <O>11       0.0269
  39 H10      -3.2923    -7.6853     2.6951  H       1  <O>11       0.0269
  40 H11      -4.1303   -10.5213     3.3453  H       1  <O>11       0.0315
  41 H12      -4.7620    -9.4475     2.0743  H       1  <O>11       0.0315
  42 H13       3.3267   -12.8127    -3.0753  H       1  <O>11       0.0636
  43 H14       2.1435   -14.0560    -1.3594  H       1  <O>11       0.0618
  44 H15       0.9756   -12.8770     0.4170  H       1  <O>11       0.0620
  45 H16       2.1912    -9.1944    -1.2277  H       1  <O>11       0.0639
  46 H17       1.8739   -12.0113    -5.5368  H       1  <O>11       0.0654
  47 H18      -2.2155   -11.0882    -5.1063  H       1  <O>11       0.0675
  48 H19       0.7134    -8.4037    -3.6966  H       1  <O>11       0.0654
@<TRIPOS>BOND
     1     1     2    2
     2     2     3   am
     3     3     4    1
     4     4     5   ar
     5     5     6   ar
     6     6     7   ar
     7     7     8   ar
     8     8     9    1
     9     9    10    1
    10    10    11   ar
    11    11    12   ar
    12    12    13   ar
    13    13    14    2
    14    13    15   ar
    15    15    16   ar
    16    10    16   ar
    17    16    17    1
    18    17    18    1
    19    18    19    1
    20    19    20    1
    21    15    20    1
    22     8    21   ar
    23     4    21   ar
    24     2    22    1
    25    22    23   ar
    26    23    24   ar
    27    24    25    1
    28    24    26   ar
    29    26    27   ar
    30    27    28    1
    31    27    29   ar
    32    22    29   ar
    33     3    30    1
    34     9    31    1
    35     9    32    1
    36    12    33    1
    37    17    34    1
    38    17    35    1
    39    18    36    1
    40    18    37    1
    41    19    38    1
    42    19    39    1
    43    20    40    1
    44    20    41    1
    45     5    42    1
    46     6    43    1
    47     7    44    1
    48    21    45    1
    49    23    46    1
    50    26    47    1
    51    29    48    1
@<TRIPOS>MOLECULE
mol78_1_10
 48 51 0 0 0
SMALL
USER_CHARGES
****
VDW energy = -120.17
@<TRIPOS>ATOM
   1 O1        3.4420    -9.1855    -5.2979  O.2     1  <O>11      -0.2698
   2 C1        2.8552    -9.8129    -4.4288  C.2     1  <O>11       0.2484
   3 N1        3.5160   -10.1860    -3.2900  N.am    1  <O>11      -0.2815
   4 C2        4.8600    -9.8500    -3.1210  C.ar    1  <O>11       0.0339
   5 C3        5.8255   -10.3053    -4.0353  C.ar    1  <O>11      -0.0405
   6 C4        7.1737    -9.9770    -3.8586  C.ar    1  <O>11      -0.0597
   7 C5        7.5702    -9.1922    -2.7731  C.ar    1  <O>11      -0.0581
   8 C6        6.6079    -8.7329    -1.8669  C.ar    1  <O>11      -0.0398
   9 C7        7.0324    -7.9017    -0.7228  C.3     1  <O>11       0.0168
  10 C8        7.3519    -8.7785     0.4346  C.ar    1  <O>11       0.0693
  11 N2        7.2248   -10.1583     0.3157  N.ar    1  <O>11      -0.1753
  12 N3        7.5161   -10.9663     1.3666  N.ar    1  <O>11      -0.2427
  13 C9        7.9222   -10.4241     2.5335  C.ar    1  <O>11       0.2682
  14 O2        8.2250   -11.3167     3.5788  O.2     1  <O>11      -0.2661
  15 C10       8.0477    -9.0502     2.7338  C.ar    1  <O>11       0.0232
  16 C11       7.7772    -8.2165     1.6353  C.ar    1  <O>11      -0.0158
  17 C12       7.8717    -6.7168     1.7207  C.3     1  <O>11      -0.0255
  18 C13       8.6771    -6.2366     2.9259  C.3     1  <O>11      -0.0487
  19 C14       8.2321    -6.9699     4.1832  C.3     1  <O>11      -0.0486
  20 C15       8.4958    -8.4699     4.0507  C.3     1  <O>11      -0.0222
  21 C16       5.2604    -9.0532    -2.0355  C.ar    1  <O>11      -0.0369
  22 C17       1.4620   -10.1610    -4.6040  C.ar    1  <O>11       0.0424
  23 C18       1.0134   -11.4175    -4.1926  C.ar    1  <O>11      -0.0142
  24 C19      -0.3305   -11.7649    -4.3706  C.ar    1  <O>11       0.1268
  25 F1       -0.7725   -12.9998    -3.9703  F       1  <O>11      -0.2054
  26 C20      -1.2205   -10.8590    -4.9532  C.ar    1  <O>11       0.0088
  27 C21      -0.7568    -9.6008    -5.3553  C.ar    1  <O>11       0.1268
  28 F2       -1.6347    -8.7156    -5.9260  F       1  <O>11      -0.2054
  29 C22       0.5801    -9.2441    -5.1802  C.ar    1  <O>11      -0.0142
  30 H1        3.0270   -10.7100    -2.5640  H       1  <O>11       0.1551
  31 H2        6.2270    -7.2198    -0.4507  H       1  <O>11       0.0377
  32 H3        7.9160    -7.3278    -0.9989  H       1  <O>11       0.0377
  33 H4        7.4286   -11.9679     1.2687  H       1  <O>11       0.1921
  34 H5        8.3504    -6.3470     0.8143  H       1  <O>11       0.0314
  35 H6        6.8634    -6.3092     1.7919  H       1  <O>11       0.0314
  36 H7        9.7353    -6.4295     2.7527  H       1  <O>11       0.0268
  37 H8        8.5196    -5.1656     3.0593  H       1  <O>11       0.0268
  38 H9        8.7865    -6.5835     5.0378  H       1  <O>11       0.0269
  39 H10       7.1662    -6.8054     4.3350  H       1  <O>11       0.0269
  40 H11       9.5663    -8.6426     4.1570  H       1  <O>11       0.0315
  41 H12       7.9635    -8.9846     4.8510  H       1  <O>11       0.0315
  42 H13       5.5387   -10.8841    -4.8402  H       1  <O>11       0.0636
  43 H14       7.8781   -10.3158    -4.5325  H       1  <O>11       0.0618
  44 H15       8.5653    -8.9530    -2.6404  H       1  <O>11       0.0620
  45 H16       4.5587    -8.7051    -1.3635  H       1  <O>11       0.0639
  46 H17       1.6693   -12.0865    -3.7596  H       1  <O>11       0.0654
  47 H18      -2.2113   -11.1153    -5.0861  H       1  <O>11       0.0675
  48 H19       0.9141    -8.3127    -5.4733  H       1  <O>11       0.0654
@<TRIPOS>BOND
     1     1     2    2
     2     2     3   am
     3     3     4    1
     4     4     5   ar
     5     5     6   ar
     6     6     7   ar
     7     7     8   ar
     8     8     9    1
     9     9    10    1
    10    10    11   ar
    11    11    12   ar
    12    12    13   ar
    13    13    14    2
    14    13    15   ar
    15    15    16   ar
    16    10    16   ar
    17    16    17    1
    18    17    18    1
    19    18    19    1
    20    19    20    1
    21    15    20    1
    22     8    21   ar
    23     4    21   ar
    24     2    22    1
    25    22    23   ar
    26    23    24   ar
    27    24    25    1
    28    24    26   ar
    29    26    27   ar
    30    27    28    1
    31    27    29   ar
    32    22    29   ar
    33     3    30    1
    34     9    31    1
    35     9    32    1
    36    12    33    1
    37    17    34    1
    38    17    35    1
    39    18    36    1
    40    18    37    1
    41    19    38    1
    42    19    39    1
    43    20    40    1
    44    20    41    1
    45     5    42    1
    46     6    43    1
    47     7    44    1
    48    21    45    1
    49    23    46    1
    50    26    47    1
    51    29    48    1
@<TRIPOS>MOLECULE
mol78_1_11
 48 51 0 0 0
SMALL
USER_CHARGES
****
VDW energy = -120.17
@<TRIPOS>ATOM
   1 O1        3.4420    -9.1855    -5.2979  O.2     1  <O>11      -0.2698
   2 C1        2.8552    -9.8129    -4.4288  C.2     1  <O>11       0.2484
   3 N1        3.5160   -10.1860    -3.2900  N.am    1  <O>11      -0.2815
   4 C2        4.8600    -9.8500    -3.1210  C.ar    1  <O>11       0.0339
   5 C3        5.8255   -10.3053    -4.0353  C.ar    1  <O>11      -0.0405
   6 C4        7.1737    -9.9770    -3.8586  C.ar    1  <O>11      -0.0597
   7 C5        7.5702    -9.1922    -2.7731  C.ar    1  <O>11      -0.0581
   8 C6        6.6079    -8.7329    -1.8669  C.ar    1  <O>11      -0.0398
   9 C7        7.0324    -7.9017    -0.7228  C.3     1  <O>11       0.0168
  10 C8        7.3519    -8.7785     0.4346  C.ar    1  <O>11       0.0693
  11 N2        7.2248   -10.1583     0.3157  N.ar    1  <O>11      -0.1753
  12 N3        7.5161   -10.9663     1.3666  N.ar    1  <O>11      -0.2427
  13 C9        7.9222   -10.4241     2.5335  C.ar    1  <O>11       0.2682
  14 O2        8.2250   -11.3167     3.5788  O.2     1  <O>11      -0.2661
  15 C10       8.0477    -9.0502     2.7338  C.ar    1  <O>11       0.0232
  16 C11       7.7772    -8.2165     1.6353  C.ar    1  <O>11      -0.0158
  17 C12       7.8717    -6.7168     1.7207  C.3     1  <O>11      -0.0255
  18 C13       8.6771    -6.2366     2.9259  C.3     1  <O>11      -0.0487
  19 C14       8.2321    -6.9699     4.1832  C.3     1  <O>11      -0.0486
  20 C15       8.4958    -8.4699     4.0507  C.3     1  <O>11      -0.0222
  21 C16       5.2604    -9.0532    -2.0355  C.ar    1  <O>11      -0.0369
  22 C17       1.4620   -10.1610    -4.6040  C.ar    1  <O>11       0.0424
  23 C18       0.5946   -10.0837    -3.5126  C.ar    1  <O>11      -0.0142
  24 C19      -0.7516   -10.4309    -3.6727  C.ar    1  <O>11       0.1268
  25 F1       -1.6044   -10.3589    -2.6013  F       1  <O>11      -0.2054
  26 C20      -1.2274   -10.8492    -4.9180  C.ar    1  <O>11       0.0088
  27 C21      -0.3466   -10.9160    -6.0041  C.ar    1  <O>11       0.1268
  28 F2       -0.8191   -11.3266    -7.2240  F       1  <O>11      -0.2054
  29 C22       0.9963   -10.5699    -5.8555  C.ar    1  <O>11      -0.0142
  30 H1        3.0270   -10.7100    -2.5640  H       1  <O>11       0.1551
  31 H2        6.2270    -7.2198    -0.4507  H       1  <O>11       0.0377
  32 H3        7.9160    -7.3278    -0.9989  H       1  <O>11       0.0377
  33 H4        7.4286   -11.9679     1.2687  H       1  <O>11       0.1921
  34 H5        8.3504    -6.3470     0.8143  H       1  <O>11       0.0314
  35 H6        6.8634    -6.3092     1.7919  H       1  <O>11       0.0314
  36 H7        9.7353    -6.4295     2.7527  H       1  <O>11       0.0268
  37 H8        8.5196    -5.1656     3.0593  H       1  <O>11       0.0268
  38 H9        8.7865    -6.5835     5.0378  H       1  <O>11       0.0269
  39 H10       7.1662    -6.8054     4.3350  H       1  <O>11       0.0269
  40 H11       9.5663    -8.6426     4.1570  H       1  <O>11       0.0315
  41 H12       7.9635    -8.9846     4.8510  H       1  <O>11       0.0315
  42 H13       5.5387   -10.8841    -4.8402  H       1  <O>11       0.0636
  43 H14       7.8781   -10.3158    -4.5325  H       1  <O>11       0.0618
  44 H15       8.5653    -8.9530    -2.6404  H       1  <O>11       0.0620
  45 H16       4.5587    -8.7051    -1.3635  H       1  <O>11       0.0639
  46 H17       0.9443    -9.7723    -2.5929  H       1  <O>11       0.0654
  47 H18      -2.2197   -11.1068    -5.0362  H       1  <O>11       0.0675
  48 H19       1.6389   -10.6156    -6.6617  H       1  <O>11       0.0654
@<TRIPOS>BOND
     1     1     2    2
     2     2     3   am
     3     3     4    1
     4     4     5   ar
     5     5     6   ar
     6     6     7   ar
     7     7     8   ar
     8     8     9    1
     9     9    10    1
    10    10    11   ar
    11    11    12   ar
    12    12    13   ar
    13    13    14    2
    14    13    15   ar
    15    15    16   ar
    16    10    16   ar
    17    16    17    1
    18    17    18    1
    19    18    19    1
    20    19    20    1
    21    15    20    1
    22     8    21   ar
    23     4    21   ar
    24     2    22    1
    25    22    23   ar
    26    23    24   ar
    27    24    25    1
    28    24    26   ar
    29    26    27   ar
    30    27    28    1
    31    27    29   ar
    32    22    29   ar
    33     3    30    1
    34     9    31    1
    35     9    32    1
    36    12    33    1
    37    17    34    1
    38    17    35    1
    39    18    36    1
    40    18    37    1
    41    19    38    1
    42    19    39    1
    43    20    40    1
    44    20    41    1
    45     5    42    1
    46     6    43    1
    47     7    44    1
    48    21    45    1
    49    23    46    1
    50    26    47    1
    51    29    48    1
@<TRIPOS>MOLECULE
mol78_1_12
 48 51 0 0 0
SMALL
USER_CHARGES
****
VDW energy = -119.36
@<TRIPOS>ATOM
   1 O1        3.4420    -9.1855    -5.2979  O.2     1  <O>11      -0.2698
   2 C1        2.8552    -9.8129    -4.4288  C.2     1  <O>11       0.2484
   3 N1        3.5160   -10.1860    -3.2900  N.am    1  <O>11      -0.2815
   4 C2        4.8600    -9.8500    -3.1210  C.ar    1  <O>11       0.0339
   5 C3        5.8255   -10.3053    -4.0353  C.ar    1  <O>11      -0.0405
   6 C4        7.1737    -9.9770    -3.8586  C.ar    1  <O>11      -0.0597
   7 C5        7.5702    -9.1922    -2.7731  C.ar    1  <O>11      -0.0581
   8 C6        6.6079    -8.7329    -1.8669  C.ar    1  <O>11      -0.0398
   9 C7        7.0324    -7.9017    -0.7228  C.3     1  <O>11       0.0168
  10 C8        7.9936    -8.6663     0.1150  C.ar    1  <O>11       0.0693
  11 N2        8.3498    -9.9616    -0.2445  N.ar    1  <O>11      -0.1753
  12 N3        9.2281   -10.6661     0.5135  N.ar    1  <O>11      -0.2427
  13 C9        9.7492   -10.1070     1.6253  C.ar    1  <O>11       0.2682
  14 O2       10.6667   -10.8832     2.3580  O.2     1  <O>11      -0.2661
  15 C10       9.4191    -8.8245     2.0611  C.ar    1  <O>11       0.0232
  16 C11       8.5350    -8.0841     1.2580  C.ar    1  <O>11      -0.0158
  17 C12       8.0960    -6.6903     1.6183  C.3     1  <O>11      -0.0255
  18 C13       9.0019    -6.0273     2.6533  C.3     1  <O>11      -0.0487
  19 C14       9.2713    -6.9827     3.8070  C.3     1  <O>11      -0.0486
  20 C15      10.0100    -8.2263     3.3120  C.3     1  <O>11      -0.0222
  21 C16       5.2604    -9.0532    -2.0355  C.ar    1  <O>11      -0.0369
  22 C17       1.4620   -10.1610    -4.6040  C.ar    1  <O>11       0.0424
  23 C18       1.1306   -11.3698    -5.2192  C.ar    1  <O>11      -0.0142
  24 C19      -0.2153   -11.7066    -5.4026  C.ar    1  <O>11       0.1268
  25 F1       -0.5430   -12.8918    -6.0096  F       1  <O>11      -0.2054
  26 C20      -1.2229   -10.8409    -4.9699  C.ar    1  <O>11       0.0088
  27 C21      -0.8747    -9.6351    -4.3496  C.ar    1  <O>11       0.1268
  28 F2       -1.8676    -8.7896    -3.9265  F       1  <O>11      -0.2054
  29 C22       0.4636    -9.2913    -4.1600  C.ar    1  <O>11      -0.0142
  30 H1        3.0270   -10.7100    -2.5640  H       1  <O>11       0.1551
  31 H2        6.1614    -7.6349    -0.1247  H       1  <O>11       0.0377
  32 H3        7.5115    -6.9953    -1.0905  H       1  <O>11       0.0377
  33 H4        9.4872   -11.6036     0.2403  H       1  <O>11       0.1921
  34 H5        8.0983    -6.0811     0.7146  H       1  <O>11       0.0314
  35 H6        7.0847    -6.7385     2.0218  H       1  <O>11       0.0314
  36 H7        9.9467    -5.7548     2.1841  H       1  <O>11       0.0268
  37 H8        8.5136    -5.1301     3.0357  H       1  <O>11       0.0268
  38 H9        9.8823    -6.4777     4.5545  H       1  <O>11       0.0269
  39 H10       8.3234    -7.2823     4.2522  H       1  <O>11       0.0269
  40 H11      11.0451    -7.9543     3.1082  H       1  <O>11       0.0315
  41 H12       9.9805    -8.9799     4.0994  H       1  <O>11       0.0315
  42 H13       5.5387   -10.8841    -4.8402  H       1  <O>11       0.0636
  43 H14       7.8781   -10.3158    -4.5325  H       1  <O>11       0.0618
  44 H15       8.5653    -8.9530    -2.6404  H       1  <O>11       0.0620
  45 H16       4.5587    -8.7051    -1.3635  H       1  <O>11       0.0639
  46 H17       1.8739   -12.0113    -5.5368  H       1  <O>11       0.0654
  47 H18      -2.2155   -11.0882    -5.1063  H       1  <O>11       0.0675
  48 H19       0.7134    -8.4037    -3.6966  H       1  <O>11       0.0654
@<TRIPOS>BOND
     1     1     2    2
     2     2     3   am
     3     3     4    1
     4     4     5   ar
     5     5     6   ar
     6     6     7   ar
     7     7     8   ar
     8     8     9    1
     9     9    10    1
    10    10    11   ar
    11    11    12   ar
    12    12    13   ar
    13    13    14    2
    14    13    15   ar
    15    15    16   ar
    16    10    16   ar
    17    16    17    1
    18    17    18    1
    19    18    19    1
    20    19    20    1
    21    15    20    1
    22     8    21   ar
    23     4    21   ar
    24     2    22    1
    25    22    23   ar
    26    23    24   ar
    27    24    25    1
    28    24    26   ar
    29    26    27   ar
    30    27    28    1
    31    27    29   ar
    32    22    29   ar
    33     3    30    1
    34     9    31    1
    35     9    32    1
    36    12    33    1
    37    17    34    1
    38    17    35    1
    39    18    36    1
    40    18    37    1
    41    19    38    1
    42    19    39    1
    43    20    40    1
    44    20    41    1
    45     5    42    1
    46     6    43    1
    47     7    44    1
    48    21    45    1
    49    23    46    1
    50    26    47    1
    51    29    48    1
@<TRIPOS>MOLECULE
mol78_1_13
 48 51 0 0 0
SMALL
USER_CHARGES
****
VDW energy = -118.37
@<TRIPOS>ATOM
   1 O1        3.4420    -9.1855    -5.2979  O.2     1  <O>11      -0.2698
   2 C1        2.8552    -9.8129    -4.4288  C.2     1  <O>11       0.2484
   3 N1        3.5160   -10.1860    -3.2900  N.am    1  <O>11      -0.2815
   4 C2        2.8461   -10.9025    -2.2972  C.ar    1  <O>11       0.0339
   5 C3        2.2821   -12.1571    -2.5859  C.ar    1  <O>11      -0.0405
   6 C4        1.6013   -12.8692    -1.5928  C.ar    1  <O>11      -0.0597
   7 C5        1.4788   -12.3394    -0.3060  C.ar    1  <O>11      -0.0581
   8 C6        2.0466   -11.0936    -0.0168  C.ar    1  <O>11      -0.0398
   9 C7        1.9164   -10.5398     1.3457  C.3     1  <O>11       0.0168
  10 C8        0.6770    -9.7230     1.4316  C.ar    1  <O>11       0.0693
  11 N2       -0.1433    -9.5873     0.3167  N.ar    1  <O>11      -0.1753
  12 N3       -1.2775    -8.8451     0.3868  N.ar    1  <O>11      -0.2427
  13 C9       -1.6029    -8.2302     1.5429  C.ar    1  <O>11       0.2682
  14 O2       -2.8000    -7.4900     1.5549  O.2     1  <O>11      -0.2661
  15 C10      -0.8167    -8.3000     2.6920  C.ar    1  <O>11       0.0232
  16 C11       0.3403    -9.0952     2.6278  C.ar    1  <O>11      -0.0158
  17 C12       1.2756    -9.2508     3.7967  C.3     1  <O>11      -0.0255
  18 C13       0.6449    -8.8403     5.1254  C.3     1  <O>11      -0.0487
  19 C14      -0.0589    -7.4984     4.9823  C.3     1  <O>11      -0.0486
  20 C15      -1.1993    -7.5965     3.9688  C.3     1  <O>11      -0.0222
  21 C16       2.7294   -10.3765    -0.9998  C.ar    1  <O>11      -0.0369
  22 C17       1.4620   -10.1610    -4.6040  C.ar    1  <O>11       0.0424
  23 C18       1.1306   -11.3698    -5.2192  C.ar    1  <O>11      -0.0142
  24 C19      -0.2153   -11.7066    -5.4026  C.ar    1  <O>11       0.1268
  25 F1       -0.5430   -12.8918    -6.0096  F       1  <O>11      -0.2054
  26 C20      -1.2229   -10.8409    -4.9699  C.ar    1  <O>11       0.0088
  27 C21      -0.8747    -9.6351    -4.3496  C.ar    1  <O>11       0.1268
  28 F2       -1.8676    -8.7896    -3.9265  F       1  <O>11      -0.2054
  29 C22       0.4636    -9.2913    -4.1600  C.ar    1  <O>11      -0.0142
  30 H1        4.4984    -9.9407    -3.1658  H       1  <O>11       0.1551
  31 H2        2.7802    -9.9136     1.5674  H       1  <O>11       0.0377
  32 H3        1.8649   -11.3553     2.0658  H       1  <O>11       0.0377
  33 H4       -1.8715    -8.7587    -0.4257  H       1  <O>11       0.1921
  34 H5        1.5761   -10.2962     3.8640  H       1  <O>11       0.0314
  35 H6        2.1544    -8.6301     3.6227  H       1  <O>11       0.0314
  36 H7       -0.0792    -9.5954     5.4296  H       1  <O>11       0.0268
  37 H8        1.4251    -8.7583     5.8830  H       1  <O>11       0.0268
  38 H9       -0.4644    -7.2022     5.9492  H       1  <O>11       0.0269
  39 H10       0.6586    -6.7523     4.6434  H       1  <O>11       0.0269
  40 H11      -2.0235    -8.1407     4.4285  H       1  <O>11       0.0315
  41 H12      -1.5252    -6.5864     3.7192  H       1  <O>11       0.0315
  42 H13       2.3705   -12.5545    -3.5342  H       1  <O>11       0.0636
  43 H14       1.1880   -13.7892    -1.8115  H       1  <O>11       0.0618
  44 H15       0.9734   -12.8629     0.4258  H       1  <O>11       0.0620
  45 H16       3.1483    -9.4607    -0.7740  H       1  <O>11       0.0639
  46 H17       1.8739   -12.0113    -5.5368  H       1  <O>11       0.0654
  47 H18      -2.2155   -11.0882    -5.1063  H       1  <O>11       0.0675
  48 H19       0.7134    -8.4037    -3.6966  H       1  <O>11       0.0654
@<TRIPOS>BOND
     1     1     2    2
     2     2     3   am
     3     3     4    1
     4     4     5   ar
     5     5     6   ar
     6     6     7   ar
     7     7     8   ar
     8     8     9    1
     9     9    10    1
    10    10    11   ar
    11    11    12   ar
    12    12    13   ar
    13    13    14    2
    14    13    15   ar
    15    15    16   ar
    16    10    16   ar
    17    16    17    1
    18    17    18    1
    19    18    19    1
    20    19    20    1
    21    15    20    1
    22     8    21   ar
    23     4    21   ar
    24     2    22    1
    25    22    23   ar
    26    23    24   ar
    27    24    25    1
    28    24    26   ar
    29    26    27   ar
    30    27    28    1
    31    27    29   ar
    32    22    29   ar
    33     3    30    1
    34     9    31    1
    35     9    32    1
    36    12    33    1
    37    17    34    1
    38    17    35    1
    39    18    36    1
    40    18    37    1
    41    19    38    1
    42    19    39    1
    43    20    40    1
    44    20    41    1
    45     5    42    1
    46     6    43    1
    47     7    44    1
    48    21    45    1
    49    23    46    1
    50    26    47    1
    51    29    48    1
@<TRIPOS>MOLECULE
mol78_1_14
 48 51 0 0 0
SMALL
USER_CHARGES
****
VDW energy = -117.90
@<TRIPOS>ATOM
   1 O1        3.4420    -9.1855    -5.2979  O.2     1  <O>11      -0.2698
   2 C1        2.8552    -9.8129    -4.4288  C.2     1  <O>11       0.2484
   3 N1        3.5160   -10.1860    -3.2900  N.am    1  <O>11      -0.2815
   4 C2        2.8461   -10.9025    -2.2972  C.ar    1  <O>11       0.0339
   5 C3        1.7160   -10.3540    -1.6667  C.ar    1  <O>11      -0.0405
   6 C4        1.0520   -11.0686    -0.6640  C.ar    1  <O>11      -0.0597
   7 C5        1.5061   -12.3337    -0.2835  C.ar    1  <O>11      -0.0581
   8 C6        2.6268   -12.8826    -0.9164  C.ar    1  <O>11      -0.0398
   9 C7        3.1008   -14.2212    -0.5119  C.3     1  <O>11       0.0168
  10 C8        4.0914   -14.0841     0.5883  C.ar    1  <O>11       0.0693
  11 N2        4.4271   -12.8221     1.0664  N.ar    1  <O>11      -0.1753
  12 N3        5.3290   -12.6878     2.0717  N.ar    1  <O>11      -0.2427
  13 C9        5.9072   -13.7858     2.6014  C.ar    1  <O>11       0.2682
  14 O2        6.8208   -13.5800     3.6521  O.2     1  <O>11      -0.2661
  15 C10       5.6393   -15.0794     2.1560  C.ar    1  <O>11       0.0232
  16 C11       4.6813   -15.2195     1.1374  C.ar    1  <O>11      -0.0158
  17 C12       4.3044   -16.5598     0.5659  C.3     1  <O>11      -0.0255
  18 C13       4.7167   -17.7276     1.4593  C.3     1  <O>11      -0.0487
  19 C14       6.1577   -17.5568     1.9184  C.3     1  <O>11      -0.0486
  20 C15       6.3055   -16.2890     2.7599  C.3     1  <O>11      -0.0222
  21 C16       3.2948   -12.1789    -1.9190  C.ar    1  <O>11      -0.0369
  22 C17       1.4620   -10.1610    -4.6040  C.ar    1  <O>11       0.0424
  23 C18       1.1306   -11.3698    -5.2192  C.ar    1  <O>11      -0.0142
  24 C19      -0.2153   -11.7066    -5.4026  C.ar    1  <O>11       0.1268
  25 F1       -0.5430   -12.8918    -6.0096  F       1  <O>11      -0.2054
  26 C20      -1.2229   -10.8409    -4.9699  C.ar    1  <O>11       0.0088
  27 C21      -0.8747    -9.6351    -4.3496  C.ar    1  <O>11       0.1268
  28 F2       -1.8676    -8.7896    -3.9265  F       1  <O>11      -0.2054
  29 C22       0.4636    -9.2913    -4.1600  C.ar    1  <O>11      -0.0142
  30 H1        4.4984    -9.9407    -3.1658  H       1  <O>11       0.1551
  31 H2        3.5696   -14.7133    -1.3637  H       1  <O>11       0.0377
  32 H3        2.2562   -14.8171    -0.1684  H       1  <O>11       0.0377
  33 H4        5.5609   -11.7676     2.4181  H       1  <O>11       0.1921
  34 H5        3.2231   -16.5893     0.4338  H       1  <O>11       0.0314
  35 H6        4.7924   -16.6737    -0.4020  H       1  <O>11       0.0314
  36 H7        4.0636   -17.7633     2.3306  H       1  <O>11       0.0268
  37 H8        4.6258   -18.6584     0.8982  H       1  <O>11       0.0268
  38 H9        6.4468   -18.4195     2.5177  H       1  <O>11       0.0269
  39 H10       6.8052   -17.4851     1.0455  H       1  <O>11       0.0269
  40 H11       5.8652   -16.4719     3.7395  H       1  <O>11       0.0315
  41 H12       7.3684   -16.0740     2.8737  H       1  <O>11       0.0315
  42 H13       1.3747    -9.4206    -1.9444  H       1  <O>11       0.0636
  43 H14       0.2238   -10.6597    -0.2037  H       1  <O>11       0.0618
  44 H15       1.0186   -12.8594     0.4588  H       1  <O>11       0.0620
  45 H16       4.1176   -12.5955    -2.3822  H       1  <O>11       0.0639
  46 H17       1.8739   -12.0113    -5.5368  H       1  <O>11       0.0654
  47 H18      -2.2155   -11.0882    -5.1063  H       1  <O>11       0.0675
  48 H19       0.7134    -8.4037    -3.6966  H       1  <O>11       0.0654
@<TRIPOS>BOND
     1     1     2    2
     2     2     3   am
     3     3     4    1
     4     4     5   ar
     5     5     6   ar
     6     6     7   ar
     7     7     8   ar
     8     8     9    1
     9     9    10    1
    10    10    11   ar
    11    11    12   ar
    12    12    13   ar
    13    13    14    2
    14    13    15   ar
    15    15    16   ar
    16    10    16   ar
    17    16    17    1
    18    17    18    1
    19    18    19    1
    20    19    20    1
    21    15    20    1
    22     8    21   ar
    23     4    21   ar
    24     2    22    1
    25    22    23   ar
    26    23    24   ar
    27    24    25    1
    28    24    26   ar
    29    26    27   ar
    30    27    28    1
    31    27    29   ar
    32    22    29   ar
    33     3    30    1
    34     9    31    1
    35     9    32    1
    36    12    33    1
    37    17    34    1
    38    17    35    1
    39    18    36    1
    40    18    37    1
    41    19    38    1
    42    19    39    1
    43    20    40    1
    44    20    41    1
    45     5    42    1
    46     6    43    1
    47     7    44    1
    48    21    45    1
    49    23    46    1
    50    26    47    1
    51    29    48    1
@<TRIPOS>MOLECULE
mol78_1_15
 48 51 0 0 0
SMALL
USER_CHARGES
****
VDW energy = -116.60
@<TRIPOS>ATOM
   1 O1        3.4420    -9.1855    -5.2979  O.2     1  <O>11      -0.2698
   2 C1        2.8552    -9.8129    -4.4288  C.2     1  <O>11       0.2484
   3 N1        3.5160   -10.1860    -3.2900  N.am    1  <O>11      -0.2815
   4 C2        2.8461   -10.9025    -2.2972  C.ar    1  <O>11       0.0339
   5 C3        2.8323   -12.3077    -2.3232  C.ar    1  <O>11      -0.0405
   6 C4        2.1512   -13.0243    -1.3337  C.ar    1  <O>11      -0.0597
   7 C5        1.4813   -12.3486    -0.3110  C.ar    1  <O>11      -0.0581
   8 C6        1.5011   -10.9497    -0.2811  C.ar    1  <O>11      -0.0398
   9 C7        0.7935   -10.2408     0.8037  C.3     1  <O>11       0.0168
  10 C8       -0.6076    -9.9699     0.3865  C.ar    1  <O>11       0.0693
  11 N2       -1.6048   -10.9006     0.6582  N.ar    1  <O>11      -0.1753
  12 N3       -2.8868   -10.6606     0.2826  N.ar    1  <O>11      -0.2427
  13 C9       -3.1899    -9.5165    -0.3652  C.ar    1  <O>11       0.2682
  14 O2       -4.5398    -9.3200    -0.7121  O.2     1  <O>11      -0.2661
  15 C10      -2.2397    -8.5508    -0.6938  C.ar    1  <O>11       0.0232
  16 C11      -0.9186    -8.7853    -0.2757  C.ar    1  <O>11      -0.0158
  17 C12       0.2013    -7.8239    -0.5702  C.3     1  <O>11      -0.0255
  18 C13      -0.2926    -6.4323    -0.9589  C.3     1  <O>11      -0.0487
  19 C14      -1.3995    -6.5372    -1.9984  C.3     1  <O>11      -0.0486
  20 C15      -2.6039    -7.2844    -1.4254  C.3     1  <O>11      -0.0222
  21 C16       2.1793   -10.2258    -1.2622  C.ar    1  <O>11      -0.0369
  22 C17       1.4620   -10.1610    -4.6040  C.ar    1  <O>11       0.0424
  23 C18       1.1306   -11.3698    -5.2192  C.ar    1  <O>11      -0.0142
  24 C19      -0.2153   -11.7066    -5.4026  C.ar    1  <O>11       0.1268
  25 F1       -0.5430   -12.8918    -6.0096  F       1  <O>11      -0.2054
  26 C20      -1.2229   -10.8409    -4.9699  C.ar    1  <O>11       0.0088
  27 C21      -0.8747    -9.6351    -4.3496  C.ar    1  <O>11       0.1268
  28 F2       -1.8676    -8.7896    -3.9265  F       1  <O>11      -0.2054
  29 C22       0.4636    -9.2913    -4.1600  C.ar    1  <O>11      -0.0142
  30 H1        4.4984    -9.9407    -3.1658  H       1  <O>11       0.1551
  31 H2        1.2992    -9.2983     1.0120  H       1  <O>11       0.0377
  32 H3        0.7927   -10.8582     1.7010  H       1  <O>11       0.0377
  33 H4       -3.6059   -11.3387     0.4912  H       1  <O>11       0.1921
  34 H5        0.8249    -7.7346     0.3190  H       1  <O>11       0.0314
  35 H6        0.7949    -8.2241    -1.3920  H       1  <O>11       0.0314
  36 H7       -0.6771    -5.9258    -0.0742  H       1  <O>11       0.0268
  37 H8        0.5376    -5.8596    -1.3740  H       1  <O>11       0.0268
  38 H9       -1.7081    -5.5352    -2.2946  H       1  <O>11       0.0269
  39 H10      -1.0241    -7.0755    -2.8677  H       1  <O>11       0.0269
  40 H11      -3.1224    -6.6229    -0.7322  H       1  <O>11       0.0315
  41 H12      -3.2708    -7.5435    -2.2482  H       1  <O>11       0.0315
  42 H13       3.3267   -12.8127    -3.0753  H       1  <O>11       0.0636
  43 H14       2.1435   -14.0560    -1.3594  H       1  <O>11       0.0618
  44 H15       0.9756   -12.8770     0.4170  H       1  <O>11       0.0620
  45 H16       2.1912    -9.1944    -1.2277  H       1  <O>11       0.0639
  46 H17       1.8739   -12.0113    -5.5368  H       1  <O>11       0.0654
  47 H18      -2.2155   -11.0882    -5.1063  H       1  <O>11       0.0675
  48 H19       0.7134    -8.4037    -3.6966  H       1  <O>11       0.0654
@<TRIPOS>BOND
     1     1     2    2
     2     2     3   am
     3     3     4    1
     4     4     5   ar
     5     5     6   ar
     6     6     7   ar
     7     7     8   ar
     8     8     9    1
     9     9    10    1
    10    10    11   ar
    11    11    12   ar
    12    12    13   ar
    13    13    14    2
    14    13    15   ar
    15    15    16   ar
    16    10    16   ar
    17    16    17    1
    18    17    18    1
    19    18    19    1
    20    19    20    1
    21    15    20    1
    22     8    21   ar
    23     4    21   ar
    24     2    22    1
    25    22    23   ar
    26    23    24   ar
    27    24    25    1
    28    24    26   ar
    29    26    27   ar
    30    27    28    1
    31    27    29   ar
    32    22    29   ar
    33     3    30    1
    34     9    31    1
    35     9    32    1
    36    12    33    1
    37    17    34    1
    38    17    35    1
    39    18    36    1
    40    18    37    1
    41    19    38    1
    42    19    39    1
    43    20    40    1
    44    20    41    1
    45     5    42    1
    46     6    43    1
    47     7    44    1
    48    21    45    1
    49    23    46    1
    50    26    47    1
    51    29    48    1
@<TRIPOS>MOLECULE
mol78_1_16
 48 51 0 0 0
SMALL
USER_CHARGES
****
VDW energy = -115.37
@<TRIPOS>ATOM
   1 O1        3.4420    -9.1855    -5.2979  O.2     1  <O>11      -0.2698
   2 C1        2.8552    -9.8129    -4.4288  C.2     1  <O>11       0.2484
   3 N1        3.5160   -10.1860    -3.2900  N.am    1  <O>11      -0.2815
   4 C2        4.8600    -9.8500    -3.1210  C.ar    1  <O>11       0.0339
   5 C3        5.8255   -10.3053    -4.0353  C.ar    1  <O>11      -0.0405
   6 C4        7.1737    -9.9770    -3.8586  C.ar    1  <O>11      -0.0597
   7 C5        7.5702    -9.1922    -2.7731  C.ar    1  <O>11      -0.0581
   8 C6        6.6079    -8.7329    -1.8669  C.ar    1  <O>11      -0.0398
   9 C7        7.0324    -7.9017    -0.7228  C.3     1  <O>11       0.0168
  10 C8        7.3519    -8.7785     0.4346  C.ar    1  <O>11       0.0693
  11 N2        7.2248   -10.1583     0.3157  N.ar    1  <O>11      -0.1753
  12 N3        7.5161   -10.9663     1.3666  N.ar    1  <O>11      -0.2427
  13 C9        7.9222   -10.4241     2.5335  C.ar    1  <O>11       0.2682
  14 O2        8.2250   -11.3167     3.5788  O.2     1  <O>11      -0.2661
  15 C10       8.0477    -9.0502     2.7338  C.ar    1  <O>11       0.0232
  16 C11       7.7772    -8.2165     1.6353  C.ar    1  <O>11      -0.0158
  17 C12       7.8717    -6.7168     1.7207  C.3     1  <O>11      -0.0255
  18 C13       8.6771    -6.2366     2.9259  C.3     1  <O>11      -0.0487
  19 C14       8.2321    -6.9699     4.1832  C.3     1  <O>11      -0.0486
  20 C15       8.4958    -8.4699     4.0507  C.3     1  <O>11      -0.0222
  21 C16       5.2604    -9.0532    -2.0355  C.ar    1  <O>11      -0.0369
  22 C17       1.4620   -10.1610    -4.6040  C.ar    1  <O>11       0.0424
  23 C18       0.8010    -9.7730    -5.7710  C.ar    1  <O>11      -0.0142
  24 C19      -0.5500   -10.0960    -5.9410  C.ar    1  <O>11       0.1268
  25 F1       -1.2020    -9.7130    -7.0850  F       1  <O>11      -0.2054
  26 C20      -1.2340   -10.8060    -4.9510  C.ar    1  <O>11       0.0088
  27 C21      -0.5560   -11.1930    -3.7890  C.ar    1  <O>11       0.1268
  28 F2       -1.2320   -11.8900    -2.8210  F       1  <O>11      -0.2054
  29 C22       0.7910   -10.8780    -3.6110  C.ar    1  <O>11      -0.0142
  30 H1        3.0270   -10.7100    -2.5640  H       1  <O>11       0.1551
  31 H2        6.2270    -7.2198    -0.4507  H       1  <O>11       0.0377
  32 H3        7.9160    -7.3278    -0.9989  H       1  <O>11       0.0377
  33 H4        7.4286   -11.9679     1.2687  H       1  <O>11       0.1921
  34 H5        8.3504    -6.3470     0.8143  H       1  <O>11       0.0314
  35 H6        6.8634    -6.3092     1.7919  H       1  <O>11       0.0314
  36 H7        9.7353    -6.4295     2.7527  H       1  <O>11       0.0268
  37 H8        8.5196    -5.1656     3.0593  H       1  <O>11       0.0268
  38 H9        8.7865    -6.5835     5.0378  H       1  <O>11       0.0269
  39 H10       7.1662    -6.8054     4.3350  H       1  <O>11       0.0269
  40 H11       9.5663    -8.6426     4.1570  H       1  <O>11       0.0315
  41 H12       7.9635    -8.9846     4.8510  H       1  <O>11       0.0315
  42 H13       5.5387   -10.8841    -4.8402  H       1  <O>11       0.0636
  43 H14       7.8781   -10.3158    -4.5325  H       1  <O>11       0.0618
  44 H15       8.5653    -8.9530    -2.6404  H       1  <O>11       0.0620
  45 H16       4.5587    -8.7051    -1.3635  H       1  <O>11       0.0639
  46 H17       1.3059    -9.2509    -6.5042  H       1  <O>11       0.0654
  47 H18      -2.2307   -11.0431    -5.0753  H       1  <O>11       0.0675
  48 H19       1.2865   -11.1716    -2.7547  H       1  <O>11       0.0654
@<TRIPOS>BOND
     1     1     2    2
     2     2     3   am
     3     3     4    1
     4     4     5   ar
     5     5     6   ar
     6     6     7   ar
     7     7     8   ar
     8     8     9    1
     9     9    10    1
    10    10    11   ar
    11    11    12   ar
    12    12    13   ar
    13    13    14    2
    14    13    15   ar
    15    15    16   ar
    16    10    16   ar
    17    16    17    1
    18    17    18    1
    19    18    19    1
    20    19    20    1
    21    15    20    1
    22     8    21   ar
    23     4    21   ar
    24     2    22    1
    25    22    23   ar
    26    23    24   ar
    27    24    25    1
    28    24    26   ar
    29    26    27   ar
    30    27    28    1
    31    27    29   ar
    32    22    29   ar
    33     3    30    1
    34     9    31    1
    35     9    32    1
    36    12    33    1
    37    17    34    1
    38    17    35    1
    39    18    36    1
    40    18    37    1
    41    19    38    1
    42    19    39    1
    43    20    40    1
    44    20    41    1
    45     5    42    1
    46     6    43    1
    47     7    44    1
    48    21    45    1
    49    23    46    1
    50    26    47    1
    51    29    48    1
@<TRIPOS>MOLECULE
mol78_1_17
 48 51 0 0 0
SMALL
USER_CHARGES
****
VDW energy = -114.86
@<TRIPOS>ATOM
   1 O1        3.4420    -9.1855    -5.2979  O.2     1  <O>11      -0.2698
   2 C1        2.8552    -9.8129    -4.4288  C.2     1  <O>11       0.2484
   3 N1        3.5160   -10.1860    -3.2900  N.am    1  <O>11      -0.2815
   4 C2        4.8600    -9.8500    -3.1210  C.ar    1  <O>11       0.0339
   5 C3        5.8255   -10.3053    -4.0353  C.ar    1  <O>11      -0.0405
   6 C4        7.1737    -9.9770    -3.8586  C.ar    1  <O>11      -0.0597
   7 C5        7.5702    -9.1922    -2.7731  C.ar    1  <O>11      -0.0581
   8 C6        6.6079    -8.7329    -1.8669  C.ar    1  <O>11      -0.0398
   9 C7        7.0324    -7.9017    -0.7228  C.3     1  <O>11       0.0168
  10 C8        7.3519    -8.7785     0.4346  C.ar    1  <O>11       0.0693
  11 N2        8.6452    -9.2612     0.6032  N.ar    1  <O>11      -0.1753
  12 N3        8.9461   -10.0607     1.6580  N.ar    1  <O>11      -0.2427
  13 C9        7.9811   -10.3938     2.5403  C.ar    1  <O>11       0.2682
  14 O2        8.3615   -11.2114     3.6209  O.2     1  <O>11      -0.2661
  15 C10       6.6587    -9.9690     2.4212  C.ar    1  <O>11       0.0232
  16 C11       6.3556    -9.1149     1.3472  C.ar    1  <O>11      -0.0158
  17 C12       4.9664    -8.5892     1.1044  C.3     1  <O>11      -0.0255
  18 C13       4.0598    -8.7093     2.3272  C.3     1  <O>11      -0.0487
  19 C14       4.1718   -10.1018     2.9315  C.3     1  <O>11      -0.0486
  20 C15       5.5978   -10.3624     3.4170  C.3     1  <O>11      -0.0222
  21 C16       5.2604    -9.0532    -2.0355  C.ar    1  <O>11      -0.0369
  22 C17       1.4620   -10.1610    -4.6040  C.ar    1  <O>11       0.0424
  23 C18       1.1306   -11.3698    -5.2192  C.ar    1  <O>11      -0.0142
  24 C19      -0.2153   -11.7066    -5.4026  C.ar    1  <O>11       0.1268
  25 F1       -0.5430   -12.8918    -6.0096  F       1  <O>11      -0.2054
  26 C20      -1.2229   -10.8409    -4.9699  C.ar    1  <O>11       0.0088
  27 C21      -0.8747    -9.6351    -4.3496  C.ar    1  <O>11       0.1268
  28 F2       -1.8676    -8.7896    -3.9265  F       1  <O>11      -0.2054
  29 C22       0.4636    -9.2913    -4.1600  C.ar    1  <O>11      -0.0142
  30 H1        3.0270   -10.7100    -2.5640  H       1  <O>11       0.1551
  31 H2        6.2270    -7.2198    -0.4507  H       1  <O>11       0.0377
  32 H3        7.9160    -7.3278    -0.9989  H       1  <O>11       0.0377
  33 H4        9.8900   -10.4002     1.7769  H       1  <O>11       0.1921
  34 H5        5.0367    -7.5376     0.8270  H       1  <O>11       0.0314
  35 H6        4.5206    -9.1525     0.2847  H       1  <O>11       0.0314
  36 H7        4.3567    -7.9700     3.0705  H       1  <O>11       0.0268
  37 H8        3.0268    -8.5293     2.0274  H       1  <O>11       0.0268
  38 H9        3.4867   -10.1819     3.7748  H       1  <O>11       0.0269
  39 H10       3.9094   -10.8416     2.1764  H       1  <O>11       0.0269
  40 H11       5.7589    -9.7965     4.3339  H       1  <O>11       0.0315
  41 H12       5.7009   -11.4278     3.6247  H       1  <O>11       0.0315
  42 H13       5.5387   -10.8841    -4.8402  H       1  <O>11       0.0636
  43 H14       7.8781   -10.3158    -4.5325  H       1  <O>11       0.0618
  44 H15       8.5653    -8.9530    -2.6404  H       1  <O>11       0.0620
  45 H16       4.5587    -8.7051    -1.3635  H       1  <O>11       0.0639
  46 H17       1.8739   -12.0113    -5.5368  H       1  <O>11       0.0654
  47 H18      -2.2155   -11.0882    -5.1063  H       1  <O>11       0.0675
  48 H19       0.7134    -8.4037    -3.6966  H       1  <O>11       0.0654
@<TRIPOS>BOND
     1     1     2    2
     2     2     3   am
     3     3     4    1
     4     4     5   ar
     5     5     6   ar
     6     6     7   ar
     7     7     8   ar
     8     8     9    1
     9     9    10    1
    10    10    11   ar
    11    11    12   ar
    12    12    13   ar
    13    13    14    2
    14    13    15   ar
    15    15    16   ar
    16    10    16   ar
    17    16    17    1
    18    17    18    1
    19    18    19    1
    20    19    20    1
    21    15    20    1
    22     8    21   ar
    23     4    21   ar
    24     2    22    1
    25    22    23   ar
    26    23    24   ar
    27    24    25    1
    28    24    26   ar
    29    26    27   ar
    30    27    28    1
    31    27    29   ar
    32    22    29   ar
    33     3    30    1
    34     9    31    1
    35     9    32    1
    36    12    33    1
    37    17    34    1
    38    17    35    1
    39    18    36    1
    40    18    37    1
    41    19    38    1
    42    19    39    1
    43    20    40    1
    44    20    41    1
    45     5    42    1
    46     6    43    1
    47     7    44    1
    48    21    45    1
    49    23    46    1
    50    26    47    1
    51    29    48    1
@<TRIPOS>MOLECULE
mol78_1_18
 48 51 0 0 0
SMALL
USER_CHARGES
****
VDW energy = -114.15
@<TRIPOS>ATOM
   1 O1        3.4420    -9.1855    -5.2979  O.2     1  <O>11      -0.2698
   2 C1        2.8552    -9.8129    -4.4288  C.2     1  <O>11       0.2484
   3 N1        3.5160   -10.1860    -3.2900  N.am    1  <O>11      -0.2815
   4 C2        2.8461   -10.9025    -2.2972  C.ar    1  <O>11       0.0339
   5 C3        1.7160   -10.3540    -1.6667  C.ar    1  <O>11      -0.0405
   6 C4        1.0520   -11.0686    -0.6640  C.ar    1  <O>11      -0.0597
   7 C5        1.5061   -12.3337    -0.2835  C.ar    1  <O>11      -0.0581
   8 C6        2.6268   -12.8826    -0.9164  C.ar    1  <O>11      -0.0398
   9 C7        3.1008   -14.2212    -0.5119  C.3     1  <O>11       0.0168
  10 C8        3.4624   -14.2035     0.9301  C.ar    1  <O>11       0.0693
  11 N2        3.3247   -13.0314     1.6657  N.ar    1  <O>11      -0.1753
  12 N3        3.6507   -13.0067     2.9830  N.ar    1  <O>11      -0.2427
  13 C9        4.1188   -14.1245     3.5762  C.ar    1  <O>11       0.2682
  14 O2        4.4224   -14.0377     4.9478  O.2     1  <O>11      -0.2661
  15 C10       4.3073   -15.3272     2.8968  C.ar    1  <O>11       0.0232
  16 C11       3.9387   -15.3604     1.5411  C.ar    1  <O>11      -0.0158
  17 C12       4.0954   -16.5949     0.6946  C.3     1  <O>11      -0.0255
  18 C13       4.2691   -17.8676     1.5204  C.3     1  <O>11      -0.0487
  19 C14       5.3042   -17.6486     2.6146  C.3     1  <O>11      -0.0486
  20 C15       4.8397   -16.5597     3.5819  C.3     1  <O>11      -0.0222
  21 C16       3.2948   -12.1789    -1.9190  C.ar    1  <O>11      -0.0369
  22 C17       1.4620   -10.1610    -4.6040  C.ar    1  <O>11       0.0424
  23 C18       1.1306   -11.3698    -5.2192  C.ar    1  <O>11      -0.0142
  24 C19      -0.2153   -11.7066    -5.4026  C.ar    1  <O>11       0.1268
  25 F1       -0.5430   -12.8918    -6.0096  F       1  <O>11      -0.2054
  26 C20      -1.2229   -10.8409    -4.9699  C.ar    1  <O>11       0.0088
  27 C21      -0.8747    -9.6351    -4.3496  C.ar    1  <O>11       0.1268
  28 F2       -1.8676    -8.7896    -3.9265  F       1  <O>11      -0.2054
  29 C22       0.4636    -9.2913    -4.1600  C.ar    1  <O>11      -0.0142
  30 H1        4.4984    -9.9407    -3.1658  H       1  <O>11       0.1551
  31 H2        3.9760   -14.4906    -1.1027  H       1  <O>11       0.0377
  32 H3        2.3109   -14.9522    -0.6796  H       1  <O>11       0.0377
  33 H4        3.5398   -12.1529     3.5114  H       1  <O>11       0.1921
  34 H5        3.2075   -16.7041     0.0722  H       1  <O>11       0.0314
  35 H6        4.9721   -16.4708     0.0591  H       1  <O>11       0.0314
  36 H7        3.3160   -18.1352     1.9755  H       1  <O>11       0.0268
  37 H8        4.6007   -18.6764     0.8682  H       1  <O>11       0.0268
  38 H9        5.4458   -18.5786     3.1643  H       1  <O>11       0.0269
  39 H10       6.2467   -17.3461     2.1601  H       1  <O>11       0.0269
  40 H11       4.0519   -16.9712     4.2120  H       1  <O>11       0.0315
  41 H12       5.6867   -16.2677     4.2032  H       1  <O>11       0.0315
  42 H13       1.3747    -9.4206    -1.9444  H       1  <O>11       0.0636
  43 H14       0.2238   -10.6597    -0.2037  H       1  <O>11       0.0618
  44 H15       1.0186   -12.8594     0.4588  H       1  <O>11       0.0620
  45 H16       4.1176   -12.5955    -2.3822  H       1  <O>11       0.0639
  46 H17       1.8739   -12.0113    -5.5368  H       1  <O>11       0.0654
  47 H18      -2.2155   -11.0882    -5.1063  H       1  <O>11       0.0675
  48 H19       0.7134    -8.4037    -3.6966  H       1  <O>11       0.0654
@<TRIPOS>BOND
     1     1     2    2
     2     2     3   am
     3     3     4    1
     4     4     5   ar
     5     5     6   ar
     6     6     7   ar
     7     7     8   ar
     8     8     9    1
     9     9    10    1
    10    10    11   ar
    11    11    12   ar
    12    12    13   ar
    13    13    14    2
    14    13    15   ar
    15    15    16   ar
    16    10    16   ar
    17    16    17    1
    18    17    18    1
    19    18    19    1
    20    19    20    1
    21    15    20    1
    22     8    21   ar
    23     4    21   ar
    24     2    22    1
    25    22    23   ar
    26    23    24   ar
    27    24    25    1
    28    24    26   ar
    29    26    27   ar
    30    27    28    1
    31    27    29   ar
    32    22    29   ar
    33     3    30    1
    34     9    31    1
    35     9    32    1
    36    12    33    1
    37    17    34    1
    38    17    35    1
    39    18    36    1
    40    18    37    1
    41    19    38    1
    42    19    39    1
    43    20    40    1
    44    20    41    1
    45     5    42    1
    46     6    43    1
    47     7    44    1
    48    21    45    1
    49    23    46    1
    50    26    47    1
    51    29    48    1
@<TRIPOS>MOLECULE
mol78_1_19
 48 51 0 0 0
SMALL
USER_CHARGES
****
VDW energy = -113.76
@<TRIPOS>ATOM
   1 O1        3.4420    -9.1855    -5.2979  O.2     1  <O>11      -0.2698
   2 C1        2.8552    -9.8129    -4.4288  C.2     1  <O>11       0.2484
   3 N1        3.5160   -10.1860    -3.2900  N.am    1  <O>11      -0.2815
   4 C2        4.8600    -9.8500    -3.1210  C.ar    1  <O>11       0.0339
   5 C3        5.2163    -8.6383    -2.5043  C.ar    1  <O>11      -0.0405
   6 C4        6.5637    -8.2977    -2.3455  C.ar    1  <O>11      -0.0597
   7 C5        7.5653    -9.1605    -2.7968  C.ar    1  <O>11      -0.0581
   8 C6        7.2106   -10.3702    -3.4042  C.ar    1  <O>11      -0.0398
   9 C7        8.2734   -11.2795    -3.8770  C.3     1  <O>11       0.0168
  10 C8        8.6146   -10.9517    -5.2865  C.ar    1  <O>11       0.0693
  11 N2        9.6100   -10.0201    -5.5608  N.ar    1  <O>11      -0.1753
  12 N3        9.9291    -9.7163    -6.8446  N.ar    1  <O>11      -0.2427
  13 C9        9.2692   -10.3166    -7.8569  C.ar    1  <O>11       0.2682
  14 O2        9.6591    -9.9709    -9.1643  O.2     1  <O>11      -0.2661
  15 C10       8.2438   -11.2399    -7.6580  C.ar    1  <O>11       0.0232
  16 C11       7.9365   -11.5779    -6.3289  C.ar    1  <O>11      -0.0158
  17 C12       6.8492   -12.5577    -5.9786  C.3     1  <O>11      -0.0255
  18 C13       6.4341   -13.4360    -7.1567  C.3     1  <O>11      -0.0487
  19 C14       6.2170   -12.5836    -8.3988  C.3     1  <O>11      -0.0486
  20 C15       7.5169   -11.8901    -8.8070  C.3     1  <O>11      -0.0222
  21 C16       5.8695   -10.7200    -3.5654  C.ar    1  <O>11      -0.0369
  22 C17       1.4620   -10.1610    -4.6040  C.ar    1  <O>11       0.0424
  23 C18       0.5946   -10.0837    -3.5126  C.ar    1  <O>11      -0.0142
  24 C19      -0.7516   -10.4309    -3.6727  C.ar    1  <O>11       0.1268
  25 F1       -1.6044   -10.3589    -2.6013  F       1  <O>11      -0.2054
  26 C20      -1.2274   -10.8492    -4.9180  C.ar    1  <O>11       0.0088
  27 C21      -0.3466   -10.9160    -6.0041  C.ar    1  <O>11       0.1268
  28 F2       -0.8191   -11.3266    -7.2240  F       1  <O>11      -0.2054
  29 C22       0.9963   -10.5699    -5.8555  C.ar    1  <O>11      -0.0142
  30 H1        3.0270   -10.7100    -2.5640  H       1  <O>11       0.1551
  31 H2        7.9229   -12.3096    -3.8181  H       1  <O>11       0.0377
  32 H3        9.1575   -11.1607    -3.2519  H       1  <O>11       0.0377
  33 H4       10.6590    -9.0442    -7.0345  H       1  <O>11       0.1921
  34 H5        7.2075   -13.2015    -5.1757  H       1  <O>11       0.0314
  35 H6        5.9772   -12.0006    -5.6364  H       1  <O>11       0.0314
  36 H7        7.2170   -14.1674    -7.3550  H       1  <O>11       0.0268
  37 H8        5.5067   -13.9539    -6.9093  H       1  <O>11       0.0268
  38 H9        5.8799   -13.2209    -9.2156  H       1  <O>11       0.0269
  39 H10       5.4597   -11.8298    -8.1876  H       1  <O>11       0.0269
  40 H11       8.1766   -12.6312    -9.2570  H       1  <O>11       0.0315
  41 H12       7.2798   -11.1206    -9.5422  H       1  <O>11       0.0315
  42 H13       4.4809    -7.9973    -2.1674  H       1  <O>11       0.0636
  43 H14       6.8187    -7.4057    -1.8934  H       1  <O>11       0.0618
  44 H15       8.5593    -8.9077    -2.6831  H       1  <O>11       0.0620
  45 H16       5.6195   -11.6169    -4.0106  H       1  <O>11       0.0639
  46 H17       0.9443    -9.7723    -2.5929  H       1  <O>11       0.0654
  47 H18      -2.2197   -11.1068    -5.0362  H       1  <O>11       0.0675
  48 H19       1.6389   -10.6156    -6.6617  H       1  <O>11       0.0654
@<TRIPOS>BOND
     1     1     2    2
     2     2     3   am
     3     3     4    1
     4     4     5   ar
     5     5     6   ar
     6     6     7   ar
     7     7     8   ar
     8     8     9    1
     9     9    10    1
    10    10    11   ar
    11    11    12   ar
    12    12    13   ar
    13    13    14    2
    14    13    15   ar
    15    15    16   ar
    16    10    16   ar
    17    16    17    1
    18    17    18    1
    19    18    19    1
    20    19    20    1
    21    15    20    1
    22     8    21   ar
    23     4    21   ar
    24     2    22    1
    25    22    23   ar
    26    23    24   ar
    27    24    25    1
    28    24    26   ar
    29    26    27   ar
    30    27    28    1
    31    27    29   ar
    32    22    29   ar
    33     3    30    1
    34     9    31    1
    35     9    32    1
    36    12    33    1
    37    17    34    1
    38    17    35    1
    39    18    36    1
    40    18    37    1
    41    19    38    1
    42    19    39    1
    43    20    40    1
    44    20    41    1
    45     5    42    1
    46     6    43    1
    47     7    44    1
    48    21    45    1
    49    23    46    1
    50    26    47    1
    51    29    48    1
@<TRIPOS>MOLECULE
mol78_1_20
 48 51 0 0 0
SMALL
USER_CHARGES
****
VDW energy = -104.96
@<TRIPOS>ATOM
   1 O1        3.4420    -9.1855    -5.2979  O.2     1  <O>11      -0.2698
   2 C1        2.8552    -9.8129    -4.4288  C.2     1  <O>11       0.2484
   3 N1        3.5160   -10.1860    -3.2900  N.am    1  <O>11      -0.2815
   4 C2        4.8600    -9.8500    -3.1210  C.ar    1  <O>11       0.0339
   5 C3        5.8255   -10.3053    -4.0353  C.ar    1  <O>11      -0.0405
   6 C4        7.1737    -9.9770    -3.8586  C.ar    1  <O>11      -0.0597
   7 C5        7.5702    -9.1922    -2.7731  C.ar    1  <O>11      -0.0581
   8 C6        6.6079    -8.7329    -1.8669  C.ar    1  <O>11      -0.0398
   9 C7        7.0324    -7.9017    -0.7228  C.3     1  <O>11       0.0168
  10 C8        6.9975    -6.4675    -1.1131  C.ar    1  <O>11       0.0693
  11 N2        8.1256    -5.8712    -1.6661  N.ar    1  <O>11      -0.1753
  12 N3        8.1020    -4.5630    -2.0270  N.ar    1  <O>11      -0.2427
  13 C9        6.9796    -3.8383    -1.8385  C.ar    1  <O>11       0.2682
  14 O2        7.0144    -2.4926    -2.2493  O.2     1  <O>11      -0.2661
  15 C10       5.8206    -4.3613    -1.2667  C.ar    1  <O>11       0.0232
  16 C11       5.8356    -5.7240    -0.9237  C.ar    1  <O>11      -0.0158
  17 C12       4.6514    -6.4089    -0.2961  C.3     1  <O>11      -0.0255
  18 C13       3.3500    -5.6289    -0.4676  C.3     1  <O>11      -0.0487
  19 C14       3.5632    -4.1638    -0.1146  C.3     1  <O>11      -0.0486
  20 C15       4.5823    -3.5274    -1.0599  C.3     1  <O>11      -0.0222
  21 C16       5.2604    -9.0532    -2.0355  C.ar    1  <O>11      -0.0369
  22 C17       1.4620   -10.1610    -4.6040  C.ar    1  <O>11       0.0424
  23 C18       1.1306   -11.3698    -5.2192  C.ar    1  <O>11      -0.0142
  24 C19      -0.2153   -11.7066    -5.4026  C.ar    1  <O>11       0.1268
  25 F1       -0.5430   -12.8918    -6.0096  F       1  <O>11      -0.2054
  26 C20      -1.2229   -10.8409    -4.9699  C.ar    1  <O>11       0.0088
  27 C21      -0.8747    -9.6351    -4.3496  C.ar    1  <O>11       0.1268
  28 F2       -1.8676    -8.7896    -3.9265  F       1  <O>11      -0.2054
  29 C22       0.4636    -9.2913    -4.1600  C.ar    1  <O>11      -0.0142
  30 H1        3.0270   -10.7100    -2.5640  H       1  <O>11       0.1551
  31 H2        8.0465    -8.1745    -0.4320  H       1  <O>11       0.0377
  32 H3        6.3575    -8.0667     0.1161  H       1  <O>11       0.0377
  33 H4        8.9236    -4.1403    -2.4353  H       1  <O>11       0.1921
  34 H5        4.5319    -7.3885    -0.7582  H       1  <O>11       0.0314
  35 H6        4.8456    -6.5306     0.7694  H       1  <O>11       0.0314
  36 H7        3.0177    -5.7046    -1.5025  H       1  <O>11       0.0268
  37 H8        2.5892    -6.0504     0.1905  H       1  <O>11       0.0268
  38 H9        2.6154    -3.6334    -0.2010  H       1  <O>11       0.0269
  39 H10       3.9297    -4.0920     0.9086  H       1  <O>11       0.0269
  40 H11       4.1056    -3.3724    -2.0272  H       1  <O>11       0.0315
  41 H12       4.8825    -2.5651    -0.6444  H       1  <O>11       0.0315
  42 H13       5.5387   -10.8841    -4.8402  H       1  <O>11       0.0636
  43 H14       7.8781   -10.3158    -4.5325  H       1  <O>11       0.0618
  44 H15       8.5653    -8.9530    -2.6404  H       1  <O>11       0.0620
  45 H16       4.5587    -8.7051    -1.3635  H       1  <O>11       0.0639
  46 H17       1.8739   -12.0113    -5.5368  H       1  <O>11       0.0654
  47 H18      -2.2155   -11.0882    -5.1063  H       1  <O>11       0.0675
  48 H19       0.7134    -8.4037    -3.6966  H       1  <O>11       0.0654
@<TRIPOS>BOND
     1     1     2    2
     2     2     3   am
     3     3     4    1
     4     4     5   ar
     5     5     6   ar
     6     6     7   ar
     7     7     8   ar
     8     8     9    1
     9     9    10    1
    10    10    11   ar
    11    11    12   ar
    12    12    13   ar
    13    13    14    2
    14    13    15   ar
    15    15    16   ar
    16    10    16   ar
    17    16    17    1
    18    17    18    1
    19    18    19    1
    20    19    20    1
    21    15    20    1
    22     8    21   ar
    23     4    21   ar
    24     2    22    1
    25    22    23   ar
    26    23    24   ar
    27    24    25    1
    28    24    26   ar
    29    26    27   ar
    30    27    28    1
    31    27    29   ar
    32    22    29   ar
    33     3    30    1
    34     9    31    1
    35     9    32    1
    36    12    33    1
    37    17    34    1
    38    17    35    1
    39    18    36    1
    40    18    37    1
    41    19    38    1
    42    19    39    1
    43    20    40    1
    44    20    41    1
    45     5    42    1
    46     6    43    1
    47     7    44    1
    48    21    45    1
    49    23    46    1
    50    26    47    1
    51    29    48    1
@<TRIPOS>MOLECULE
mol78_1_21
 48 51 0 0 0
SMALL
USER_CHARGES
****
VDW energy = -95.30
@<TRIPOS>ATOM
   1 O1        3.4420    -9.1855    -5.2979  O.2     1  <O>11      -0.2698
   2 C1        2.8552    -9.8129    -4.4288  C.2     1  <O>11       0.2484
   3 N1        3.5160   -10.1860    -3.2900  N.am    1  <O>11      -0.2815
   4 C2        4.8600    -9.8500    -3.1210  C.ar    1  <O>11       0.0339
   5 C3        5.5450   -10.2300    -1.9540  C.ar    1  <O>11      -0.0405
   6 C4        6.8890    -9.8830    -1.7810  C.ar    1  <O>11      -0.0597
   7 C5        7.5610    -9.1580    -2.7680  C.ar    1  <O>11      -0.0581
   8 C6        6.8810    -8.7860    -3.9330  C.ar    1  <O>11      -0.0398
   9 C7        7.5970    -8.0220    -4.9740  C.3     1  <O>11       0.0168
  10 C8        7.4459    -6.5664    -4.7117  C.ar    1  <O>11       0.0693
  11 N2        6.7122    -6.1317    -3.6132  N.ar    1  <O>11      -0.1753
  12 N3        6.5708    -4.8048    -3.3652  N.ar    1  <O>11      -0.2427
  13 C9        7.1388    -3.9059    -4.1957  C.ar    1  <O>11       0.2682
  14 O2        6.9695    -2.5462    -3.8737  O.2     1  <O>11      -0.2661
  15 C10       7.8658    -4.2670    -5.3291  C.ar    1  <O>11       0.0232
  16 C11       8.0390    -5.6412    -5.5667  C.ar    1  <O>11      -0.0158
  17 C12       8.7991    -6.1626    -6.7564  C.3     1  <O>11      -0.0255
  18 C13       9.6936    -5.1075    -7.4032  C.3     1  <O>11      -0.0487
  19 C14       8.9230    -3.8091    -7.5951  C.3     1  <O>11      -0.0486
  20 C15       8.4835    -3.2419    -6.2452  C.3     1  <O>11      -0.0222
  21 C16       5.5410    -9.1290    -4.1160  C.ar    1  <O>11      -0.0369
  22 C17       1.4620   -10.1610    -4.6040  C.ar    1  <O>11       0.0424
  23 C18       0.4750    -9.2817    -4.1546  C.ar    1  <O>11      -0.0142
  24 C19      -0.8745    -9.6183    -4.3101  C.ar    1  <O>11       0.1268
  25 F1       -1.8455    -8.7576    -3.8665  F       1  <O>11      -0.2054
  26 C20      -1.2337   -10.8255    -4.9148  C.ar    1  <O>11       0.0088
  27 C21      -0.2326   -11.6941    -5.3653  C.ar    1  <O>11       0.1268
  28 F2       -0.5908   -12.8772    -5.9584  F       1  <O>11      -0.2054
  29 C22       1.1151   -11.3668    -5.2172  C.ar    1  <O>11      -0.0142
  30 H1        3.0270   -10.7100    -2.5640  H       1  <O>11       0.1551
  31 H2        7.1789    -8.2603    -5.9517  H       1  <O>11       0.0377
  32 H3        8.6534    -8.2868    -4.9568  H       1  <O>11       0.0377
  33 H4        6.0427    -4.4984    -2.5603  H       1  <O>11       0.1921
  34 H5        9.4235    -6.9947    -6.4320  H       1  <O>11       0.0314
  35 H6        8.0828    -6.5134    -7.4992  H       1  <O>11       0.0314
  36 H7       10.5551    -4.9228    -6.7622  H       1  <O>11       0.0268
  37 H8       10.0336    -5.4710    -8.3737  H       1  <O>11       0.0268
  38 H9        9.5632    -3.0839    -8.0964  H       1  <O>11       0.0269
  39 H10       8.0425    -4.0027    -8.2064  H       1  <O>11       0.0269
  40 H11       9.3556    -2.8173    -5.7491  H       1  <O>11       0.0315
  41 H12       7.7493    -2.4562    -6.4251  H       1  <O>11       0.0315
  42 H13       5.0545   -10.7671    -1.2219  H       1  <O>11       0.0636
  43 H14       7.3859   -10.1636    -0.9211  H       1  <O>11       0.0618
  44 H15       8.5515    -8.8987    -2.6389  H       1  <O>11       0.0620
  45 H16       5.0507    -8.8534    -4.9813  H       1  <O>11       0.0639
  46 H17       0.7391    -8.3884    -3.7103  H       1  <O>11       0.0654
  47 H18      -2.2287   -11.0748    -5.0282  H       1  <O>11       0.0675
  48 H19       1.8481   -12.0089    -5.5570  H       1  <O>11       0.0654
@<TRIPOS>BOND
     1     1     2    2
     2     2     3   am
     3     3     4    1
     4     4     5   ar
     5     5     6   ar
     6     6     7   ar
     7     7     8   ar
     8     8     9    1
     9     9    10    1
    10    10    11   ar
    11    11    12   ar
    12    12    13   ar
    13    13    14    2
    14    13    15   ar
    15    15    16   ar
    16    10    16   ar
    17    16    17    1
    18    17    18    1
    19    18    19    1
    20    19    20    1
    21    15    20    1
    22     8    21   ar
    23     4    21   ar
    24     2    22    1
    25    22    23   ar
    26    23    24   ar
    27    24    25    1
    28    24    26   ar
    29    26    27   ar
    30    27    28    1
    31    27    29   ar
    32    22    29   ar
    33     3    30    1
    34     9    31    1
    35     9    32    1
    36    12    33    1
    37    17    34    1
    38    17    35    1
    39    18    36    1
    40    18    37    1
    41    19    38    1
    42    19    39    1
    43    20    40    1
    44    20    41    1
    45     5    42    1
    46     6    43    1
    47     7    44    1
    48    21    45    1
    49    23    46    1
    50    26    47    1
    51    29    48    1
@<TRIPOS>MOLECULE
mol78_1_22
 48 51 0 0 0
SMALL
USER_CHARGES
****
VDW energy = -93.86
@<TRIPOS>ATOM
   1 O1        3.4420    -9.1855    -5.2979  O.2     1  <O>11      -0.2698
   2 C1        2.8552    -9.8129    -4.4288  C.2     1  <O>11       0.2484
   3 N1        3.5160   -10.1860    -3.2900  N.am    1  <O>11      -0.2815
   4 C2        2.8461   -10.9025    -2.2972  C.ar    1  <O>11       0.0339
   5 C3        2.8323   -12.3077    -2.3232  C.ar    1  <O>11      -0.0405
   6 C4        2.1512   -13.0243    -1.3337  C.ar    1  <O>11      -0.0597
   7 C5        1.4813   -12.3486    -0.3110  C.ar    1  <O>11      -0.0581
   8 C6        1.5011   -10.9497    -0.2811  C.ar    1  <O>11      -0.0398
   9 C7        0.7935   -10.2408     0.8037  C.3     1  <O>11       0.0168
  10 C8        1.7201   -10.0363     1.9483  C.ar    1  <O>11       0.0693
  11 N2        3.0303   -10.4962     1.8711  N.ar    1  <O>11      -0.1753
  12 N3        3.8834   -10.3121     2.9105  N.ar    1  <O>11      -0.2427
  13 C9        3.4522    -9.6873     4.0259  C.ar    1  <O>11       0.2682
  14 O2        4.3903    -9.5127     5.0606  O.2     1  <O>11      -0.2661
  15 C10       2.1473    -9.2231     4.1845  C.ar    1  <O>11       0.0232
  16 C11       1.2741    -9.3851     3.0953  C.ar    1  <O>11      -0.0158
  17 C12      -0.1602    -8.9313     3.1393  C.3     1  <O>11      -0.0255
  18 C13      -0.4364    -7.9314     4.2598  C.3     1  <O>11      -0.0487
  19 C14       0.1691    -8.4237     5.5666  C.3     1  <O>11      -0.0486
  20 C15       1.6889    -8.5352     5.4448  C.3     1  <O>11      -0.0222
  21 C16       2.1793   -10.2258    -1.2622  C.ar    1  <O>11      -0.0369
  22 C17       1.4620   -10.1610    -4.6040  C.ar    1  <O>11       0.0424
  23 C18       0.5946   -10.0837    -3.5126  C.ar    1  <O>11      -0.0142
  24 C19      -0.7516   -10.4309    -3.6727  C.ar    1  <O>11       0.1268
  25 F1       -1.6044   -10.3589    -2.6013  F       1  <O>11      -0.2054
  26 C20      -1.2274   -10.8492    -4.9180  C.ar    1  <O>11       0.0088
  27 C21      -0.3466   -10.9160    -6.0041  C.ar    1  <O>11       0.1268
  28 F2       -0.8191   -11.3266    -7.2240  F       1  <O>11      -0.2054
  29 C22       0.9963   -10.5699    -5.8555  C.ar    1  <O>11      -0.0142
  30 H1        4.4984    -9.9407    -3.1658  H       1  <O>11       0.1551
  31 H2       -0.0604   -10.8345     1.1291  H       1  <O>11       0.0377
  32 H3        0.4462    -9.2746     0.4400  H       1  <O>11       0.0377
  33 H4        4.8357   -10.6425     2.8425  H       1  <O>11       0.1921
  34 H5       -0.4049    -8.4612     2.1871  H       1  <O>11       0.0314
  35 H6       -0.7957    -9.8041     3.2880  H       1  <O>11       0.0314
  36 H7        0.0026    -6.9685     4.0005  H       1  <O>11       0.0268
  37 H8       -1.5142    -7.8186     4.3828  H       1  <O>11       0.0268
  38 H9       -0.0753    -7.7200     6.3616  H       1  <O>11       0.0269
  39 H10      -0.2441    -9.4027     5.8059  H       1  <O>11       0.0269
  40 H11       2.1109    -7.5309     5.4623  H       1  <O>11       0.0315
  41 H12       2.0617    -9.1009     6.2991  H       1  <O>11       0.0315
  42 H13       3.3267   -12.8127    -3.0753  H       1  <O>11       0.0636
  43 H14       2.1435   -14.0560    -1.3594  H       1  <O>11       0.0618
  44 H15       0.9756   -12.8770     0.4170  H       1  <O>11       0.0620
  45 H16       2.1912    -9.1944    -1.2277  H       1  <O>11       0.0639
  46 H17       0.9443    -9.7723    -2.5929  H       1  <O>11       0.0654
  47 H18      -2.2197   -11.1068    -5.0362  H       1  <O>11       0.0675
  48 H19       1.6389   -10.6156    -6.6617  H       1  <O>11       0.0654
@<TRIPOS>BOND
     1     1     2    2
     2     2     3   am
     3     3     4    1
     4     4     5   ar
     5     5     6   ar
     6     6     7   ar
     7     7     8   ar
     8     8     9    1
     9     9    10    1
    10    10    11   ar
    11    11    12   ar
    12    12    13   ar
    13    13    14    2
    14    13    15   ar
    15    15    16   ar
    16    10    16   ar
    17    16    17    1
    18    17    18    1
    19    18    19    1
    20    19    20    1
    21    15    20    1
    22     8    21   ar
    23     4    21   ar
    24     2    22    1
    25    22    23   ar
    26    23    24   ar
    27    24    25    1
    28    24    26   ar
    29    26    27   ar
    30    27    28    1
    31    27    29   ar
    32    22    29   ar
    33     3    30    1
    34     9    31    1
    35     9    32    1
    36    12    33    1
    37    17    34    1
    38    17    35    1
    39    18    36    1
    40    18    37    1
    41    19    38    1
    42    19    39    1
    43    20    40    1
    44    20    41    1
    45     5    42    1
    46     6    43    1
    47     7    44    1
    48    21    45    1
    49    23    46    1
    50    26    47    1
    51    29    48    1
@<TRIPOS>MOLECULE
mol78_1_23
 48 51 0 0 0
SMALL
USER_CHARGES
****
VDW energy = -92.36
@<TRIPOS>ATOM
   1 O1        3.4420    -9.1855    -5.2979  O.2     1  <O>11      -0.2698
   2 C1        2.8552    -9.8129    -4.4288  C.2     1  <O>11       0.2484
   3 N1        3.5160   -10.1860    -3.2900  N.am    1  <O>11      -0.2815
   4 C2        4.8600    -9.8500    -3.1210  C.ar    1  <O>11       0.0339
   5 C3        5.5450   -10.2300    -1.9540  C.ar    1  <O>11      -0.0405
   6 C4        6.8890    -9.8830    -1.7810  C.ar    1  <O>11      -0.0597
   7 C5        7.5610    -9.1580    -2.7680  C.ar    1  <O>11      -0.0581
   8 C6        6.8810    -8.7860    -3.9330  C.ar    1  <O>11      -0.0398
   9 C7        7.5970    -8.0220    -4.9740  C.3     1  <O>11       0.0168
  10 C8        7.4459    -6.5664    -4.7117  C.ar    1  <O>11       0.0693
  11 N2        6.7122    -6.1317    -3.6132  N.ar    1  <O>11      -0.1753
  12 N3        6.5708    -4.8048    -3.3652  N.ar    1  <O>11      -0.2427
  13 C9        7.1388    -3.9059    -4.1957  C.ar    1  <O>11       0.2682
  14 O2        6.9695    -2.5462    -3.8737  O.2     1  <O>11      -0.2661
  15 C10       7.8658    -4.2670    -5.3291  C.ar    1  <O>11       0.0232
  16 C11       8.0390    -5.6412    -5.5667  C.ar    1  <O>11      -0.0158
  17 C12       8.7991    -6.1626    -6.7564  C.3     1  <O>11      -0.0255
  18 C13       9.6936    -5.1075    -7.4032  C.3     1  <O>11      -0.0487
  19 C14       8.9230    -3.8091    -7.5951  C.3     1  <O>11      -0.0486
  20 C15       8.4835    -3.2419    -6.2452  C.3     1  <O>11      -0.0222
  21 C16       5.5410    -9.1290    -4.1160  C.ar    1  <O>11      -0.0369
  22 C17       1.4620   -10.1610    -4.6040  C.ar    1  <O>11       0.0424
  23 C18       0.5946   -10.0837    -3.5126  C.ar    1  <O>11      -0.0142
  24 C19      -0.7516   -10.4309    -3.6727  C.ar    1  <O>11       0.1268
  25 F1       -1.6044   -10.3589    -2.6013  F       1  <O>11      -0.2054
  26 C20      -1.2274   -10.8492    -4.9180  C.ar    1  <O>11       0.0088
  27 C21      -0.3466   -10.9160    -6.0041  C.ar    1  <O>11       0.1268
  28 F2       -0.8191   -11.3266    -7.2240  F       1  <O>11      -0.2054
  29 C22       0.9963   -10.5699    -5.8555  C.ar    1  <O>11      -0.0142
  30 H1        3.0270   -10.7100    -2.5640  H       1  <O>11       0.1551
  31 H2        7.1789    -8.2603    -5.9517  H       1  <O>11       0.0377
  32 H3        8.6534    -8.2868    -4.9568  H       1  <O>11       0.0377
  33 H4        6.0427    -4.4984    -2.5603  H       1  <O>11       0.1921
  34 H5        9.4235    -6.9947    -6.4320  H       1  <O>11       0.0314
  35 H6        8.0828    -6.5134    -7.4992  H       1  <O>11       0.0314
  36 H7       10.5551    -4.9228    -6.7622  H       1  <O>11       0.0268
  37 H8       10.0336    -5.4710    -8.3737  H       1  <O>11       0.0268
  38 H9        9.5632    -3.0839    -8.0964  H       1  <O>11       0.0269
  39 H10       8.0425    -4.0027    -8.2064  H       1  <O>11       0.0269
  40 H11       9.3556    -2.8173    -5.7491  H       1  <O>11       0.0315
  41 H12       7.7493    -2.4562    -6.4251  H       1  <O>11       0.0315
  42 H13       5.0545   -10.7671    -1.2219  H       1  <O>11       0.0636
  43 H14       7.3859   -10.1636    -0.9211  H       1  <O>11       0.0618
  44 H15       8.5515    -8.8987    -2.6389  H       1  <O>11       0.0620
  45 H16       5.0507    -8.8534    -4.9813  H       1  <O>11       0.0639
  46 H17       0.9443    -9.7723    -2.5929  H       1  <O>11       0.0654
  47 H18      -2.2197   -11.1068    -5.0362  H       1  <O>11       0.0675
  48 H19       1.6389   -10.6156    -6.6617  H       1  <O>11       0.0654
@<TRIPOS>BOND
     1     1     2    2
     2     2     3   am
     3     3     4    1
     4     4     5   ar
     5     5     6   ar
     6     6     7   ar
     7     7     8   ar
     8     8     9    1
     9     9    10    1
    10    10    11   ar
    11    11    12   ar
    12    12    13   ar
    13    13    14    2
    14    13    15   ar
    15    15    16   ar
    16    10    16   ar
    17    16    17    1
    18    17    18    1
    19    18    19    1
    20    19    20    1
    21    15    20    1
    22     8    21   ar
    23     4    21   ar
    24     2    22    1
    25    22    23   ar
    26    23    24   ar
    27    24    25    1
    28    24    26   ar
    29    26    27   ar
    30    27    28    1
    31    27    29   ar
    32    22    29   ar
    33     3    30    1
    34     9    31    1
    35     9    32    1
    36    12    33    1
    37    17    34    1
    38    17    35    1
    39    18    36    1
    40    18    37    1
    41    19    38    1
    42    19    39    1
    43    20    40    1
    44    20    41    1
    45     5    42    1
    46     6    43    1
    47     7    44    1
    48    21    45    1
    49    23    46    1
    50    26    47    1
    51    29    48    1
@<TRIPOS>MOLECULE
mol78_1_24
 48 51 0 0 0
SMALL
USER_CHARGES
****
VDW energy = -92.31
@<TRIPOS>ATOM
   1 O1        3.4420    -9.1855    -5.2979  O.2     1  <O>11      -0.2698
   2 C1        2.8552    -9.8129    -4.4288  C.2     1  <O>11       0.2484
   3 N1        3.5160   -10.1860    -3.2900  N.am    1  <O>11      -0.2815
   4 C2        4.8600    -9.8500    -3.1210  C.ar    1  <O>11       0.0339
   5 C3        5.5450   -10.2300    -1.9540  C.ar    1  <O>11      -0.0405
   6 C4        6.8890    -9.8830    -1.7810  C.ar    1  <O>11      -0.0597
   7 C5        7.5610    -9.1580    -2.7680  C.ar    1  <O>11      -0.0581
   8 C6        6.8810    -8.7860    -3.9330  C.ar    1  <O>11      -0.0398
   9 C7        7.5970    -8.0220    -4.9740  C.3     1  <O>11       0.0168
  10 C8        7.4459    -6.5664    -4.7117  C.ar    1  <O>11       0.0693
  11 N2        6.7122    -6.1317    -3.6132  N.ar    1  <O>11      -0.1753
  12 N3        6.5708    -4.8048    -3.3652  N.ar    1  <O>11      -0.2427
  13 C9        7.1388    -3.9059    -4.1957  C.ar    1  <O>11       0.2682
  14 O2        6.9695    -2.5462    -3.8737  O.2     1  <O>11      -0.2661
  15 C10       7.8658    -4.2670    -5.3291  C.ar    1  <O>11       0.0232
  16 C11       8.0390    -5.6412    -5.5667  C.ar    1  <O>11      -0.0158
  17 C12       8.7991    -6.1626    -6.7564  C.3     1  <O>11      -0.0255
  18 C13       9.6936    -5.1075    -7.4032  C.3     1  <O>11      -0.0487
  19 C14       8.9230    -3.8091    -7.5951  C.3     1  <O>11      -0.0486
  20 C15       8.4835    -3.2419    -6.2452  C.3     1  <O>11      -0.0222
  21 C16       5.5410    -9.1290    -4.1160  C.ar    1  <O>11      -0.0369
  22 C17       1.4620   -10.1610    -4.6040  C.ar    1  <O>11       0.0424
  23 C18       1.0134   -11.4175    -4.1926  C.ar    1  <O>11      -0.0142
  24 C19      -0.3305   -11.7649    -4.3706  C.ar    1  <O>11       0.1268
  25 F1       -0.7725   -12.9998    -3.9703  F       1  <O>11      -0.2054
  26 C20      -1.2205   -10.8590    -4.9532  C.ar    1  <O>11       0.0088
  27 C21      -0.7568    -9.6008    -5.3553  C.ar    1  <O>11       0.1268
  28 F2       -1.6347    -8.7156    -5.9260  F       1  <O>11      -0.2054
  29 C22       0.5801    -9.2441    -5.1802  C.ar    1  <O>11      -0.0142
  30 H1        3.0270   -10.7100    -2.5640  H       1  <O>11       0.1551
  31 H2        7.1789    -8.2603    -5.9517  H       1  <O>11       0.0377
  32 H3        8.6534    -8.2868    -4.9568  H       1  <O>11       0.0377
  33 H4        6.0427    -4.4984    -2.5603  H       1  <O>11       0.1921
  34 H5        9.4235    -6.9947    -6.4320  H       1  <O>11       0.0314
  35 H6        8.0828    -6.5134    -7.4992  H       1  <O>11       0.0314
  36 H7       10.5551    -4.9228    -6.7622  H       1  <O>11       0.0268
  37 H8       10.0336    -5.4710    -8.3737  H       1  <O>11       0.0268
  38 H9        9.5632    -3.0839    -8.0964  H       1  <O>11       0.0269
  39 H10       8.0425    -4.0027    -8.2064  H       1  <O>11       0.0269
  40 H11       9.3556    -2.8173    -5.7491  H       1  <O>11       0.0315
  41 H12       7.7493    -2.4562    -6.4251  H       1  <O>11       0.0315
  42 H13       5.0545   -10.7671    -1.2219  H       1  <O>11       0.0636
  43 H14       7.3859   -10.1636    -0.9211  H       1  <O>11       0.0618
  44 H15       8.5515    -8.8987    -2.6389  H       1  <O>11       0.0620
  45 H16       5.0507    -8.8534    -4.9813  H       1  <O>11       0.0639
  46 H17       1.6693   -12.0865    -3.7596  H       1  <O>11       0.0654
  47 H18      -2.2113   -11.1153    -5.0861  H       1  <O>11       0.0675
  48 H19       0.9141    -8.3127    -5.4733  H       1  <O>11       0.0654
@<TRIPOS>BOND
     1     1     2    2
     2     2     3   am
     3     3     4    1
     4     4     5   ar
     5     5     6   ar
     6     6     7   ar
     7     7     8   ar
     8     8     9    1
     9     9    10    1
    10    10    11   ar
    11    11    12   ar
    12    12    13   ar
    13    13    14    2
    14    13    15   ar
    15    15    16   ar
    16    10    16   ar
    17    16    17    1
    18    17    18    1
    19    18    19    1
    20    19    20    1
    21    15    20    1
    22     8    21   ar
    23     4    21   ar
    24     2    22    1
    25    22    23   ar
    26    23    24   ar
    27    24    25    1
    28    24    26   ar
    29    26    27   ar
    30    27    28    1
    31    27    29   ar
    32    22    29   ar
    33     3    30    1
    34     9    31    1
    35     9    32    1
    36    12    33    1
    37    17    34    1
    38    17    35    1
    39    18    36    1
    40    18    37    1
    41    19    38    1
    42    19    39    1
    43    20    40    1
    44    20    41    1
    45     5    42    1
    46     6    43    1
    47     7    44    1
    48    21    45    1
    49    23    46    1
    50    26    47    1
    51    29    48    1
@<TRIPOS>MOLECULE
mol78_1_25
 48 51 0 0 0
SMALL
USER_CHARGES
****
VDW energy = -88.92
@<TRIPOS>ATOM
   1 O1        3.4420    -9.1855    -5.2979  O.2     1  <O>11      -0.2698
   2 C1        2.8552    -9.8129    -4.4288  C.2     1  <O>11       0.2484
   3 N1        3.5160   -10.1860    -3.2900  N.am    1  <O>11      -0.2815
   4 C2        2.8461   -10.9025    -2.2972  C.ar    1  <O>11       0.0339
   5 C3        2.8323   -12.3077    -2.3232  C.ar    1  <O>11      -0.0405
   6 C4        2.1512   -13.0243    -1.3337  C.ar    1  <O>11      -0.0597
   7 C5        1.4813   -12.3486    -0.3110  C.ar    1  <O>11      -0.0581
   8 C6        1.5011   -10.9497    -0.2811  C.ar    1  <O>11      -0.0398
   9 C7        0.7935   -10.2408     0.8037  C.3     1  <O>11       0.0168
  10 C8       -0.6514   -10.5890     0.7626  C.ar    1  <O>11       0.0693
  11 N2       -1.1267   -11.4648    -0.2076  N.ar    1  <O>11      -0.1753
  12 N3       -2.4438   -11.7896    -0.2513  N.ar    1  <O>11      -0.2427
  13 C9       -3.2946   -11.2514     0.6470  C.ar    1  <O>11       0.2682
  14 O2       -4.6440   -11.6418     0.5588  O.2     1  <O>11      -0.2661
  15 C10      -2.8948   -10.3477     1.6304  C.ar    1  <O>11       0.0232
  16 C11      -1.5257   -10.0374     1.6951  C.ar    1  <O>11      -0.0158
  17 C12      -0.9660    -9.0739     2.7069  C.3     1  <O>11      -0.0255
  18 C13      -1.9124    -8.8206     3.8781  C.3     1  <O>11      -0.0487
  19 C14      -3.3190    -8.5414     3.3681  C.3     1  <O>11      -0.0486
  20 C15      -3.8677    -9.7547     2.6170  C.3     1  <O>11      -0.0222
  21 C16       2.1793   -10.2258    -1.2622  C.ar    1  <O>11      -0.0369
  22 C17       1.4620   -10.1610    -4.6040  C.ar    1  <O>11       0.0424
  23 C18       0.5946   -10.0837    -3.5126  C.ar    1  <O>11      -0.0142
  24 C19      -0.7516   -10.4309    -3.6727  C.ar    1  <O>11       0.1268
  25 F1       -1.6044   -10.3589    -2.6013  F       1  <O>11      -0.2054
  26 C20      -1.2274   -10.8492    -4.9180  C.ar    1  <O>11       0.0088
  27 C21      -0.3466   -10.9160    -6.0041  C.ar    1  <O>11       0.1268
  28 F2       -0.8191   -11.3266    -7.2240  F       1  <O>11      -0.2054
  29 C22       0.9963   -10.5699    -5.8555  C.ar    1  <O>11      -0.0142
  30 H1        4.4984    -9.9407    -3.1658  H       1  <O>11       0.1551
  31 H2        0.9119    -9.1655     0.6726  H       1  <O>11       0.0377
  32 H3        1.2117   -10.5374     1.7646  H       1  <O>11       0.0377
  33 H4       -2.7788   -12.4328    -0.9545  H       1  <O>11       0.1921
  34 H5       -0.0339    -9.4824     3.0966  H       1  <O>11       0.0314
  35 H6       -0.7672    -8.1249     2.2092  H       1  <O>11       0.0314
  36 H7       -1.9316    -9.6985     4.5230  H       1  <O>11       0.0268
  37 H8       -1.5583    -7.9595     4.4462  H       1  <O>11       0.0268
  38 H9       -3.9690    -8.3205     4.2141  H       1  <O>11       0.0269
  39 H10      -3.2923    -7.6853     2.6951  H       1  <O>11       0.0269
  40 H11      -4.1303   -10.5213     3.3453  H       1  <O>11       0.0315
  41 H12      -4.7620    -9.4475     2.0743  H       1  <O>11       0.0315
  42 H13       3.3267   -12.8127    -3.0753  H       1  <O>11       0.0636
  43 H14       2.1435   -14.0560    -1.3594  H       1  <O>11       0.0618
  44 H15       0.9756   -12.8770     0.4170  H       1  <O>11       0.0620
  45 H16       2.1912    -9.1944    -1.2277  H       1  <O>11       0.0639
  46 H17       0.9443    -9.7723    -2.5929  H       1  <O>11       0.0654
  47 H18      -2.2197   -11.1068    -5.0362  H       1  <O>11       0.0675
  48 H19       1.6389   -10.6156    -6.6617  H       1  <O>11       0.0654
@<TRIPOS>BOND
     1     1     2    2
     2     2     3   am
     3     3     4    1
     4     4     5   ar
     5     5     6   ar
     6     6     7   ar
     7     7     8   ar
     8     8     9    1
     9     9    10    1
    10    10    11   ar
    11    11    12   ar
    12    12    13   ar
    13    13    14    2
    14    13    15   ar
    15    15    16   ar
    16    10    16   ar
    17    16    17    1
    18    17    18    1
    19    18    19    1
    20    19    20    1
    21    15    20    1
    22     8    21   ar
    23     4    21   ar
    24     2    22    1
    25    22    23   ar
    26    23    24   ar
    27    24    25    1
    28    24    26   ar
    29    26    27   ar
    30    27    28    1
    31    27    29   ar
    32    22    29   ar
    33     3    30    1
    34     9    31    1
    35     9    32    1
    36    12    33    1
    37    17    34    1
    38    17    35    1
    39    18    36    1
    40    18    37    1
    41    19    38    1
    42    19    39    1
    43    20    40    1
    44    20    41    1
    45     5    42    1
    46     6    43    1
    47     7    44    1
    48    21    45    1
    49    23    46    1
    50    26    47    1
    51    29    48    1
@<TRIPOS>MOLECULE
mol78_1_26
 48 51 0 0 0
SMALL
USER_CHARGES
****
VDW energy = -87.55
@<TRIPOS>ATOM
   1 O1        3.4420    -9.1855    -5.2979  O.2     1  <O>11      -0.2698
   2 C1        2.8552    -9.8129    -4.4288  C.2     1  <O>11       0.2484
   3 N1        3.5160   -10.1860    -3.2900  N.am    1  <O>11      -0.2815
   4 C2        4.8600    -9.8500    -3.1210  C.ar    1  <O>11       0.0339
   5 C3        5.5450   -10.2300    -1.9540  C.ar    1  <O>11      -0.0405
   6 C4        6.8890    -9.8830    -1.7810  C.ar    1  <O>11      -0.0597
   7 C5        7.5610    -9.1580    -2.7680  C.ar    1  <O>11      -0.0581
   8 C6        6.8810    -8.7860    -3.9330  C.ar    1  <O>11      -0.0398
   9 C7        7.5970    -8.0220    -4.9740  C.3     1  <O>11       0.0168
  10 C8        7.4459    -6.5664    -4.7117  C.ar    1  <O>11       0.0693
  11 N2        6.7122    -6.1317    -3.6132  N.ar    1  <O>11      -0.1753
  12 N3        6.5708    -4.8048    -3.3652  N.ar    1  <O>11      -0.2427
  13 C9        7.1388    -3.9059    -4.1957  C.ar    1  <O>11       0.2682
  14 O2        6.9695    -2.5462    -3.8737  O.2     1  <O>11      -0.2661
  15 C10       7.8658    -4.2670    -5.3291  C.ar    1  <O>11       0.0232
  16 C11       8.0390    -5.6412    -5.5667  C.ar    1  <O>11      -0.0158
  17 C12       8.7991    -6.1626    -6.7564  C.3     1  <O>11      -0.0255
  18 C13       9.6936    -5.1075    -7.4032  C.3     1  <O>11      -0.0487
  19 C14       8.9230    -3.8091    -7.5951  C.3     1  <O>11      -0.0486
  20 C15       8.4835    -3.2419    -6.2452  C.3     1  <O>11      -0.0222
  21 C16       5.5410    -9.1290    -4.1160  C.ar    1  <O>11      -0.0369
  22 C17       1.4620   -10.1610    -4.6040  C.ar    1  <O>11       0.0424
  23 C18       0.8010    -9.7730    -5.7710  C.ar    1  <O>11      -0.0142
  24 C19      -0.5500   -10.0960    -5.9410  C.ar    1  <O>11       0.1268
  25 F1       -1.2020    -9.7130    -7.0850  F       1  <O>11      -0.2054
  26 C20      -1.2340   -10.8060    -4.9510  C.ar    1  <O>11       0.0088
  27 C21      -0.5560   -11.1930    -3.7890  C.ar    1  <O>11       0.1268
  28 F2       -1.2320   -11.8900    -2.8210  F       1  <O>11      -0.2054
  29 C22       0.7910   -10.8780    -3.6110  C.ar    1  <O>11      -0.0142
  30 H1        3.0270   -10.7100    -2.5640  H       1  <O>11       0.1551
  31 H2        7.1789    -8.2603    -5.9517  H       1  <O>11       0.0377
  32 H3        8.6534    -8.2868    -4.9568  H       1  <O>11       0.0377
  33 H4        6.0427    -4.4984    -2.5603  H       1  <O>11       0.1921
  34 H5        9.4235    -6.9947    -6.4320  H       1  <O>11       0.0314
  35 H6        8.0828    -6.5134    -7.4992  H       1  <O>11       0.0314
  36 H7       10.5551    -4.9228    -6.7622  H       1  <O>11       0.0268
  37 H8       10.0336    -5.4710    -8.3737  H       1  <O>11       0.0268
  38 H9        9.5632    -3.0839    -8.0964  H       1  <O>11       0.0269
  39 H10       8.0425    -4.0027    -8.2064  H       1  <O>11       0.0269
  40 H11       9.3556    -2.8173    -5.7491  H       1  <O>11       0.0315
  41 H12       7.7493    -2.4562    -6.4251  H       1  <O>11       0.0315
  42 H13       5.0545   -10.7671    -1.2219  H       1  <O>11       0.0636
  43 H14       7.3859   -10.1636    -0.9211  H       1  <O>11       0.0618
  44 H15       8.5515    -8.8987    -2.6389  H       1  <O>11       0.0620
  45 H16       5.0507    -8.8534    -4.9813  H       1  <O>11       0.0639
  46 H17       1.3059    -9.2509    -6.5042  H       1  <O>11       0.0654
  47 H18      -2.2307   -11.0431    -5.0753  H       1  <O>11       0.0675
  48 H19       1.2865   -11.1716    -2.7547  H       1  <O>11       0.0654
@<TRIPOS>BOND
     1     1     2    2
     2     2     3   am
     3     3     4    1
     4     4     5   ar
     5     5     6   ar
     6     6     7   ar
     7     7     8   ar
     8     8     9    1
     9     9    10    1
    10    10    11   ar
    11    11    12   ar
    12    12    13   ar
    13    13    14    2
    14    13    15   ar
    15    15    16   ar
    16    10    16   ar
    17    16    17    1
    18    17    18    1
    19    18    19    1
    20    19    20    1
    21    15    20    1
    22     8    21   ar
    23     4    21   ar
    24     2    22    1
    25    22    23   ar
    26    23    24   ar
    27    24    25    1
    28    24    26   ar
    29    26    27   ar
    30    27    28    1
    31    27    29   ar
    32    22    29   ar
    33     3    30    1
    34     9    31    1
    35     9    32    1
    36    12    33    1
    37    17    34    1
    38    17    35    1
    39    18    36    1
    40    18    37    1
    41    19    38    1
    42    19    39    1
    43    20    40    1
    44    20    41    1
    45     5    42    1
    46     6    43    1
    47     7    44    1
    48    21    45    1
    49    23    46    1
    50    26    47    1
    51    29    48    1
@<TRIPOS>MOLECULE
mol78_1_27
 48 51 0 0 0
SMALL
USER_CHARGES
****
VDW energy = -87.53
@<TRIPOS>ATOM
   1 O1        3.4420    -9.1855    -5.2979  O.2     1  <O>11      -0.2698
   2 C1        2.8552    -9.8129    -4.4288  C.2     1  <O>11       0.2484
   3 N1        3.5160   -10.1860    -3.2900  N.am    1  <O>11      -0.2815
   4 C2        4.8600    -9.8500    -3.1210  C.ar    1  <O>11       0.0339
   5 C3        5.5450   -10.2300    -1.9540  C.ar    1  <O>11      -0.0405
   6 C4        6.8890    -9.8830    -1.7810  C.ar    1  <O>11      -0.0597
   7 C5        7.5610    -9.1580    -2.7680  C.ar    1  <O>11      -0.0581
   8 C6        6.8810    -8.7860    -3.9330  C.ar    1  <O>11      -0.0398
   9 C7        7.5970    -8.0220    -4.9740  C.3     1  <O>11       0.0168
  10 C8        8.2282    -8.9653    -5.9343  C.ar    1  <O>11       0.0693
  11 N2        8.0838   -10.3370    -5.7561  N.ar    1  <O>11      -0.1753
  12 N3        8.6550   -11.2053    -6.6290  N.ar    1  <O>11      -0.2427
  13 C9        9.3731   -10.7318    -7.6685  C.ar    1  <O>11       0.2682
  14 O2        9.9250   -11.6833    -8.5467  O.2     1  <O>11      -0.2661
  15 C10       9.5819    -9.3723    -7.8955  C.ar    1  <O>11       0.0232
  16 C11       8.9629    -8.4736    -7.0099  C.ar    1  <O>11      -0.0158
  17 C12       9.1122    -6.9819    -7.1423  C.3     1  <O>11      -0.0255
  18 C13       9.6102    -6.5512    -8.5201  C.3     1  <O>11      -0.0487
  19 C14      10.8012    -7.4010    -8.9394  C.3     1  <O>11      -0.0486
  20 C15      10.3956    -8.8700    -9.0606  C.3     1  <O>11      -0.0222
  21 C16       5.5410    -9.1290    -4.1160  C.ar    1  <O>11      -0.0369
  22 C17       1.4620   -10.1610    -4.6040  C.ar    1  <O>11       0.0424
  23 C18       0.8010    -9.7730    -5.7710  C.ar    1  <O>11      -0.0142
  24 C19      -0.5500   -10.0960    -5.9410  C.ar    1  <O>11       0.1268
  25 F1       -1.2020    -9.7130    -7.0850  F       1  <O>11      -0.2054
  26 C20      -1.2340   -10.8060    -4.9510  C.ar    1  <O>11       0.0088
  27 C21      -0.5560   -11.1930    -3.7890  C.ar    1  <O>11       0.1268
  28 F2       -1.2320   -11.8900    -2.8210  F       1  <O>11      -0.2054
  29 C22       0.7910   -10.8780    -3.6110  C.ar    1  <O>11      -0.0142
  30 H1        3.0270   -10.7100    -2.5640  H       1  <O>11       0.1551
  31 H2        8.3674    -7.4078    -4.5085  H       1  <O>11       0.0377
  32 H3        6.8928    -7.3814    -5.5033  H       1  <O>11       0.0377
  33 H4        8.5382   -12.1999    -6.4962  H       1  <O>11       0.1921
  34 H5        8.1420    -6.5187    -6.9640  H       1  <O>11       0.0314
  35 H6        9.8235    -6.6365    -6.3922  H       1  <O>11       0.0314
  36 H7        8.8082    -6.6723    -9.2477  H       1  <O>11       0.0268
  37 H8        9.9113    -5.5036    -8.4817  H       1  <O>11       0.0268
  38 H9       11.1688    -7.0508    -9.9034  H       1  <O>11       0.0269
  39 H10      11.5884    -7.3069    -8.1925  H       1  <O>11       0.0269
  40 H11       9.8075    -8.9915    -9.9696  H       1  <O>11       0.0315
  41 H12      11.3018    -9.4721    -9.1308  H       1  <O>11       0.0315
  42 H13       5.0545   -10.7671    -1.2219  H       1  <O>11       0.0636
  43 H14       7.3859   -10.1636    -0.9211  H       1  <O>11       0.0618
  44 H15       8.5515    -8.8987    -2.6389  H       1  <O>11       0.0620
  45 H16       5.0507    -8.8534    -4.9813  H       1  <O>11       0.0639
  46 H17       1.3059    -9.2509    -6.5042  H       1  <O>11       0.0654
  47 H18      -2.2307   -11.0431    -5.0753  H       1  <O>11       0.0675
  48 H19       1.2865   -11.1716    -2.7547  H       1  <O>11       0.0654
@<TRIPOS>BOND
     1     1     2    2
     2     2     3   am
     3     3     4    1
     4     4     5   ar
     5     5     6   ar
     6     6     7   ar
     7     7     8   ar
     8     8     9    1
     9     9    10    1
    10    10    11   ar
    11    11    12   ar
    12    12    13   ar
    13    13    14    2
    14    13    15   ar
    15    15    16   ar
    16    10    16   ar
    17    16    17    1
    18    17    18    1
    19    18    19    1
    20    19    20    1
    21    15    20    1
    22     8    21   ar
    23     4    21   ar
    24     2    22    1
    25    22    23   ar
    26    23    24   ar
    27    24    25    1
    28    24    26   ar
    29    26    27   ar
    30    27    28    1
    31    27    29   ar
    32    22    29   ar
    33     3    30    1
    34     9    31    1
    35     9    32    1
    36    12    33    1
    37    17    34    1
    38    17    35    1
    39    18    36    1
    40    18    37    1
    41    19    38    1
    42    19    39    1
    43    20    40    1
    44    20    41    1
    45     5    42    1
    46     6    43    1
    47     7    44    1
    48    21    45    1
    49    23    46    1
    50    26    47    1
    51    29    48    1
@<TRIPOS>MOLECULE
mol78_1_28
 48 51 0 0 0
SMALL
USER_CHARGES
****
VDW energy = -87.40
@<TRIPOS>ATOM
   1 O1        3.4420    -9.1855    -5.2979  O.2     1  <O>11      -0.2698
   2 C1        2.8552    -9.8129    -4.4288  C.2     1  <O>11       0.2484
   3 N1        3.5160   -10.1860    -3.2900  N.am    1  <O>11      -0.2815
   4 C2        4.8600    -9.8500    -3.1210  C.ar    1  <O>11       0.0339
   5 C3        5.5450   -10.2300    -1.9540  C.ar    1  <O>11      -0.0405
   6 C4        6.8890    -9.8830    -1.7810  C.ar    1  <O>11      -0.0597
   7 C5        7.5610    -9.1580    -2.7680  C.ar    1  <O>11      -0.0581
   8 C6        6.8810    -8.7860    -3.9330  C.ar    1  <O>11      -0.0398
   9 C7        7.5970    -8.0220    -4.9740  C.3     1  <O>11       0.0168
  10 C8        7.4459    -6.5664    -4.7117  C.ar    1  <O>11       0.0693
  11 N2        8.3742    -5.9049    -3.9149  N.ar    1  <O>11      -0.1753
  12 N3        8.2451    -4.5758    -3.6719  N.ar    1  <O>11      -0.2427
  13 C9        7.2048    -3.8982    -4.2003  C.ar    1  <O>11       0.2682
  14 O2        7.1374    -2.5196    -3.9247  O.2     1  <O>11      -0.2661
  15 C10       6.2227    -4.4993    -4.9861  C.ar    1  <O>11       0.0232
  16 C11       6.3753    -5.8684    -5.2640  C.ar    1  <O>11      -0.0158
  17 C12       5.3835    -6.6360    -6.0961  C.3     1  <O>11      -0.0255
  18 C13       4.4802    -5.7332    -6.9331  C.3     1  <O>11      -0.0487
  19 C14       3.9295    -4.6006    -6.0785  C.3     1  <O>11      -0.0486
  20 C15       5.0659    -3.7204    -5.5578  C.3     1  <O>11      -0.0222
  21 C16       5.5410    -9.1290    -4.1160  C.ar    1  <O>11      -0.0369
  22 C17       1.4620   -10.1610    -4.6040  C.ar    1  <O>11       0.0424
  23 C18       0.4750    -9.2817    -4.1546  C.ar    1  <O>11      -0.0142
  24 C19      -0.8745    -9.6183    -4.3101  C.ar    1  <O>11       0.1268
  25 F1       -1.8455    -8.7576    -3.8665  F       1  <O>11      -0.2054
  26 C20      -1.2337   -10.8255    -4.9148  C.ar    1  <O>11       0.0088
  27 C21      -0.2326   -11.6941    -5.3653  C.ar    1  <O>11       0.1268
  28 F2       -0.5908   -12.8772    -5.9584  F       1  <O>11      -0.2054
  29 C22       1.1151   -11.3668    -5.2172  C.ar    1  <O>11      -0.0142
  30 H1        3.0270   -10.7100    -2.5640  H       1  <O>11       0.1551
  31 H2        7.1789    -8.2603    -5.9517  H       1  <O>11       0.0377
  32 H3        8.6534    -8.2868    -4.9568  H       1  <O>11       0.0377
  33 H4        8.9285    -4.1019    -3.0984  H       1  <O>11       0.1921
  34 H5        5.9315    -7.2966    -6.7676  H       1  <O>11       0.0314
  35 H6        4.7589    -7.2311    -5.4301  H       1  <O>11       0.0314
  36 H7        5.0544    -5.3141    -7.7588  H       1  <O>11       0.0268
  37 H8        3.6513    -6.3216    -7.3283  H       1  <O>11       0.0268
  38 H9        3.2543    -3.9937    -6.6809  H       1  <O>11       0.0269
  39 H10       3.3861    -5.0215    -5.2336  H       1  <O>11       0.0269
  40 H11       5.4347    -3.1102    -6.3816  H       1  <O>11       0.0315
  41 H12       4.6685    -3.0731    -4.7756  H       1  <O>11       0.0315
  42 H13       5.0545   -10.7671    -1.2219  H       1  <O>11       0.0636
  43 H14       7.3859   -10.1636    -0.9211  H       1  <O>11       0.0618
  44 H15       8.5515    -8.8987    -2.6389  H       1  <O>11       0.0620
  45 H16       5.0507    -8.8534    -4.9813  H       1  <O>11       0.0639
  46 H17       0.7391    -8.3884    -3.7103  H       1  <O>11       0.0654
  47 H18      -2.2287   -11.0748    -5.0282  H       1  <O>11       0.0675
  48 H19       1.8481   -12.0089    -5.5570  H       1  <O>11       0.0654
@<TRIPOS>BOND
     1     1     2    2
     2     2     3   am
     3     3     4    1
     4     4     5   ar
     5     5     6   ar
     6     6     7   ar
     7     7     8   ar
     8     8     9    1
     9     9    10    1
    10    10    11   ar
    11    11    12   ar
    12    12    13   ar
    13    13    14    2
    14    13    15   ar
    15    15    16   ar
    16    10    16   ar
    17    16    17    1
    18    17    18    1
    19    18    19    1
    20    19    20    1
    21    15    20    1
    22     8    21   ar
    23     4    21   ar
    24     2    22    1
    25    22    23   ar
    26    23    24   ar
    27    24    25    1
    28    24    26   ar
    29    26    27   ar
    30    27    28    1
    31    27    29   ar
    32    22    29   ar
    33     3    30    1
    34     9    31    1
    35     9    32    1
    36    12    33    1
    37    17    34    1
    38    17    35    1
    39    18    36    1
    40    18    37    1
    41    19    38    1
    42    19    39    1
    43    20    40    1
    44    20    41    1
    45     5    42    1
    46     6    43    1
    47     7    44    1
    48    21    45    1
    49    23    46    1
    50    26    47    1
    51    29    48    1
@<TRIPOS>MOLECULE
mol78_1_29
 48 51 0 0 0
SMALL
USER_CHARGES
****
VDW energy = -84.43
@<TRIPOS>ATOM
   1 O1        3.4420    -9.1855    -5.2979  O.2     1  <O>11      -0.2698
   2 C1        2.8552    -9.8129    -4.4288  C.2     1  <O>11       0.2484
   3 N1        3.5160   -10.1860    -3.2900  N.am    1  <O>11      -0.2815
   4 C2        4.8600    -9.8500    -3.1210  C.ar    1  <O>11       0.0339
   5 C3        5.5450   -10.2300    -1.9540  C.ar    1  <O>11      -0.0405
   6 C4        6.8890    -9.8830    -1.7810  C.ar    1  <O>11      -0.0597
   7 C5        7.5610    -9.1580    -2.7680  C.ar    1  <O>11      -0.0581
   8 C6        6.8810    -8.7860    -3.9330  C.ar    1  <O>11      -0.0398
   9 C7        7.5970    -8.0220    -4.9740  C.3     1  <O>11       0.0168
  10 C8        7.4459    -6.5664    -4.7117  C.ar    1  <O>11       0.0693
  11 N2        8.3742    -5.9049    -3.9149  N.ar    1  <O>11      -0.1753
  12 N3        8.2451    -4.5758    -3.6719  N.ar    1  <O>11      -0.2427
  13 C9        7.2048    -3.8982    -4.2003  C.ar    1  <O>11       0.2682
  14 O2        7.1374    -2.5196    -3.9247  O.2     1  <O>11      -0.2661
  15 C10       6.2227    -4.4993    -4.9861  C.ar    1  <O>11       0.0232
  16 C11       6.3753    -5.8684    -5.2640  C.ar    1  <O>11      -0.0158
  17 C12       5.3835    -6.6360    -6.0961  C.3     1  <O>11      -0.0255
  18 C13       4.4802    -5.7332    -6.9331  C.3     1  <O>11      -0.0487
  19 C14       3.9295    -4.6006    -6.0785  C.3     1  <O>11      -0.0486
  20 C15       5.0659    -3.7204    -5.5578  C.3     1  <O>11      -0.0222
  21 C16       5.5410    -9.1290    -4.1160  C.ar    1  <O>11      -0.0369
  22 C17       1.4620   -10.1610    -4.6040  C.ar    1  <O>11       0.0424
  23 C18       0.5946   -10.0837    -3.5126  C.ar    1  <O>11      -0.0142
  24 C19      -0.7516   -10.4309    -3.6727  C.ar    1  <O>11       0.1268
  25 F1       -1.6044   -10.3589    -2.6013  F       1  <O>11      -0.2054
  26 C20      -1.2274   -10.8492    -4.9180  C.ar    1  <O>11       0.0088
  27 C21      -0.3466   -10.9160    -6.0041  C.ar    1  <O>11       0.1268
  28 F2       -0.8191   -11.3266    -7.2240  F       1  <O>11      -0.2054
  29 C22       0.9963   -10.5699    -5.8555  C.ar    1  <O>11      -0.0142
  30 H1        3.0270   -10.7100    -2.5640  H       1  <O>11       0.1551
  31 H2        7.1789    -8.2603    -5.9517  H       1  <O>11       0.0377
  32 H3        8.6534    -8.2868    -4.9568  H       1  <O>11       0.0377
  33 H4        8.9285    -4.1019    -3.0984  H       1  <O>11       0.1921
  34 H5        5.9315    -7.2966    -6.7676  H       1  <O>11       0.0314
  35 H6        4.7589    -7.2311    -5.4301  H       1  <O>11       0.0314
  36 H7        5.0544    -5.3141    -7.7588  H       1  <O>11       0.0268
  37 H8        3.6513    -6.3216    -7.3283  H       1  <O>11       0.0268
  38 H9        3.2543    -3.9937    -6.6809  H       1  <O>11       0.0269
  39 H10       3.3861    -5.0215    -5.2336  H       1  <O>11       0.0269
  40 H11       5.4347    -3.1102    -6.3816  H       1  <O>11       0.0315
  41 H12       4.6685    -3.0731    -4.7756  H       1  <O>11       0.0315
  42 H13       5.0545   -10.7671    -1.2219  H       1  <O>11       0.0636
  43 H14       7.3859   -10.1636    -0.9211  H       1  <O>11       0.0618
  44 H15       8.5515    -8.8987    -2.6389  H       1  <O>11       0.0620
  45 H16       5.0507    -8.8534    -4.9813  H       1  <O>11       0.0639
  46 H17       0.9443    -9.7723    -2.5929  H       1  <O>11       0.0654
  47 H18      -2.2197   -11.1068    -5.0362  H       1  <O>11       0.0675
  48 H19       1.6389   -10.6156    -6.6617  H       1  <O>11       0.0654
@<TRIPOS>BOND
     1     1     2    2
     2     2     3   am
     3     3     4    1
     4     4     5   ar
     5     5     6   ar
     6     6     7   ar
     7     7     8   ar
     8     8     9    1
     9     9    10    1
    10    10    11   ar
    11    11    12   ar
    12    12    13   ar
    13    13    14    2
    14    13    15   ar
    15    15    16   ar
    16    10    16   ar
    17    16    17    1
    18    17    18    1
    19    18    19    1
    20    19    20    1
    21    15    20    1
    22     8    21   ar
    23     4    21   ar
    24     2    22    1
    25    22    23   ar
    26    23    24   ar
    27    24    25    1
    28    24    26   ar
    29    26    27   ar
    30    27    28    1
    31    27    29   ar
    32    22    29   ar
    33     3    30    1
    34     9    31    1
    35     9    32    1
    36    12    33    1
    37    17    34    1
    38    17    35    1
    39    18    36    1
    40    18    37    1
    41    19    38    1
    42    19    39    1
    43    20    40    1
    44    20    41    1
    45     5    42    1
    46     6    43    1
    47     7    44    1
    48    21    45    1
    49    23    46    1
    50    26    47    1
    51    29    48    1
@<TRIPOS>MOLECULE
mol78_1_30
 48 51 0 0 0
SMALL
USER_CHARGES
****
VDW energy = -83.73
@<TRIPOS>ATOM
   1 O1        3.4420    -9.1855    -5.2979  O.2     1  <O>11      -0.2698
   2 C1        2.8552    -9.8129    -4.4288  C.2     1  <O>11       0.2484
   3 N1        3.5160   -10.1860    -3.2900  N.am    1  <O>11      -0.2815
   4 C2        4.8600    -9.8500    -3.1210  C.ar    1  <O>11       0.0339
   5 C3        5.5450   -10.2300    -1.9540  C.ar    1  <O>11      -0.0405
   6 C4        6.8890    -9.8830    -1.7810  C.ar    1  <O>11      -0.0597
   7 C5        7.5610    -9.1580    -2.7680  C.ar    1  <O>11      -0.0581
   8 C6        6.8810    -8.7860    -3.9330  C.ar    1  <O>11      -0.0398
   9 C7        7.5970    -8.0220    -4.9740  C.3     1  <O>11       0.0168
  10 C8        8.0794    -6.7374    -4.4016  C.ar    1  <O>11       0.0693
  11 N2        7.8225    -6.4315    -3.0695  N.ar    1  <O>11      -0.1753
  12 N3        8.2608    -5.2619    -2.5382  N.ar    1  <O>11      -0.2427
  13 C9        8.9409    -4.3903    -3.3117  C.ar    1  <O>11       0.2682
  14 O2        9.3825    -3.2038    -2.6967  O.2     1  <O>11      -0.2661
  15 C10       9.2126    -4.6176    -4.6601  C.ar    1  <O>11       0.0232
  16 C11       8.7869    -5.8431    -5.2004  C.ar    1  <O>11      -0.0158
  17 C12       9.0144    -6.2091    -6.6425  C.3     1  <O>11      -0.0255
  18 C13      10.0870    -5.3543    -7.3138  C.3     1  <O>11      -0.0487
  19 C14       9.8558    -3.8816    -7.0068  C.3     1  <O>11      -0.0486
  20 C15       9.9678    -3.6232    -5.5042  C.3     1  <O>11      -0.0222
  21 C16       5.5410    -9.1290    -4.1160  C.ar    1  <O>11      -0.0369
  22 C17       1.4620   -10.1610    -4.6040  C.ar    1  <O>11       0.0424
  23 C18       0.8010    -9.7730    -5.7710  C.ar    1  <O>11      -0.0142
  24 C19      -0.5500   -10.0960    -5.9410  C.ar    1  <O>11       0.1268
  25 F1       -1.2020    -9.7130    -7.0850  F       1  <O>11      -0.2054
  26 C20      -1.2340   -10.8060    -4.9510  C.ar    1  <O>11       0.0088
  27 C21      -0.5560   -11.1930    -3.7890  C.ar    1  <O>11       0.1268
  28 F2       -1.2320   -11.8900    -2.8210  F       1  <O>11      -0.2054
  29 C22       0.7910   -10.8780    -3.6110  C.ar    1  <O>11      -0.0142
  30 H1        3.0270   -10.7100    -2.5640  H       1  <O>11       0.1551
  31 H2        6.9215    -7.8187    -5.8046  H       1  <O>11       0.0377
  32 H3        8.4466    -8.6027    -5.3309  H       1  <O>11       0.0377
  33 H4        8.0765    -5.0516    -1.5675  H       1  <O>11       0.1921
  34 H5        9.3226    -7.2532    -6.6911  H       1  <O>11       0.0314
  35 H6        8.0779    -6.0806    -7.1849  H       1  <O>11       0.0314
  36 H7       11.0680    -5.6493    -6.9426  H       1  <O>11       0.0268
  37 H8       10.0451    -5.5078    -8.3928  H       1  <O>11       0.0268
  38 H9       10.6037    -3.2857    -7.5288  H       1  <O>11       0.0269
  39 H10       8.8606    -3.5974    -7.3462  H       1  <O>11       0.0269
  40 H11      11.0201    -3.6629    -5.2248  H       1  <O>11       0.0315
  41 H12       9.5739    -2.6280    -5.2962  H       1  <O>11       0.0315
  42 H13       5.0545   -10.7671    -1.2219  H       1  <O>11       0.0636
  43 H14       7.3859   -10.1636    -0.9211  H       1  <O>11       0.0618
  44 H15       8.5515    -8.8987    -2.6389  H       1  <O>11       0.0620
  45 H16       5.0507    -8.8534    -4.9813  H       1  <O>11       0.0639
  46 H17       1.3059    -9.2509    -6.5042  H       1  <O>11       0.0654
  47 H18      -2.2307   -11.0431    -5.0753  H       1  <O>11       0.0675
  48 H19       1.2865   -11.1716    -2.7547  H       1  <O>11       0.0654
@<TRIPOS>BOND
     1     1     2    2
     2     2     3   am
     3     3     4    1
     4     4     5   ar
     5     5     6   ar
     6     6     7   ar
     7     7     8   ar
     8     8     9    1
     9     9    10    1
    10    10    11   ar
    11    11    12   ar
    12    12    13   ar
    13    13    14    2
    14    13    15   ar
    15    15    16   ar
    16    10    16   ar
    17    16    17    1
    18    17    18    1
    19    18    19    1
    20    19    20    1
    21    15    20    1
    22     8    21   ar
    23     4    21   ar
    24     2    22    1
    25    22    23   ar
    26    23    24   ar
    27    24    25    1
    28    24    26   ar
    29    26    27   ar
    30    27    28    1
    31    27    29   ar
    32    22    29   ar
    33     3    30    1
    34     9    31    1
    35     9    32    1
    36    12    33    1
    37    17    34    1
    38    17    35    1
    39    18    36    1
    40    18    37    1
    41    19    38    1
    42    19    39    1
    43    20    40    1
    44    20    41    1
    45     5    42    1
    46     6    43    1
    47     7    44    1
    48    21    45    1
    49    23    46    1
    50    26    47    1
    51    29    48    1
