@<TRIPOS>MOLECULE
mol70_1_1
 46 49 0 0 0
SMALL
USER_CHARGES
****
VDW energy = -116.92
@<TRIPOS>ATOM
   1 O1        3.4420    -9.1855    -5.2979  O.2     1  <O>11      -0.2418
   2 C1        2.8552    -9.8129    -4.4288  C.2     1  <O>11       0.3328
   3 N1        3.5160   -10.1860    -3.2900  N.am    1  <O>11      -0.1668
   4 C2        4.8350    -9.8570    -3.1240  C.2     1  <O>11       0.3148
   5 C3        5.5502    -9.1608    -4.0534  C.2     1  <O>11       0.0147
   6 C4        6.9452    -8.9865    -3.5493  C.3     1  <O>11       0.0359
   7 C5        6.7128    -9.6845    -2.2508  C.2     1  <O>11       0.1407
   8 C6        7.7626    -9.8178    -1.2135  C.3     1  <O>11       0.0541
   9 C7        8.5288   -11.0707    -1.4417  C.ar    1  <O>11       0.0726
  10 N2        8.2006   -11.8996    -2.5069  N.ar    1  <O>11      -0.1752
  11 N3        8.8964   -13.0461    -2.7238  N.ar    1  <O>11      -0.2427
  12 C8        9.9054   -13.3829    -1.8932  C.ar    1  <O>11       0.2682
  13 O2       10.6006   -14.5735    -2.1831  O.2     1  <O>11      -0.2661
  14 C9       10.2738   -12.6126    -0.7904  C.ar    1  <O>11       0.0232
  15 C10       9.5741   -11.4116    -0.5866  C.ar    1  <O>11      -0.0157
  16 C11       9.8714   -10.4943     0.5678  C.3     1  <O>11      -0.0255
  17 C12      11.2304   -10.7601     1.2106  C.3     1  <O>11      -0.0487
  18 C13      11.4171   -12.2512     1.4511  C.3     1  <O>11      -0.0486
  19 C14      11.3985   -13.0151     0.1285  C.3     1  <O>11      -0.0222
  20 N4        5.5358   -10.1842    -2.0506  N.2     1  <O>11      -0.0504
  21 C15       1.4620   -10.1610    -4.6040  C.ar    1  <O>11       0.0616
  22 C16       1.1306   -11.3698    -5.2192  C.ar    1  <O>11      -0.0474
  23 C17      -0.2153   -11.7066    -5.4026  C.ar    1  <O>11      -0.0610
  24 C18      -1.2229   -10.8409    -4.9699  C.ar    1  <O>11      -0.0617
  25 C19      -0.8747    -9.6351    -4.3496  C.ar    1  <O>11      -0.0610
  26 C20       0.4636    -9.2913    -4.1600  C.ar    1  <O>11      -0.0474
  27 H1        3.0270   -10.7100    -2.5640  H       1  <O>11       0.3016
  28 H2        5.2345    -8.7705    -5.0098  H       1  <O>11       0.0657
  29 H3        7.6862    -9.4871    -4.1717  H       1  <O>11       0.0392
  30 H4        7.2222    -7.9405    -3.4240  H       1  <O>11       0.0392
  31 H5        7.2981    -9.8502    -0.2286  H       1  <O>11       0.0411
  32 H6        8.4390    -8.9642    -1.2693  H       1  <O>11       0.0411
  33 H7        8.6549   -13.6387    -3.5052  H       1  <O>11       0.1921
  34 H8        9.8543    -9.4656     0.2060  H       1  <O>11       0.0314
  35 H9        9.0979   -10.6278     1.3247  H       1  <O>11       0.0314
  36 H10      12.0177   -10.4016     0.5475  H       1  <O>11       0.0268
  37 H11      11.2876   -10.2317     2.1636  H       1  <O>11       0.0268
  38 H12      12.3733   -12.4175     1.9472  H       1  <O>11       0.0269
  39 H13      10.6090   -12.6149     2.0865  H       1  <O>11       0.0269
  40 H14      12.3420   -12.8338    -0.3857  H       1  <O>11       0.0315
  41 H15      11.3014   -14.0774     0.3463  H       1  <O>11       0.0315
  42 H16       1.8739   -12.0113    -5.5368  H       1  <O>11       0.0626
  43 H17      -0.4644   -12.5978    -5.8593  H       1  <O>11       0.0618
  44 H18      -2.2155   -11.0882    -5.1063  H       1  <O>11       0.0618
  45 H19      -1.6167    -8.9935    -4.0291  H       1  <O>11       0.0618
  46 H20       0.7134    -8.4037    -3.6966  H       1  <O>11       0.0626
@<TRIPOS>BOND
     1     1     2    2
     2     2     3   am
     3     3     4    1
     4     4     5    2
     5     5     6    1
     6     6     7    1
     7     7     8    1
     8     8     9    1
     9     9    10   ar
    10    10    11   ar
    11    11    12   ar
    12    12    13    2
    13    12    14   ar
    14    14    15   ar
    15     9    15   ar
    16    15    16    1
    17    16    17    1
    18    17    18    1
    19    18    19    1
    20    14    19    1
    21     7    20    2
    22     4    20    1
    23     2    21    1
    24    21    22   ar
    25    22    23   ar
    26    23    24   ar
    27    24    25   ar
    28    25    26   ar
    29    21    26   ar
    30     3    27    1
    31     5    28    1
    32     6    29    1
    33     6    30    1
    34     8    31    1
    35     8    32    1
    36    11    33    1
    37    16    34    1
    38    16    35    1
    39    17    36    1
    40    17    37    1
    41    18    38    1
    42    18    39    1
    43    19    40    1
    44    19    41    1
    45    22    42    1
    46    23    43    1
    47    24    44    1
    48    25    45    1
    49    26    46    1
@<TRIPOS>MOLECULE
mol70_1_2
 46 49 0 0 0
SMALL
USER_CHARGES
****
VDW energy = -111.60
@<TRIPOS>ATOM
   1 O1        3.4420    -9.1855    -5.2979  O.2     1  <O>11      -0.2418
   2 C1        2.8552    -9.8129    -4.4288  C.2     1  <O>11       0.3328
   3 N1        3.5160   -10.1860    -3.2900  N.am    1  <O>11      -0.1668
   4 C2        4.8350    -9.8570    -3.1240  C.2     1  <O>11       0.3148
   5 C3        5.5502    -9.1608    -4.0534  C.2     1  <O>11       0.0147
   6 C4        6.9452    -8.9865    -3.5493  C.3     1  <O>11       0.0359
   7 C5        6.7128    -9.6845    -2.2508  C.2     1  <O>11       0.1407
   8 C6        7.7626    -9.8178    -1.2135  C.3     1  <O>11       0.0541
   9 C7        8.9220   -10.5598    -1.7740  C.ar    1  <O>11       0.0726
  10 N2        9.9519    -9.8676    -2.3980  N.ar    1  <O>11      -0.1752
  11 N3       11.0161   -10.5377    -2.9121  N.ar    1  <O>11      -0.2427
  12 C8       11.0655   -11.8833    -2.8221  C.ar    1  <O>11       0.2682
  13 O2       12.2042   -12.5176    -3.3567  O.2     1  <O>11      -0.2661
  14 C9       10.0570   -12.6451    -2.2322  C.ar    1  <O>11       0.0232
  15 C10       8.9731   -11.9481    -1.6731  C.ar    1  <O>11      -0.0157
  16 C11       7.8195   -12.6522    -1.0127  C.3     1  <O>11      -0.0255
  17 C12       8.1352   -14.0977    -0.6362  C.3     1  <O>11      -0.0487
  18 C13       8.8006   -14.8129    -1.8032  C.3     1  <O>11      -0.0486
  19 C14      10.1308   -14.1483    -2.1525  C.3     1  <O>11      -0.0222
  20 N4        5.5358   -10.1842    -2.0506  N.2     1  <O>11      -0.0504
  21 C15       1.4620   -10.1610    -4.6040  C.ar    1  <O>11       0.0616
  22 C16       0.5946   -10.0837    -3.5126  C.ar    1  <O>11      -0.0474
  23 C17      -0.7516   -10.4309    -3.6727  C.ar    1  <O>11      -0.0610
  24 C18      -1.2274   -10.8492    -4.9180  C.ar    1  <O>11      -0.0617
  25 C19      -0.3466   -10.9160    -6.0041  C.ar    1  <O>11      -0.0610
  26 C20       0.9963   -10.5699    -5.8555  C.ar    1  <O>11      -0.0474
  27 H1        3.0270   -10.7100    -2.5640  H       1  <O>11       0.3016
  28 H2        5.2345    -8.7705    -5.0098  H       1  <O>11       0.0657
  29 H3        7.6862    -9.4871    -4.1717  H       1  <O>11       0.0392
  30 H4        7.2222    -7.9405    -3.4240  H       1  <O>11       0.0392
  31 H5        7.3619   -10.3617    -0.3588  H       1  <O>11       0.0411
  32 H6        8.0866    -8.8264    -0.8950  H       1  <O>11       0.0411
  33 H7       11.7635   -10.0249    -3.3577  H       1  <O>11       0.1921
  34 H8        7.5548   -12.1077    -0.1056  H       1  <O>11       0.0314
  35 H9        6.9729   -12.6499    -1.6997  H       1  <O>11       0.0314
  36 H10       8.8075   -14.1068     0.2216  H       1  <O>11       0.0268
  37 H11       7.2086   -14.6134    -0.3790  H       1  <O>11       0.0268
  38 H12       8.9807   -15.8528    -1.5308  H       1  <O>11       0.0269
  39 H13       8.1410   -14.7726    -2.6705  H       1  <O>11       0.0269
  40 H14      10.8591   -14.4149    -1.3870  H       1  <O>11       0.0315
  41 H15      10.4620   -14.5281    -3.1175  H       1  <O>11       0.0315
  42 H16       0.9443    -9.7723    -2.5929  H       1  <O>11       0.0626
  43 H17      -1.3953   -10.3778    -2.8679  H       1  <O>11       0.0618
  44 H18      -2.2197   -11.1068    -5.0362  H       1  <O>11       0.0618
  45 H19      -0.6950   -11.2248    -6.9251  H       1  <O>11       0.0618
  46 H20       1.6389   -10.6156    -6.6617  H       1  <O>11       0.0626
@<TRIPOS>BOND
     1     1     2    2
     2     2     3   am
     3     3     4    1
     4     4     5    2
     5     5     6    1
     6     6     7    1
     7     7     8    1
     8     8     9    1
     9     9    10   ar
    10    10    11   ar
    11    11    12   ar
    12    12    13    2
    13    12    14   ar
    14    14    15   ar
    15     9    15   ar
    16    15    16    1
    17    16    17    1
    18    17    18    1
    19    18    19    1
    20    14    19    1
    21     7    20    2
    22     4    20    1
    23     2    21    1
    24    21    22   ar
    25    22    23   ar
    26    23    24   ar
    27    24    25   ar
    28    25    26   ar
    29    21    26   ar
    30     3    27    1
    31     5    28    1
    32     6    29    1
    33     6    30    1
    34     8    31    1
    35     8    32    1
    36    11    33    1
    37    16    34    1
    38    16    35    1
    39    17    36    1
    40    17    37    1
    41    18    38    1
    42    18    39    1
    43    19    40    1
    44    19    41    1
    45    22    42    1
    46    23    43    1
    47    24    44    1
    48    25    45    1
    49    26    46    1
@<TRIPOS>MOLECULE
mol70_1_3
 46 49 0 0 0
SMALL
USER_CHARGES
****
VDW energy = -109.76
@<TRIPOS>ATOM
   1 O1        3.4420    -9.1855    -5.2979  O.2     1  <O>11      -0.2418
   2 C1        2.8552    -9.8129    -4.4288  C.2     1  <O>11       0.3328
   3 N1        3.5160   -10.1860    -3.2900  N.am    1  <O>11      -0.1668
   4 C2        4.8350    -9.8570    -3.1240  C.2     1  <O>11       0.3148
   5 C3        5.5518   -10.1960    -2.0144  C.2     1  <O>11       0.0147
   6 C4        6.9431    -9.6753    -2.1679  C.3     1  <O>11       0.0359
   7 C5        6.7246    -9.0898    -3.5231  C.2     1  <O>11       0.1407
   8 C6        7.8029    -8.4257    -4.2926  C.3     1  <O>11       0.0541
   9 C7        7.8250    -6.9761    -3.9651  C.ar    1  <O>11       0.0726
  10 N2        6.9121    -6.4568    -3.0561  N.ar    1  <O>11      -0.1752
  11 N3        6.9260    -5.1333    -2.7499  N.ar    1  <O>11      -0.2427
  12 C8        7.8269    -4.3201    -3.3401  C.ar    1  <O>11       0.2682
  13 O2        7.8029    -2.9621    -2.9658  O.2     1  <O>11      -0.2661
  14 C9        8.7559    -4.7668    -4.2796  C.ar    1  <O>11       0.0232
  15 C10       8.7609    -6.1411    -4.5709  C.ar    1  <O>11      -0.0157
  16 C11       9.7091    -6.7477    -5.5685  C.3     1  <O>11      -0.0255
  17 C12      10.8985    -5.8463    -5.8906  C.3     1  <O>11      -0.0487
  18 C13      10.4242    -4.4269    -6.1673  C.3     1  <O>11      -0.0486
  19 C14       9.7460    -3.8368    -4.9324  C.3     1  <O>11      -0.0222
  20 N4        5.5335    -9.1807    -4.0213  N.2     1  <O>11      -0.0504
  21 C15       1.4620   -10.1610    -4.6040  C.ar    1  <O>11       0.0616
  22 C16       1.1306   -11.3698    -5.2192  C.ar    1  <O>11      -0.0474
  23 C17      -0.2153   -11.7066    -5.4026  C.ar    1  <O>11      -0.0610
  24 C18      -1.2229   -10.8409    -4.9699  C.ar    1  <O>11      -0.0617
  25 C19      -0.8747    -9.6351    -4.3496  C.ar    1  <O>11      -0.0610
  26 C20       0.4636    -9.2913    -4.1600  C.ar    1  <O>11      -0.0474
  27 H1        3.0270   -10.7100    -2.5640  H       1  <O>11       0.3016
  28 H2        5.2391   -10.7431    -1.1371  H       1  <O>11       0.0657
  29 H3        7.1999    -8.9258    -1.4198  H       1  <O>11       0.0392
  30 H4        7.6934   -10.4651    -2.1638  H       1  <O>11       0.0392
  31 H5        7.6206    -8.5546    -5.3589  H       1  <O>11       0.0411
  32 H6        8.7633    -8.8710    -4.0307  H       1  <O>11       0.0411
  33 H7        6.2627    -4.7663    -2.0823  H       1  <O>11       0.1921
  34 H8       10.0861    -7.6866    -5.1615  H       1  <O>11       0.0314
  35 H9        9.1626    -6.9435    -6.4915  H       1  <O>11       0.0314
  36 H10      11.5828    -5.8377    -5.0423  H       1  <O>11       0.0268
  37 H11      11.4143    -6.2317    -6.7715  H       1  <O>11       0.0268
  38 H12      11.2809    -3.8084    -6.4352  H       1  <O>11       0.0269
  39 H13       9.7133    -4.4421    -6.9939  H       1  <O>11       0.0269
  40 H14      10.5168    -3.5905    -4.2024  H       1  <O>11       0.0315
  41 H15       9.2223    -2.9294    -5.2283  H       1  <O>11       0.0315
  42 H16       1.8739   -12.0113    -5.5368  H       1  <O>11       0.0626
  43 H17      -0.4644   -12.5978    -5.8593  H       1  <O>11       0.0618
  44 H18      -2.2155   -11.0882    -5.1063  H       1  <O>11       0.0618
  45 H19      -1.6167    -8.9935    -4.0291  H       1  <O>11       0.0618
  46 H20       0.7134    -8.4037    -3.6966  H       1  <O>11       0.0626
@<TRIPOS>BOND
     1     1     2    2
     2     2     3   am
     3     3     4    1
     4     4     5    2
     5     5     6    1
     6     6     7    1
     7     7     8    1
     8     8     9    1
     9     9    10   ar
    10    10    11   ar
    11    11    12   ar
    12    12    13    2
    13    12    14   ar
    14    14    15   ar
    15     9    15   ar
    16    15    16    1
    17    16    17    1
    18    17    18    1
    19    18    19    1
    20    14    19    1
    21     7    20    2
    22     4    20    1
    23     2    21    1
    24    21    22   ar
    25    22    23   ar
    26    23    24   ar
    27    24    25   ar
    28    25    26   ar
    29    21    26   ar
    30     3    27    1
    31     5    28    1
    32     6    29    1
    33     6    30    1
    34     8    31    1
    35     8    32    1
    36    11    33    1
    37    16    34    1
    38    16    35    1
    39    17    36    1
    40    17    37    1
    41    18    38    1
    42    18    39    1
    43    19    40    1
    44    19    41    1
    45    22    42    1
    46    23    43    1
    47    24    44    1
    48    25    45    1
    49    26    46    1
@<TRIPOS>MOLECULE
mol70_1_4
 46 49 0 0 0
SMALL
USER_CHARGES
****
VDW energy = -109.16
@<TRIPOS>ATOM
   1 O1        3.4420    -9.1855    -5.2979  O.2     1  <O>11      -0.2418
   2 C1        2.8552    -9.8129    -4.4288  C.2     1  <O>11       0.3328
   3 N1        3.5160   -10.1860    -3.2900  N.am    1  <O>11      -0.1668
   4 C2        4.8350    -9.8570    -3.1240  C.2     1  <O>11       0.3148
   5 C3        5.5500    -9.1600    -4.0530  C.2     1  <O>11       0.0147
   6 C4        6.9450    -8.9860    -3.5490  C.3     1  <O>11       0.0359
   7 C5        6.7130    -9.6850    -2.2510  C.2     1  <O>11       0.1407
   8 C6        7.7630    -9.8190    -1.2140  C.3     1  <O>11       0.0541
   9 C7        8.5292   -11.0717    -1.4434  C.ar    1  <O>11       0.0726
  10 N2        8.2009   -11.8998    -2.5091  N.ar    1  <O>11      -0.1752
  11 N3        8.8968   -13.0460    -2.7271  N.ar    1  <O>11      -0.2427
  12 C8        9.9059   -13.3833    -1.8969  C.ar    1  <O>11       0.2682
  13 O2       10.6013   -14.5736    -2.1878  O.2     1  <O>11      -0.2661
  14 C9       10.2745   -12.6139    -0.7936  C.ar    1  <O>11       0.0232
  15 C10       9.5747   -11.4131    -0.5887  C.ar    1  <O>11      -0.0157
  16 C11       9.8721   -10.4967     0.5663  C.3     1  <O>11      -0.0255
  17 C12      11.2314   -10.7628     1.2087  C.3     1  <O>11      -0.0487
  18 C13      11.4182   -12.2541     1.4480  C.3     1  <O>11      -0.0486
  19 C14      11.3994   -13.0170     0.1248  C.3     1  <O>11      -0.0222
  20 N4        5.5360   -10.1850    -2.0510  N.2     1  <O>11      -0.0504
  21 C15       1.4620   -10.1610    -4.6040  C.ar    1  <O>11       0.0616
  22 C16       0.8010    -9.7730    -5.7710  C.ar    1  <O>11      -0.0474
  23 C17      -0.5500   -10.0960    -5.9410  C.ar    1  <O>11      -0.0610
  24 C18      -1.2340   -10.8060    -4.9510  C.ar    1  <O>11      -0.0617
  25 C19      -0.5560   -11.1930    -3.7890  C.ar    1  <O>11      -0.0610
  26 C20       0.7910   -10.8780    -3.6110  C.ar    1  <O>11      -0.0474
  27 H1        3.0270   -10.7100    -2.5640  H       1  <O>11       0.3016
  28 H2        5.2340    -8.7690    -5.0090  H       1  <O>11       0.0657
  29 H3        7.6860    -9.4860    -4.1720  H       1  <O>11       0.0392
  30 H4        7.2220    -7.9400    -3.4230  H       1  <O>11       0.0392
  31 H5        7.2987    -9.8522    -0.2290  H       1  <O>11       0.0411
  32 H6        8.4393    -8.9653    -1.2693  H       1  <O>11       0.0411
  33 H7        8.6552   -13.6381    -3.5089  H       1  <O>11       0.1921
  34 H8        9.8549    -9.4677     0.2054  H       1  <O>11       0.0314
  35 H9        9.0989   -10.6308     1.3232  H       1  <O>11       0.0314
  36 H10      12.0184   -10.4037     0.5457  H       1  <O>11       0.0268
  37 H11      11.2886   -10.2352     2.1620  H       1  <O>11       0.0268
  38 H12      12.3745   -12.4207     1.9437  H       1  <O>11       0.0269
  39 H13      10.6103   -12.6184     2.0833  H       1  <O>11       0.0269
  40 H14      12.3428   -12.8352    -0.3895  H       1  <O>11       0.0315
  41 H15      11.3024   -14.0794     0.3418  H       1  <O>11       0.0315
  42 H16       1.3059    -9.2509    -6.5042  H       1  <O>11       0.0626
  43 H17      -1.0429    -9.8087    -6.8009  H       1  <O>11       0.0618
  44 H18      -2.2307   -11.0431    -5.0753  H       1  <O>11       0.0618
  45 H19      -1.0585   -11.7173    -3.0558  H       1  <O>11       0.0618
  46 H20       1.2865   -11.1716    -2.7547  H       1  <O>11       0.0626
@<TRIPOS>BOND
     1     1     2    2
     2     2     3   am
     3     3     4    1
     4     4     5    2
     5     5     6    1
     6     6     7    1
     7     7     8    1
     8     8     9    1
     9     9    10   ar
    10    10    11   ar
    11    11    12   ar
    12    12    13    2
    13    12    14   ar
    14    14    15   ar
    15     9    15   ar
    16    15    16    1
    17    16    17    1
    18    17    18    1
    19    18    19    1
    20    14    19    1
    21     7    20    2
    22     4    20    1
    23     2    21    1
    24    21    22   ar
    25    22    23   ar
    26    23    24   ar
    27    24    25   ar
    28    25    26   ar
    29    21    26   ar
    30     3    27    1
    31     5    28    1
    32     6    29    1
    33     6    30    1
    34     8    31    1
    35     8    32    1
    36    11    33    1
    37    16    34    1
    38    16    35    1
    39    17    36    1
    40    17    37    1
    41    18    38    1
    42    18    39    1
    43    19    40    1
    44    19    41    1
    45    22    42    1
    46    23    43    1
    47    24    44    1
    48    25    45    1
    49    26    46    1
@<TRIPOS>MOLECULE
mol70_1_5
 46 49 0 0 0
SMALL
USER_CHARGES
****
VDW energy = -109.14
@<TRIPOS>ATOM
   1 O1        3.4420    -9.1855    -5.2979  O.2     1  <O>11      -0.2418
   2 C1        2.8552    -9.8129    -4.4288  C.2     1  <O>11       0.3328
   3 N1        3.5160   -10.1860    -3.2900  N.am    1  <O>11      -0.1668
   4 C2        4.8350    -9.8570    -3.1240  C.2     1  <O>11       0.3148
   5 C3        5.5500    -9.1600    -4.0530  C.2     1  <O>11       0.0147
   6 C4        6.9450    -8.9860    -3.5490  C.3     1  <O>11       0.0359
   7 C5        6.7130    -9.6850    -2.2510  C.2     1  <O>11       0.1407
   8 C6        7.7630    -9.8190    -1.2140  C.3     1  <O>11       0.0541
   9 C7        7.6992    -8.6560    -0.2909  C.ar    1  <O>11       0.0726
  10 N2        6.7471    -7.6645    -0.4898  N.ar    1  <O>11      -0.1752
  11 N3        6.6807    -6.5985     0.3499  N.ar    1  <O>11      -0.2427
  12 C8        7.5514    -6.5012     1.3764  C.ar    1  <O>11       0.2682
  13 O2        7.4184    -5.3826     2.2226  O.2     1  <O>11      -0.2661
  14 C9        8.5486    -7.4449     1.6219  C.ar    1  <O>11       0.0232
  15 C10       8.5950    -8.5623     0.7717  C.ar    1  <O>11      -0.0157
  16 C11       9.6243    -9.6480     0.9269  C.3     1  <O>11      -0.0255
  17 C12      10.3011    -9.6417     2.2954  C.3     1  <O>11      -0.0487
  18 C13      10.7303    -8.2291     2.6646  C.3     1  <O>11      -0.0486
  19 C14       9.5158    -7.3087     2.7697  C.3     1  <O>11      -0.0222
  20 N4        5.5360   -10.1850    -2.0510  N.2     1  <O>11      -0.0504
  21 C15       1.4620   -10.1610    -4.6040  C.ar    1  <O>11       0.0616
  22 C16       0.8010    -9.7730    -5.7710  C.ar    1  <O>11      -0.0474
  23 C17      -0.5500   -10.0960    -5.9410  C.ar    1  <O>11      -0.0610
  24 C18      -1.2340   -10.8060    -4.9510  C.ar    1  <O>11      -0.0617
  25 C19      -0.5560   -11.1930    -3.7890  C.ar    1  <O>11      -0.0610
  26 C20       0.7910   -10.8780    -3.6110  C.ar    1  <O>11      -0.0474
  27 H1        3.0270   -10.7100    -2.5640  H       1  <O>11       0.3016
  28 H2        5.2340    -8.7690    -5.0090  H       1  <O>11       0.0657
  29 H3        7.6860    -9.4860    -4.1720  H       1  <O>11       0.0392
  30 H4        7.2220    -7.9400    -3.4230  H       1  <O>11       0.0392
  31 H5        8.7421    -9.8515    -1.6905  H       1  <O>11       0.0411
  32 H6        7.6015   -10.7384    -0.6502  H       1  <O>11       0.0411
  33 H7        5.9802    -5.8863     0.2013  H       1  <O>11       0.1921
  34 H8        9.1344   -10.6123     0.7871  H       1  <O>11       0.0314
  35 H9       10.3889    -9.5128     0.1615  H       1  <O>11       0.0314
  36 H10       9.6009   -10.0119     3.0442  H       1  <O>11       0.0268
  37 H11      11.1792   -10.2888     2.2659  H       1  <O>11       0.0268
  38 H12      11.2473    -8.2505     3.6239  H       1  <O>11       0.0269
  39 H13      11.4037    -7.8476     1.8964  H       1  <O>11       0.0269
  40 H14       8.9864    -7.5434     3.6928  H       1  <O>11       0.0315
  41 H15       9.8667    -6.2787     2.8035  H       1  <O>11       0.0315
  42 H16       1.3059    -9.2509    -6.5042  H       1  <O>11       0.0626
  43 H17      -1.0429    -9.8087    -6.8009  H       1  <O>11       0.0618
  44 H18      -2.2307   -11.0431    -5.0753  H       1  <O>11       0.0618
  45 H19      -1.0585   -11.7173    -3.0558  H       1  <O>11       0.0618
  46 H20       1.2865   -11.1716    -2.7547  H       1  <O>11       0.0626
@<TRIPOS>BOND
     1     1     2    2
     2     2     3   am
     3     3     4    1
     4     4     5    2
     5     5     6    1
     6     6     7    1
     7     7     8    1
     8     8     9    1
     9     9    10   ar
    10    10    11   ar
    11    11    12   ar
    12    12    13    2
    13    12    14   ar
    14    14    15   ar
    15     9    15   ar
    16    15    16    1
    17    16    17    1
    18    17    18    1
    19    18    19    1
    20    14    19    1
    21     7    20    2
    22     4    20    1
    23     2    21    1
    24    21    22   ar
    25    22    23   ar
    26    23    24   ar
    27    24    25   ar
    28    25    26   ar
    29    21    26   ar
    30     3    27    1
    31     5    28    1
    32     6    29    1
    33     6    30    1
    34     8    31    1
    35     8    32    1
    36    11    33    1
    37    16    34    1
    38    16    35    1
    39    17    36    1
    40    17    37    1
    41    18    38    1
    42    18    39    1
    43    19    40    1
    44    19    41    1
    45    22    42    1
    46    23    43    1
    47    24    44    1
    48    25    45    1
    49    26    46    1
@<TRIPOS>MOLECULE
mol70_1_6
 46 49 0 0 0
SMALL
USER_CHARGES
****
VDW energy = -107.02
@<TRIPOS>ATOM
   1 O1        3.4420    -9.1855    -5.2979  O.2     1  <O>11      -0.2418
   2 C1        2.8552    -9.8129    -4.4288  C.2     1  <O>11       0.3328
   3 N1        3.5160   -10.1860    -3.2900  N.am    1  <O>11      -0.1668
   4 C2        4.8350    -9.8570    -3.1240  C.2     1  <O>11       0.3148
   5 C3        5.5502    -9.1608    -4.0534  C.2     1  <O>11       0.0147
   6 C4        6.9452    -8.9865    -3.5493  C.3     1  <O>11       0.0359
   7 C5        6.7128    -9.6845    -2.2508  C.2     1  <O>11       0.1407
   8 C6        7.7626    -9.8178    -1.2135  C.3     1  <O>11       0.0541
   9 C7        8.9220   -10.5598    -1.7740  C.ar    1  <O>11       0.0726
  10 N2        8.9735   -11.9441    -1.6729  N.ar    1  <O>11      -0.1752
  11 N3       10.0288   -12.6306    -2.1836  N.ar    1  <O>11      -0.2427
  12 C8       11.0346   -11.9604    -2.7839  C.ar    1  <O>11       0.2682
  13 O2       12.0904   -12.7306    -3.3103  O.2     1  <O>11      -0.2661
  14 C9       11.0621   -10.5708    -2.8994  C.ar    1  <O>11       0.0232
  15 C10       9.9550    -9.8654    -2.3992  C.ar    1  <O>11      -0.0157
  16 C11       9.8645    -8.3651    -2.4580  C.3     1  <O>11      -0.0255
  17 C12      10.8374    -7.7443    -3.4575  C.3     1  <O>11      -0.0487
  18 C13      12.2255    -8.3434    -3.2835  C.3     1  <O>11      -0.0486
  19 C14      12.2020    -9.8444    -3.5659  C.3     1  <O>11      -0.0222
  20 N4        5.5358   -10.1842    -2.0506  N.2     1  <O>11      -0.0504
  21 C15       1.4620   -10.1610    -4.6040  C.ar    1  <O>11       0.0616
  22 C16       0.5946   -10.0837    -3.5126  C.ar    1  <O>11      -0.0474
  23 C17      -0.7516   -10.4309    -3.6727  C.ar    1  <O>11      -0.0610
  24 C18      -1.2274   -10.8492    -4.9180  C.ar    1  <O>11      -0.0617
  25 C19      -0.3466   -10.9160    -6.0041  C.ar    1  <O>11      -0.0610
  26 C20       0.9963   -10.5699    -5.8555  C.ar    1  <O>11      -0.0474
  27 H1        3.0270   -10.7100    -2.5640  H       1  <O>11       0.3016
  28 H2        5.2345    -8.7705    -5.0098  H       1  <O>11       0.0657
  29 H3        7.6862    -9.4871    -4.1717  H       1  <O>11       0.0392
  30 H4        7.2222    -7.9405    -3.4240  H       1  <O>11       0.0392
  31 H5        7.3619   -10.3617    -0.3588  H       1  <O>11       0.0411
  32 H6        8.0866    -8.8264    -0.8950  H       1  <O>11       0.0411
  33 H7       10.0538   -13.6378    -2.1115  H       1  <O>11       0.1921
  34 H8        8.8492    -8.0904    -2.7463  H       1  <O>11       0.0314
  35 H9       10.0834    -7.9655    -1.4674  H       1  <O>11       0.0314
  36 H10      10.4856    -7.9403    -4.4704  H       1  <O>11       0.0268
  37 H11      10.8866    -6.6671    -3.2906  H       1  <O>11       0.0268
  38 H12      12.9143    -7.8596    -3.9760  H       1  <O>11       0.0269
  39 H13      12.5614    -8.1766    -2.2596  H       1  <O>11       0.0269
  40 H14      12.1173    -9.9896    -4.6427  H       1  <O>11       0.0315
  41 H15      13.1376   -10.2753    -3.2135  H       1  <O>11       0.0315
  42 H16       0.9443    -9.7723    -2.5929  H       1  <O>11       0.0626
  43 H17      -1.3953   -10.3778    -2.8679  H       1  <O>11       0.0618
  44 H18      -2.2197   -11.1068    -5.0362  H       1  <O>11       0.0618
  45 H19      -0.6950   -11.2248    -6.9251  H       1  <O>11       0.0618
  46 H20       1.6389   -10.6156    -6.6617  H       1  <O>11       0.0626
@<TRIPOS>BOND
     1     1     2    2
     2     2     3   am
     3     3     4    1
     4     4     5    2
     5     5     6    1
     6     6     7    1
     7     7     8    1
     8     8     9    1
     9     9    10   ar
    10    10    11   ar
    11    11    12   ar
    12    12    13    2
    13    12    14   ar
    14    14    15   ar
    15     9    15   ar
    16    15    16    1
    17    16    17    1
    18    17    18    1
    19    18    19    1
    20    14    19    1
    21     7    20    2
    22     4    20    1
    23     2    21    1
    24    21    22   ar
    25    22    23   ar
    26    23    24   ar
    27    24    25   ar
    28    25    26   ar
    29    21    26   ar
    30     3    27    1
    31     5    28    1
    32     6    29    1
    33     6    30    1
    34     8    31    1
    35     8    32    1
    36    11    33    1
    37    16    34    1
    38    16    35    1
    39    17    36    1
    40    17    37    1
    41    18    38    1
    42    18    39    1
    43    19    40    1
    44    19    41    1
    45    22    42    1
    46    23    43    1
    47    24    44    1
    48    25    45    1
    49    26    46    1
@<TRIPOS>MOLECULE
mol70_1_7
 46 49 0 0 0
SMALL
USER_CHARGES
****
VDW energy = -106.91
@<TRIPOS>ATOM
   1 O1        3.4420    -9.1855    -5.2979  O.2     1  <O>11      -0.2418
   2 C1        2.8552    -9.8129    -4.4288  C.2     1  <O>11       0.3328
   3 N1        3.5160   -10.1860    -3.2900  N.am    1  <O>11      -0.1668
   4 C2        4.8350    -9.8570    -3.1240  C.2     1  <O>11       0.3148
   5 C3        5.5518   -10.1960    -2.0144  C.2     1  <O>11       0.0147
   6 C4        6.9431    -9.6753    -2.1679  C.3     1  <O>11       0.0359
   7 C5        6.7246    -9.0898    -3.5231  C.2     1  <O>11       0.1407
   8 C6        7.8029    -8.4257    -4.2926  C.3     1  <O>11       0.0541
   9 C7        7.8250    -6.9761    -3.9651  C.ar    1  <O>11       0.0726
  10 N2        6.9122    -6.4568    -3.0560  N.ar    1  <O>11      -0.1752
  11 N3        6.9261    -5.1333    -2.7498  N.ar    1  <O>11      -0.2427
  12 C8        7.8269    -4.3201    -3.3401  C.ar    1  <O>11       0.2682
  13 O2        7.8029    -2.9621    -2.9658  O.2     1  <O>11      -0.2661
  14 C9        8.7558    -4.7668    -4.2797  C.ar    1  <O>11       0.0232
  15 C10       8.7608    -6.1410    -4.5710  C.ar    1  <O>11      -0.0157
  16 C11       9.7089    -6.7477    -5.5687  C.3     1  <O>11      -0.0255
  17 C12      10.8982    -5.8462    -5.8910  C.3     1  <O>11      -0.0487
  18 C13      10.4239    -4.4268    -6.1676  C.3     1  <O>11      -0.0486
  19 C14       9.7458    -3.8367    -4.9327  C.3     1  <O>11      -0.0222
  20 N4        5.5335    -9.1807    -4.0213  N.2     1  <O>11      -0.0504
  21 C15       1.4620   -10.1610    -4.6040  C.ar    1  <O>11       0.0616
  22 C16       0.5946   -10.0837    -3.5126  C.ar    1  <O>11      -0.0474
  23 C17      -0.7516   -10.4309    -3.6727  C.ar    1  <O>11      -0.0610
  24 C18      -1.2274   -10.8492    -4.9180  C.ar    1  <O>11      -0.0617
  25 C19      -0.3466   -10.9160    -6.0041  C.ar    1  <O>11      -0.0610
  26 C20       0.9963   -10.5699    -5.8555  C.ar    1  <O>11      -0.0474
  27 H1        3.0270   -10.7100    -2.5640  H       1  <O>11       0.3016
  28 H2        5.2391   -10.7431    -1.1371  H       1  <O>11       0.0657
  29 H3        7.1999    -8.9258    -1.4198  H       1  <O>11       0.0392
  30 H4        7.6934   -10.4651    -2.1638  H       1  <O>11       0.0392
  31 H5        7.6206    -8.5546    -5.3589  H       1  <O>11       0.0411
  32 H6        8.7633    -8.8710    -4.0307  H       1  <O>11       0.0411
  33 H7        6.2629    -4.7664    -2.0821  H       1  <O>11       0.1921
  34 H8       10.0860    -7.6866    -5.1618  H       1  <O>11       0.0314
  35 H9        9.1623    -6.9434    -6.4917  H       1  <O>11       0.0314
  36 H10      11.5826    -5.8376    -5.0427  H       1  <O>11       0.0268
  37 H11      11.4140    -6.2316    -6.7719  H       1  <O>11       0.0268
  38 H12      11.2805    -3.8083    -6.4356  H       1  <O>11       0.0269
  39 H13       9.7128    -4.4420    -6.9941  H       1  <O>11       0.0269
  40 H14      10.5167    -3.5905    -4.2027  H       1  <O>11       0.0315
  41 H15       9.2220    -2.9293    -5.2285  H       1  <O>11       0.0315
  42 H16       0.9443    -9.7723    -2.5929  H       1  <O>11       0.0626
  43 H17      -1.3953   -10.3778    -2.8679  H       1  <O>11       0.0618
  44 H18      -2.2197   -11.1068    -5.0362  H       1  <O>11       0.0618
  45 H19      -0.6950   -11.2248    -6.9251  H       1  <O>11       0.0618
  46 H20       1.6389   -10.6156    -6.6617  H       1  <O>11       0.0626
@<TRIPOS>BOND
     1     1     2    2
     2     2     3   am
     3     3     4    1
     4     4     5    2
     5     5     6    1
     6     6     7    1
     7     7     8    1
     8     8     9    1
     9     9    10   ar
    10    10    11   ar
    11    11    12   ar
    12    12    13    2
    13    12    14   ar
    14    14    15   ar
    15     9    15   ar
    16    15    16    1
    17    16    17    1
    18    17    18    1
    19    18    19    1
    20    14    19    1
    21     7    20    2
    22     4    20    1
    23     2    21    1
    24    21    22   ar
    25    22    23   ar
    26    23    24   ar
    27    24    25   ar
    28    25    26   ar
    29    21    26   ar
    30     3    27    1
    31     5    28    1
    32     6    29    1
    33     6    30    1
    34     8    31    1
    35     8    32    1
    36    11    33    1
    37    16    34    1
    38    16    35    1
    39    17    36    1
    40    17    37    1
    41    18    38    1
    42    18    39    1
    43    19    40    1
    44    19    41    1
    45    22    42    1
    46    23    43    1
    47    24    44    1
    48    25    45    1
    49    26    46    1
@<TRIPOS>MOLECULE
mol70_1_8
 46 49 0 0 0
SMALL
USER_CHARGES
****
VDW energy = -106.88
@<TRIPOS>ATOM
   1 O1        3.4420    -9.1855    -5.2979  O.2     1  <O>11      -0.2418
   2 C1        2.8552    -9.8129    -4.4288  C.2     1  <O>11       0.3328
   3 N1        3.5160   -10.1860    -3.2900  N.am    1  <O>11      -0.1668
   4 C2        4.8350    -9.8570    -3.1240  C.2     1  <O>11       0.3148
   5 C3        5.5518   -10.1960    -2.0144  C.2     1  <O>11       0.0147
   6 C4        6.9431    -9.6753    -2.1679  C.3     1  <O>11       0.0359
   7 C5        6.7246    -9.0898    -3.5231  C.2     1  <O>11       0.1407
   8 C6        7.8029    -8.4257    -4.2926  C.3     1  <O>11       0.0541
   9 C7        7.8250    -6.9761    -3.9651  C.ar    1  <O>11       0.0726
  10 N2        6.9121    -6.4568    -3.0561  N.ar    1  <O>11      -0.1752
  11 N3        6.9260    -5.1333    -2.7499  N.ar    1  <O>11      -0.2427
  12 C8        7.8269    -4.3201    -3.3401  C.ar    1  <O>11       0.2682
  13 O2        7.8029    -2.9621    -2.9658  O.2     1  <O>11      -0.2661
  14 C9        8.7559    -4.7668    -4.2796  C.ar    1  <O>11       0.0232
  15 C10       8.7609    -6.1411    -4.5709  C.ar    1  <O>11      -0.0157
  16 C11       9.7091    -6.7477    -5.5685  C.3     1  <O>11      -0.0255
  17 C12      10.8985    -5.8463    -5.8906  C.3     1  <O>11      -0.0487
  18 C13      10.4242    -4.4269    -6.1673  C.3     1  <O>11      -0.0486
  19 C14       9.7460    -3.8368    -4.9324  C.3     1  <O>11      -0.0222
  20 N4        5.5335    -9.1807    -4.0213  N.2     1  <O>11      -0.0504
  21 C15       1.4620   -10.1610    -4.6040  C.ar    1  <O>11       0.0616
  22 C16       1.0134   -11.4175    -4.1926  C.ar    1  <O>11      -0.0474
  23 C17      -0.3305   -11.7649    -4.3706  C.ar    1  <O>11      -0.0610
  24 C18      -1.2205   -10.8590    -4.9532  C.ar    1  <O>11      -0.0617
  25 C19      -0.7568    -9.6008    -5.3553  C.ar    1  <O>11      -0.0610
  26 C20       0.5801    -9.2441    -5.1802  C.ar    1  <O>11      -0.0474
  27 H1        3.0270   -10.7100    -2.5640  H       1  <O>11       0.3016
  28 H2        5.2391   -10.7431    -1.1371  H       1  <O>11       0.0657
  29 H3        7.1999    -8.9258    -1.4198  H       1  <O>11       0.0392
  30 H4        7.6934   -10.4651    -2.1638  H       1  <O>11       0.0392
  31 H5        7.6206    -8.5546    -5.3589  H       1  <O>11       0.0411
  32 H6        8.7633    -8.8710    -4.0307  H       1  <O>11       0.0411
  33 H7        6.2627    -4.7663    -2.0823  H       1  <O>11       0.1921
  34 H8       10.0861    -7.6866    -5.1615  H       1  <O>11       0.0314
  35 H9        9.1626    -6.9435    -6.4915  H       1  <O>11       0.0314
  36 H10      11.5828    -5.8377    -5.0423  H       1  <O>11       0.0268
  37 H11      11.4143    -6.2317    -6.7715  H       1  <O>11       0.0268
  38 H12      11.2809    -3.8084    -6.4352  H       1  <O>11       0.0269
  39 H13       9.7133    -4.4421    -6.9939  H       1  <O>11       0.0269
  40 H14      10.5168    -3.5905    -4.2024  H       1  <O>11       0.0315
  41 H15       9.2223    -2.9294    -5.2283  H       1  <O>11       0.0315
  42 H16       1.6693   -12.0865    -3.7596  H       1  <O>11       0.0626
  43 H17      -0.6655   -12.6936    -4.0704  H       1  <O>11       0.0618
  44 H18      -2.2113   -11.1153    -5.0861  H       1  <O>11       0.0618
  45 H19      -1.4117    -8.9296    -5.7862  H       1  <O>11       0.0618
  46 H20       0.9141    -8.3127    -5.4733  H       1  <O>11       0.0626
@<TRIPOS>BOND
     1     1     2    2
     2     2     3   am
     3     3     4    1
     4     4     5    2
     5     5     6    1
     6     6     7    1
     7     7     8    1
     8     8     9    1
     9     9    10   ar
    10    10    11   ar
    11    11    12   ar
    12    12    13    2
    13    12    14   ar
    14    14    15   ar
    15     9    15   ar
    16    15    16    1
    17    16    17    1
    18    17    18    1
    19    18    19    1
    20    14    19    1
    21     7    20    2
    22     4    20    1
    23     2    21    1
    24    21    22   ar
    25    22    23   ar
    26    23    24   ar
    27    24    25   ar
    28    25    26   ar
    29    21    26   ar
    30     3    27    1
    31     5    28    1
    32     6    29    1
    33     6    30    1
    34     8    31    1
    35     8    32    1
    36    11    33    1
    37    16    34    1
    38    16    35    1
    39    17    36    1
    40    17    37    1
    41    18    38    1
    42    18    39    1
    43    19    40    1
    44    19    41    1
    45    22    42    1
    46    23    43    1
    47    24    44    1
    48    25    45    1
    49    26    46    1
@<TRIPOS>MOLECULE
mol70_1_9
 46 49 0 0 0
SMALL
USER_CHARGES
****
VDW energy = -106.49
@<TRIPOS>ATOM
   1 O1        3.4420    -9.1855    -5.2979  O.2     1  <O>11      -0.2418
   2 C1        2.8552    -9.8129    -4.4288  C.2     1  <O>11       0.3328
   3 N1        3.5160   -10.1860    -3.2900  N.am    1  <O>11      -0.1668
   4 C2        4.8350    -9.8570    -3.1240  C.2     1  <O>11       0.3148
   5 C3        5.5502    -9.1608    -4.0534  C.2     1  <O>11       0.0147
   6 C4        6.9452    -8.9865    -3.5493  C.3     1  <O>11       0.0359
   7 C5        6.7128    -9.6845    -2.2508  C.2     1  <O>11       0.1407
   8 C6        7.7626    -9.8178    -1.2135  C.3     1  <O>11       0.0541
   9 C7        7.2163   -10.5609    -0.0480  C.ar    1  <O>11       0.0726
  10 N2        7.3177   -11.9453     0.0009  N.ar    1  <O>11      -0.1752
  11 N3        6.8223   -12.6325     1.0630  N.ar    1  <O>11      -0.2427
  12 C8        6.2215   -11.9643     2.0699  C.ar    1  <O>11       0.2682
  13 O2        5.7463   -12.7320     3.1514  O.2     1  <O>11      -0.2661
  14 C9        6.0619   -10.5788     2.0765  C.ar    1  <O>11       0.0232
  15 C10       6.6031    -9.8674     0.9928  C.ar    1  <O>11      -0.0157
  16 C11       6.4943    -8.3716     0.8786  C.3     1  <O>11      -0.0255
  17 C12       6.1451    -7.6928     2.2009  C.3     1  <O>11      -0.0487
  18 C13       4.9893    -8.4172     2.8759  C.3     1  <O>11      -0.0486
  19 C14       5.3782    -9.8563     3.2088  C.3     1  <O>11      -0.0222
  20 N4        5.5358   -10.1842    -2.0506  N.2     1  <O>11      -0.0504
  21 C15       1.4620   -10.1610    -4.6040  C.ar    1  <O>11       0.0616
  22 C16       0.8010    -9.7730    -5.7710  C.ar    1  <O>11      -0.0474
  23 C17      -0.5500   -10.0960    -5.9410  C.ar    1  <O>11      -0.0610
  24 C18      -1.2340   -10.8060    -4.9510  C.ar    1  <O>11      -0.0617
  25 C19      -0.5560   -11.1930    -3.7890  C.ar    1  <O>11      -0.0610
  26 C20       0.7910   -10.8780    -3.6110  C.ar    1  <O>11      -0.0474
  27 H1        3.0270   -10.7100    -2.5640  H       1  <O>11       0.3016
  28 H2        5.2345    -8.7705    -5.0098  H       1  <O>11       0.0657
  29 H3        7.6862    -9.4871    -4.1717  H       1  <O>11       0.0392
  30 H4        7.2222    -7.9405    -3.4240  H       1  <O>11       0.0392
  31 H5        8.0857    -8.8276    -0.8942  H       1  <O>11       0.0411
  32 H6        8.6127   -10.3632    -1.6249  H       1  <O>11       0.0411
  33 H7        6.9072   -13.6385     1.0927  H       1  <O>11       0.1921
  34 H8        7.4507    -7.9802     0.5302  H       1  <O>11       0.0314
  35 H9        5.7167    -8.1351     0.1517  H       1  <O>11       0.0314
  36 H10       7.0153    -7.7149     2.8567  H       1  <O>11       0.0268
  37 H11       5.8587    -6.6575     2.0096  H       1  <O>11       0.0268
  38 H12       4.7275    -7.8951     3.7962  H       1  <O>11       0.0269
  39 H13       4.1304    -8.4242     2.2042  H       1  <O>11       0.0269
  40 H14       6.0553    -9.8400     4.0625  H       1  <O>11       0.0315
  41 H15       4.4751   -10.4047     3.4713  H       1  <O>11       0.0315
  42 H16       1.3059    -9.2509    -6.5042  H       1  <O>11       0.0626
  43 H17      -1.0429    -9.8087    -6.8009  H       1  <O>11       0.0618
  44 H18      -2.2307   -11.0431    -5.0753  H       1  <O>11       0.0618
  45 H19      -1.0585   -11.7173    -3.0558  H       1  <O>11       0.0618
  46 H20       1.2865   -11.1716    -2.7547  H       1  <O>11       0.0626
@<TRIPOS>BOND
     1     1     2    2
     2     2     3   am
     3     3     4    1
     4     4     5    2
     5     5     6    1
     6     6     7    1
     7     7     8    1
     8     8     9    1
     9     9    10   ar
    10    10    11   ar
    11    11    12   ar
    12    12    13    2
    13    12    14   ar
    14    14    15   ar
    15     9    15   ar
    16    15    16    1
    17    16    17    1
    18    17    18    1
    19    18    19    1
    20    14    19    1
    21     7    20    2
    22     4    20    1
    23     2    21    1
    24    21    22   ar
    25    22    23   ar
    26    23    24   ar
    27    24    25   ar
    28    25    26   ar
    29    21    26   ar
    30     3    27    1
    31     5    28    1
    32     6    29    1
    33     6    30    1
    34     8    31    1
    35     8    32    1
    36    11    33    1
    37    16    34    1
    38    16    35    1
    39    17    36    1
    40    17    37    1
    41    18    38    1
    42    18    39    1
    43    19    40    1
    44    19    41    1
    45    22    42    1
    46    23    43    1
    47    24    44    1
    48    25    45    1
    49    26    46    1
@<TRIPOS>MOLECULE
mol70_1_10
 46 49 0 0 0
SMALL
USER_CHARGES
****
VDW energy = -106.05
@<TRIPOS>ATOM
   1 O1        3.4420    -9.1855    -5.2979  O.2     1  <O>11      -0.2418
   2 C1        2.8552    -9.8129    -4.4288  C.2     1  <O>11       0.3328
   3 N1        3.5160   -10.1860    -3.2900  N.am    1  <O>11      -0.1668
   4 C2        4.8350    -9.8570    -3.1240  C.2     1  <O>11       0.3148
   5 C3        5.5518   -10.1960    -2.0144  C.2     1  <O>11       0.0147
   6 C4        6.9431    -9.6753    -2.1679  C.3     1  <O>11       0.0359
   7 C5        6.7246    -9.0898    -3.5231  C.2     1  <O>11       0.1407
   8 C6        7.8029    -8.4257    -4.2926  C.3     1  <O>11       0.0541
   9 C7        7.2640    -7.9533    -5.5946  C.ar    1  <O>11       0.0726
  10 N2        6.7215    -6.6789    -5.6990  N.ar    1  <O>11      -0.1752
  11 N3        6.2278    -6.2384    -6.8856  N.ar    1  <O>11      -0.2427
  12 C8        6.2582    -7.0488    -7.9643  C.ar    1  <O>11       0.2682
  13 O2        5.7491    -6.5267    -9.1697  O.2     1  <O>11      -0.2661
  14 C9        6.7644    -8.3479    -7.9273  C.ar    1  <O>11       0.0232
  15 C10       7.3034    -8.7899    -6.7076  C.ar    1  <O>11      -0.0157
  16 C11       7.8759   -10.1701    -6.5351  C.3     1  <O>11      -0.0255
  17 C12       8.2001   -10.8550    -7.8605  C.3     1  <O>11      -0.0487
  18 C13       7.0341   -10.7098    -8.8278  C.3     1  <O>11      -0.0486
  19 C14       6.7785    -9.2375    -9.1438  C.3     1  <O>11      -0.0222
  20 N4        5.5335    -9.1807    -4.0213  N.2     1  <O>11      -0.0504
  21 C15       1.4620   -10.1610    -4.6040  C.ar    1  <O>11       0.0616
  22 C16       1.1306   -11.3698    -5.2192  C.ar    1  <O>11      -0.0474
  23 C17      -0.2153   -11.7066    -5.4026  C.ar    1  <O>11      -0.0610
  24 C18      -1.2229   -10.8409    -4.9699  C.ar    1  <O>11      -0.0617
  25 C19      -0.8747    -9.6351    -4.3496  C.ar    1  <O>11      -0.0610
  26 C20       0.4636    -9.2913    -4.1600  C.ar    1  <O>11      -0.0474
  27 H1        3.0270   -10.7100    -2.5640  H       1  <O>11       0.3016
  28 H2        5.2391   -10.7431    -1.1371  H       1  <O>11       0.0657
  29 H3        7.1999    -8.9258    -1.4198  H       1  <O>11       0.0392
  30 H4        7.6934   -10.4651    -2.1638  H       1  <O>11       0.0392
  31 H5        8.6119    -9.1335    -4.4694  H       1  <O>11       0.0411
  32 H6        8.1814    -7.5738    -3.7265  H       1  <O>11       0.0411
  33 H7        5.8418    -5.3075    -6.9532  H       1  <O>11       0.1921
  34 H8        8.7936   -10.0939    -5.9508  H       1  <O>11       0.0314
  35 H9        7.1506   -10.7814    -5.9973  H       1  <O>11       0.0314
  36 H10       9.0872   -10.3946    -8.2952  H       1  <O>11       0.0268
  37 H11       8.3896   -11.9146    -7.6814  H       1  <O>11       0.0268
  38 H12       7.2667   -11.2392    -9.7517  H       1  <O>11       0.0269
  39 H13       6.1395   -11.1402    -8.3767  H       1  <O>11       0.0269
  40 H14       7.5644    -8.8888    -9.8135  H       1  <O>11       0.0315
  41 H15       5.8137    -9.1550    -9.6414  H       1  <O>11       0.0315
  42 H16       1.8739   -12.0113    -5.5368  H       1  <O>11       0.0626
  43 H17      -0.4644   -12.5978    -5.8593  H       1  <O>11       0.0618
  44 H18      -2.2155   -11.0882    -5.1063  H       1  <O>11       0.0618
  45 H19      -1.6167    -8.9935    -4.0291  H       1  <O>11       0.0618
  46 H20       0.7134    -8.4037    -3.6966  H       1  <O>11       0.0626
@<TRIPOS>BOND
     1     1     2    2
     2     2     3   am
     3     3     4    1
     4     4     5    2
     5     5     6    1
     6     6     7    1
     7     7     8    1
     8     8     9    1
     9     9    10   ar
    10    10    11   ar
    11    11    12   ar
    12    12    13    2
    13    12    14   ar
    14    14    15   ar
    15     9    15   ar
    16    15    16    1
    17    16    17    1
    18    17    18    1
    19    18    19    1
    20    14    19    1
    21     7    20    2
    22     4    20    1
    23     2    21    1
    24    21    22   ar
    25    22    23   ar
    26    23    24   ar
    27    24    25   ar
    28    25    26   ar
    29    21    26   ar
    30     3    27    1
    31     5    28    1
    32     6    29    1
    33     6    30    1
    34     8    31    1
    35     8    32    1
    36    11    33    1
    37    16    34    1
    38    16    35    1
    39    17    36    1
    40    17    37    1
    41    18    38    1
    42    18    39    1
    43    19    40    1
    44    19    41    1
    45    22    42    1
    46    23    43    1
    47    24    44    1
    48    25    45    1
    49    26    46    1
@<TRIPOS>MOLECULE
mol70_1_11
 46 49 0 0 0
SMALL
USER_CHARGES
****
VDW energy = -104.96
@<TRIPOS>ATOM
   1 O1        3.4420    -9.1855    -5.2979  O.2     1  <O>11      -0.2418
   2 C1        2.8552    -9.8129    -4.4288  C.2     1  <O>11       0.3328
   3 N1        3.5160   -10.1860    -3.2900  N.am    1  <O>11      -0.1668
   4 C2        4.8350    -9.8570    -3.1240  C.2     1  <O>11       0.3148
   5 C3        5.5502    -9.1608    -4.0534  C.2     1  <O>11       0.0147
   6 C4        6.9452    -8.9865    -3.5493  C.3     1  <O>11       0.0359
   7 C5        6.7128    -9.6845    -2.2508  C.2     1  <O>11       0.1407
   8 C6        7.7626    -9.8178    -1.2135  C.3     1  <O>11       0.0541
   9 C7        7.2163   -10.5609    -0.0480  C.ar    1  <O>11       0.0726
  10 N2        5.9003   -11.0047    -0.0639  N.ar    1  <O>11      -0.1752
  11 N3        5.3930   -11.6859     0.9965  N.ar    1  <O>11      -0.2427
  12 C8        6.1718   -11.9231     2.0729  C.ar    1  <O>11       0.2682
  13 O2        5.5935   -12.6512     3.1313  O.2     1  <O>11      -0.2661
  14 C9        7.4928   -11.4862     2.1688  C.ar    1  <O>11       0.0232
  15 C10       8.0251   -10.8101     1.0584  C.ar    1  <O>11      -0.0157
  16 C11       9.4342   -10.2842     1.0372  C.3     1  <O>11      -0.0255
  17 C12      10.3239   -10.9095     2.1089  C.3     1  <O>11      -0.0487
  18 C13       9.6096   -10.9094     3.4527  C.3     1  <O>11      -0.0486
  19 C14       8.3396   -11.7553     3.3861  C.3     1  <O>11      -0.0222
  20 N4        5.5358   -10.1842    -2.0506  N.2     1  <O>11      -0.0504
  21 C15       1.4620   -10.1610    -4.6040  C.ar    1  <O>11       0.0616
  22 C16       1.1306   -11.3698    -5.2192  C.ar    1  <O>11      -0.0474
  23 C17      -0.2153   -11.7066    -5.4026  C.ar    1  <O>11      -0.0610
  24 C18      -1.2229   -10.8409    -4.9699  C.ar    1  <O>11      -0.0617
  25 C19      -0.8747    -9.6351    -4.3496  C.ar    1  <O>11      -0.0610
  26 C20       0.4636    -9.2913    -4.1600  C.ar    1  <O>11      -0.0474
  27 H1        3.0270   -10.7100    -2.5640  H       1  <O>11       0.3016
  28 H2        5.2345    -8.7705    -5.0098  H       1  <O>11       0.0657
  29 H3        7.6862    -9.4871    -4.1717  H       1  <O>11       0.0392
  30 H4        7.2222    -7.9405    -3.4240  H       1  <O>11       0.0392
  31 H5        8.0857    -8.8276    -0.8942  H       1  <O>11       0.0411
  32 H6        8.6127   -10.3632    -1.6249  H       1  <O>11       0.0411
  33 H7        4.4370   -12.0108     0.9726  H       1  <O>11       0.1921
  34 H8        9.8683   -10.4960     0.0595  H       1  <O>11       0.0314
  35 H9        9.4042    -9.2061     1.1974  H       1  <O>11       0.0314
  36 H10      10.5588   -11.9357     1.8267  H       1  <O>11       0.0268
  37 H11      11.2469   -10.3335     2.1916  H       1  <O>11       0.0268
  38 H12      10.2744   -11.3209     4.2122  H       1  <O>11       0.0269
  39 H13       9.3447    -9.8851     3.7169  H       1  <O>11       0.0269
  40 H14       8.6275   -12.8063     3.3770  H       1  <O>11       0.0315
  41 H15       7.7424   -11.5496     4.2729  H       1  <O>11       0.0315
  42 H16       1.8739   -12.0113    -5.5368  H       1  <O>11       0.0626
  43 H17      -0.4644   -12.5978    -5.8593  H       1  <O>11       0.0618
  44 H18      -2.2155   -11.0882    -5.1063  H       1  <O>11       0.0618
  45 H19      -1.6167    -8.9935    -4.0291  H       1  <O>11       0.0618
  46 H20       0.7134    -8.4037    -3.6966  H       1  <O>11       0.0626
@<TRIPOS>BOND
     1     1     2    2
     2     2     3   am
     3     3     4    1
     4     4     5    2
     5     5     6    1
     6     6     7    1
     7     7     8    1
     8     8     9    1
     9     9    10   ar
    10    10    11   ar
    11    11    12   ar
    12    12    13    2
    13    12    14   ar
    14    14    15   ar
    15     9    15   ar
    16    15    16    1
    17    16    17    1
    18    17    18    1
    19    18    19    1
    20    14    19    1
    21     7    20    2
    22     4    20    1
    23     2    21    1
    24    21    22   ar
    25    22    23   ar
    26    23    24   ar
    27    24    25   ar
    28    25    26   ar
    29    21    26   ar
    30     3    27    1
    31     5    28    1
    32     6    29    1
    33     6    30    1
    34     8    31    1
    35     8    32    1
    36    11    33    1
    37    16    34    1
    38    16    35    1
    39    17    36    1
    40    17    37    1
    41    18    38    1
    42    18    39    1
    43    19    40    1
    44    19    41    1
    45    22    42    1
    46    23    43    1
    47    24    44    1
    48    25    45    1
    49    26    46    1
@<TRIPOS>MOLECULE
mol70_1_12
 46 49 0 0 0
SMALL
USER_CHARGES
****
VDW energy = -104.88
@<TRIPOS>ATOM
   1 O1        3.4420    -9.1855    -5.2979  O.2     1  <O>11      -0.2418
   2 C1        2.8552    -9.8129    -4.4288  C.2     1  <O>11       0.3328
   3 N1        3.5160   -10.1860    -3.2900  N.am    1  <O>11      -0.1668
   4 C2        4.8350    -9.8570    -3.1240  C.2     1  <O>11       0.3148
   5 C3        5.5518   -10.1960    -2.0144  C.2     1  <O>11       0.0147
   6 C4        6.9431    -9.6753    -2.1679  C.3     1  <O>11       0.0359
   7 C5        6.7246    -9.0898    -3.5231  C.2     1  <O>11       0.1407
   8 C6        7.8029    -8.4257    -4.2926  C.3     1  <O>11       0.0541
   9 C7        7.2640    -7.9533    -5.5946  C.ar    1  <O>11       0.0726
  10 N2        7.3038    -8.7870    -6.7048  N.ar    1  <O>11      -0.1752
  11 N3        6.8123    -8.3640    -7.8986  N.ar    1  <O>11      -0.2427
  12 C8        6.2913    -7.1236    -8.0051  C.ar    1  <O>11       0.2682
  13 O2        5.7803    -6.7516    -9.2642  O.2     1  <O>11      -0.2661
  14 C9        6.2411    -6.2243    -6.9403  C.ar    1  <O>11       0.0232
  15 C10       6.7206    -6.6750    -5.6992  C.ar    1  <O>11      -0.0157
  16 C11       6.7264    -5.8017    -4.4745  C.3     1  <O>11      -0.0255
  17 C12       5.8033    -4.5917    -4.5963  C.3     1  <O>11      -0.0487
  18 C13       6.0146    -3.9002    -5.9354  C.3     1  <O>11      -0.0486
  19 C14       5.6629    -4.8402    -7.0868  C.3     1  <O>11      -0.0222
  20 N4        5.5335    -9.1807    -4.0213  N.2     1  <O>11      -0.0504
  21 C15       1.4620   -10.1610    -4.6040  C.ar    1  <O>11       0.0616
  22 C16       0.5946   -10.0837    -3.5126  C.ar    1  <O>11      -0.0474
  23 C17      -0.7516   -10.4309    -3.6727  C.ar    1  <O>11      -0.0610
  24 C18      -1.2274   -10.8492    -4.9180  C.ar    1  <O>11      -0.0617
  25 C19      -0.3466   -10.9160    -6.0041  C.ar    1  <O>11      -0.0610
  26 C20       0.9963   -10.5699    -5.8555  C.ar    1  <O>11      -0.0474
  27 H1        3.0270   -10.7100    -2.5640  H       1  <O>11       0.3016
  28 H2        5.2391   -10.7431    -1.1371  H       1  <O>11       0.0657
  29 H3        7.1999    -8.9258    -1.4198  H       1  <O>11       0.0392
  30 H4        7.6934   -10.4651    -2.1638  H       1  <O>11       0.0392
  31 H5        8.6119    -9.1335    -4.4694  H       1  <O>11       0.0411
  32 H6        8.1814    -7.5738    -3.7265  H       1  <O>11       0.0411
  33 H7        6.8392    -8.9802    -8.6984  H       1  <O>11       0.1921
  34 H8        6.4037    -6.3994    -3.6213  H       1  <O>11       0.0314
  35 H9        7.7435    -5.4462    -4.3072  H       1  <O>11       0.0314
  36 H10       4.7671    -4.9216    -4.5216  H       1  <O>11       0.0268
  37 H11       6.0216    -3.8897    -3.7900  H       1  <O>11       0.0268
  38 H12       5.3782    -3.0169    -5.9872  H       1  <O>11       0.0269
  39 H13       7.0598    -3.6018    -6.0228  H       1  <O>11       0.0269
  40 H14       4.5778    -4.9266    -7.1399  H       1  <O>11       0.0315
  41 H15       6.0388    -4.4065    -8.0119  H       1  <O>11       0.0315
  42 H16       0.9443    -9.7723    -2.5929  H       1  <O>11       0.0626
  43 H17      -1.3953   -10.3778    -2.8679  H       1  <O>11       0.0618
  44 H18      -2.2197   -11.1068    -5.0362  H       1  <O>11       0.0618
  45 H19      -0.6950   -11.2248    -6.9251  H       1  <O>11       0.0618
  46 H20       1.6389   -10.6156    -6.6617  H       1  <O>11       0.0626
@<TRIPOS>BOND
     1     1     2    2
     2     2     3   am
     3     3     4    1
     4     4     5    2
     5     5     6    1
     6     6     7    1
     7     7     8    1
     8     8     9    1
     9     9    10   ar
    10    10    11   ar
    11    11    12   ar
    12    12    13    2
    13    12    14   ar
    14    14    15   ar
    15     9    15   ar
    16    15    16    1
    17    16    17    1
    18    17    18    1
    19    18    19    1
    20    14    19    1
    21     7    20    2
    22     4    20    1
    23     2    21    1
    24    21    22   ar
    25    22    23   ar
    26    23    24   ar
    27    24    25   ar
    28    25    26   ar
    29    21    26   ar
    30     3    27    1
    31     5    28    1
    32     6    29    1
    33     6    30    1
    34     8    31    1
    35     8    32    1
    36    11    33    1
    37    16    34    1
    38    16    35    1
    39    17    36    1
    40    17    37    1
    41    18    38    1
    42    18    39    1
    43    19    40    1
    44    19    41    1
    45    22    42    1
    46    23    43    1
    47    24    44    1
    48    25    45    1
    49    26    46    1
@<TRIPOS>MOLECULE
mol70_1_13
 46 49 0 0 0
SMALL
USER_CHARGES
****
VDW energy = -103.28
@<TRIPOS>ATOM
   1 O1        3.4420    -9.1855    -5.2979  O.2     1  <O>11      -0.2418
   2 C1        2.8552    -9.8129    -4.4288  C.2     1  <O>11       0.3328
   3 N1        3.5160   -10.1860    -3.2900  N.am    1  <O>11      -0.1668
   4 C2        4.8350    -9.8570    -3.1240  C.2     1  <O>11       0.3148
   5 C3        5.5518   -10.1960    -2.0144  C.2     1  <O>11       0.0147
   6 C4        6.9431    -9.6753    -2.1679  C.3     1  <O>11       0.0359
   7 C5        6.7246    -9.0898    -3.5231  C.2     1  <O>11       0.1407
   8 C6        7.8029    -8.4257    -4.2926  C.3     1  <O>11       0.0541
   9 C7        8.9065    -9.3914    -4.5340  C.ar    1  <O>11       0.0726
  10 N2        8.8088   -10.6904    -4.0522  N.ar    1  <O>11      -0.1752
  11 N3        9.8122   -11.5802    -4.2694  N.ar    1  <O>11      -0.2427
  12 C8       10.9120   -11.1942    -4.9496  C.ar    1  <O>11       0.2682
  13 O2       11.9080   -12.1684    -5.1588  O.2     1  <O>11      -0.2661
  14 C9       11.0895    -9.9008    -5.4405  C.ar    1  <O>11       0.0232
  15 C10      10.0371    -8.9915    -5.2426  C.ar    1  <O>11      -0.0157
  16 C11      10.1060    -7.5665    -5.7190  C.3     1  <O>11      -0.0255
  17 C12      11.1887    -7.3373    -6.7707  C.3     1  <O>11      -0.0487
  18 C13      12.4962    -7.9792    -6.3297  C.3     1  <O>11      -0.0486
  19 C14      12.3318    -9.4912    -6.1891  C.3     1  <O>11      -0.0222
  20 N4        5.5335    -9.1807    -4.0213  N.2     1  <O>11      -0.0504
  21 C15       1.4620   -10.1610    -4.6040  C.ar    1  <O>11       0.0616
  22 C16       0.4750    -9.2817    -4.1546  C.ar    1  <O>11      -0.0474
  23 C17      -0.8745    -9.6183    -4.3101  C.ar    1  <O>11      -0.0610
  24 C18      -1.2337   -10.8255    -4.9148  C.ar    1  <O>11      -0.0617
  25 C19      -0.2326   -11.6941    -5.3653  C.ar    1  <O>11      -0.0610
  26 C20       1.1151   -11.3668    -5.2172  C.ar    1  <O>11      -0.0474
  27 H1        3.0270   -10.7100    -2.5640  H       1  <O>11       0.3016
  28 H2        5.2391   -10.7431    -1.1371  H       1  <O>11       0.0657
  29 H3        7.1999    -8.9258    -1.4198  H       1  <O>11       0.0392
  30 H4        7.6934   -10.4651    -2.1638  H       1  <O>11       0.0392
  31 H5        8.1816    -7.5749    -3.7272  H       1  <O>11       0.0411
  32 H6        7.4075    -8.0808    -5.2486  H       1  <O>11       0.0411
  33 H7        9.7287   -12.5246    -3.9212  H       1  <O>11       0.1921
  34 H8        9.1411    -7.2986    -6.1509  H       1  <O>11       0.0314
  35 H9       10.3134    -6.9244    -4.8625  H       1  <O>11       0.0314
  36 H10      10.8716    -7.7798    -7.7150  H       1  <O>11       0.0268
  37 H11      11.3407    -6.2649    -6.9033  H       1  <O>11       0.0268
  38 H12      13.2665    -7.7703    -7.0720  H       1  <O>11       0.0269
  39 H13      12.7939    -7.5600    -5.3680  H       1  <O>11       0.0269
  40 H14      12.2885    -9.9259    -7.1875  H       1  <O>11       0.0315
  41 H15      13.1980    -9.8836    -5.6590  H       1  <O>11       0.0315
  42 H16       0.7391    -8.3884    -3.7103  H       1  <O>11       0.0626
  43 H17      -1.6070    -8.9723    -3.9769  H       1  <O>11       0.0618
  44 H18      -2.2287   -11.0748    -5.0282  H       1  <O>11       0.0618
  45 H19      -0.4947   -12.5867    -5.8121  H       1  <O>11       0.0618
  46 H20       1.8481   -12.0089    -5.5570  H       1  <O>11       0.0626
@<TRIPOS>BOND
     1     1     2    2
     2     2     3   am
     3     3     4    1
     4     4     5    2
     5     5     6    1
     6     6     7    1
     7     7     8    1
     8     8     9    1
     9     9    10   ar
    10    10    11   ar
    11    11    12   ar
    12    12    13    2
    13    12    14   ar
    14    14    15   ar
    15     9    15   ar
    16    15    16    1
    17    16    17    1
    18    17    18    1
    19    18    19    1
    20    14    19    1
    21     7    20    2
    22     4    20    1
    23     2    21    1
    24    21    22   ar
    25    22    23   ar
    26    23    24   ar
    27    24    25   ar
    28    25    26   ar
    29    21    26   ar
    30     3    27    1
    31     5    28    1
    32     6    29    1
    33     6    30    1
    34     8    31    1
    35     8    32    1
    36    11    33    1
    37    16    34    1
    38    16    35    1
    39    17    36    1
    40    17    37    1
    41    18    38    1
    42    18    39    1
    43    19    40    1
    44    19    41    1
    45    22    42    1
    46    23    43    1
    47    24    44    1
    48    25    45    1
    49    26    46    1
@<TRIPOS>MOLECULE
mol70_1_14
 46 49 0 0 0
SMALL
USER_CHARGES
****
VDW energy = -102.95
@<TRIPOS>ATOM
   1 O1        3.4420    -9.1855    -5.2979  O.2     1  <O>11      -0.2418
   2 C1        2.8552    -9.8129    -4.4288  C.2     1  <O>11       0.3328
   3 N1        3.5160   -10.1860    -3.2900  N.am    1  <O>11      -0.1668
   4 C2        4.8350    -9.8570    -3.1240  C.2     1  <O>11       0.3148
   5 C3        5.5500    -9.1600    -4.0530  C.2     1  <O>11       0.0147
   6 C4        6.9450    -8.9860    -3.5490  C.3     1  <O>11       0.0359
   7 C5        6.7130    -9.6850    -2.2510  C.2     1  <O>11       0.1407
   8 C6        7.7630    -9.8190    -1.2140  C.3     1  <O>11       0.0541
   9 C7        8.9223   -10.5605    -1.7754  C.ar    1  <O>11       0.0726
  10 N2        8.8901   -11.0040    -3.0912  N.ar    1  <O>11      -0.1752
  11 N3        9.9459   -11.6814    -3.6130  N.ar    1  <O>11      -0.2427
  12 C8       11.0263   -11.9305    -2.8436  C.ar    1  <O>11       0.2682
  13 O2       12.0957   -12.6198    -3.4486  O.2     1  <O>11      -0.2661
  14 C9       11.1178   -11.5378    -1.5084  C.ar    1  <O>11       0.0232
  15 C10      10.0386   -10.8098    -0.9804  C.ar    1  <O>11      -0.0157
  16 C11      10.0121   -10.3326     0.4457  C.3     1  <O>11      -0.0255
  17 C12      11.3898   -10.3324     1.1039  C.3     1  <O>11      -0.0487
  18 C13      12.1038   -11.6486     0.8320  C.3     1  <O>11      -0.0486
  19 C14      12.3317   -11.8366    -0.6666  C.3     1  <O>11      -0.0222
  20 N4        5.5360   -10.1850    -2.0510  N.2     1  <O>11      -0.0504
  21 C15       1.4620   -10.1610    -4.6040  C.ar    1  <O>11       0.0616
  22 C16       0.8010    -9.7730    -5.7710  C.ar    1  <O>11      -0.0474
  23 C17      -0.5500   -10.0960    -5.9410  C.ar    1  <O>11      -0.0610
  24 C18      -1.2340   -10.8060    -4.9510  C.ar    1  <O>11      -0.0617
  25 C19      -0.5560   -11.1930    -3.7890  C.ar    1  <O>11      -0.0610
  26 C20       0.7910   -10.8780    -3.6110  C.ar    1  <O>11      -0.0474
  27 H1        3.0270   -10.7100    -2.5640  H       1  <O>11       0.3016
  28 H2        5.2340    -8.7690    -5.0090  H       1  <O>11       0.0657
  29 H3        7.6860    -9.4860    -4.1720  H       1  <O>11       0.0392
  30 H4        7.2220    -7.9400    -3.4230  H       1  <O>11       0.0392
  31 H5        7.3625   -10.3636    -0.3597  H       1  <O>11       0.0411
  32 H6        8.0869    -8.8278    -0.8948  H       1  <O>11       0.0411
  33 H7        9.9161   -11.9936    -4.5731  H       1  <O>11       0.1921
  34 H8        9.6196    -9.3152     0.4634  H       1  <O>11       0.0314
  35 H9        9.3546   -10.9874     1.0182  H       1  <O>11       0.0314
  36 H10      11.9815    -9.5119     0.6983  H       1  <O>11       0.0268
  37 H11      11.2743   -10.2012     2.1810  H       1  <O>11       0.0268
  38 H12      13.0666   -11.6465     1.3430  H       1  <O>11       0.0269
  39 H13      11.4939   -12.4707     1.2077  H       1  <O>11       0.0269
  40 H14      13.1361   -11.1703    -0.9776  H       1  <O>11       0.0315
  41 H15      12.6267   -12.8696    -0.8427  H       1  <O>11       0.0315
  42 H16       1.3059    -9.2509    -6.5042  H       1  <O>11       0.0626
  43 H17      -1.0429    -9.8087    -6.8009  H       1  <O>11       0.0618
  44 H18      -2.2307   -11.0431    -5.0753  H       1  <O>11       0.0618
  45 H19      -1.0585   -11.7173    -3.0558  H       1  <O>11       0.0618
  46 H20       1.2865   -11.1716    -2.7547  H       1  <O>11       0.0626
@<TRIPOS>BOND
     1     1     2    2
     2     2     3   am
     3     3     4    1
     4     4     5    2
     5     5     6    1
     6     6     7    1
     7     7     8    1
     8     8     9    1
     9     9    10   ar
    10    10    11   ar
    11    11    12   ar
    12    12    13    2
    13    12    14   ar
    14    14    15   ar
    15     9    15   ar
    16    15    16    1
    17    16    17    1
    18    17    18    1
    19    18    19    1
    20    14    19    1
    21     7    20    2
    22     4    20    1
    23     2    21    1
    24    21    22   ar
    25    22    23   ar
    26    23    24   ar
    27    24    25   ar
    28    25    26   ar
    29    21    26   ar
    30     3    27    1
    31     5    28    1
    32     6    29    1
    33     6    30    1
    34     8    31    1
    35     8    32    1
    36    11    33    1
    37    16    34    1
    38    16    35    1
    39    17    36    1
    40    17    37    1
    41    18    38    1
    42    18    39    1
    43    19    40    1
    44    19    41    1
    45    22    42    1
    46    23    43    1
    47    24    44    1
    48    25    45    1
    49    26    46    1
@<TRIPOS>MOLECULE
mol70_1_15
 46 49 0 0 0
SMALL
USER_CHARGES
****
VDW energy = -102.66
@<TRIPOS>ATOM
   1 O1        3.4420    -9.1855    -5.2979  O.2     1  <O>11      -0.2418
   2 C1        2.8552    -9.8129    -4.4288  C.2     1  <O>11       0.3328
   3 N1        3.5160   -10.1860    -3.2900  N.am    1  <O>11      -0.1668
   4 C2        4.8350    -9.8570    -3.1240  C.2     1  <O>11       0.3148
   5 C3        5.5518   -10.1960    -2.0144  C.2     1  <O>11       0.0147
   6 C4        6.9431    -9.6753    -2.1679  C.3     1  <O>11       0.0359
   7 C5        6.7246    -9.0898    -3.5231  C.2     1  <O>11       0.1407
   8 C6        7.8029    -8.4257    -4.2926  C.3     1  <O>11       0.0541
   9 C7        7.8250    -6.9761    -3.9651  C.ar    1  <O>11       0.0726
  10 N2        7.0632    -6.0854    -4.7103  N.ar    1  <O>11      -0.1752
  11 N3        7.0763    -4.7589    -4.4172  N.ar    1  <O>11      -0.2427
  12 C8        7.8413    -4.3065    -3.4016  C.ar    1  <O>11       0.2682
  13 O2        7.7964    -2.9237    -3.1353  O.2     1  <O>11      -0.2661
  14 C9        8.6500    -5.1384    -2.6275  C.ar    1  <O>11       0.0232
  15 C10       8.6103    -6.5136    -2.9117  C.ar    1  <O>11      -0.0157
  16 C11       9.4379    -7.5151    -2.1537  C.3     1  <O>11      -0.0255
  17 C12       9.9631    -6.9764    -0.8252  C.3     1  <O>11      -0.0487
  18 C13      10.5653    -5.5922    -1.0189  C.3     1  <O>11      -0.0486
  19 C14       9.5033    -4.6075    -1.5044  C.3     1  <O>11      -0.0222
  20 N4        5.5335    -9.1807    -4.0213  N.2     1  <O>11      -0.0504
  21 C15       1.4620   -10.1610    -4.6040  C.ar    1  <O>11       0.0616
  22 C16       0.5946   -10.0837    -3.5126  C.ar    1  <O>11      -0.0474
  23 C17      -0.7516   -10.4309    -3.6727  C.ar    1  <O>11      -0.0610
  24 C18      -1.2274   -10.8492    -4.9180  C.ar    1  <O>11      -0.0617
  25 C19      -0.3466   -10.9160    -6.0041  C.ar    1  <O>11      -0.0610
  26 C20       0.9963   -10.5699    -5.8555  C.ar    1  <O>11      -0.0474
  27 H1        3.0270   -10.7100    -2.5640  H       1  <O>11       0.3016
  28 H2        5.2391   -10.7431    -1.1371  H       1  <O>11       0.0657
  29 H3        7.1999    -8.9258    -1.4198  H       1  <O>11       0.0392
  30 H4        7.6934   -10.4651    -2.1638  H       1  <O>11       0.0392
  31 H5        7.6206    -8.5546    -5.3589  H       1  <O>11       0.0411
  32 H6        8.7633    -8.8710    -4.0307  H       1  <O>11       0.0411
  33 H7        6.5134    -4.1199    -4.9603  H       1  <O>11       0.1921
  34 H8        8.8219    -8.3923    -1.9527  H       1  <O>11       0.0314
  35 H9       10.2889    -7.8009    -2.7725  H       1  <O>11       0.0314
  36 H10       9.1408    -6.9142    -0.1125  H       1  <O>11       0.0268
  37 H11      10.7290    -7.6516    -0.4403  H       1  <O>11       0.0268
  38 H12      10.9712    -5.2418    -0.0699  H       1  <O>11       0.0269
  39 H13      11.3649    -5.6502    -1.7579  H       1  <O>11       0.0269
  40 H14       8.8518    -4.3642    -0.6654  H       1  <O>11       0.0315
  41 H15      10.0038    -3.7046    -1.8499  H       1  <O>11       0.0315
  42 H16       0.9443    -9.7723    -2.5929  H       1  <O>11       0.0626
  43 H17      -1.3953   -10.3778    -2.8679  H       1  <O>11       0.0618
  44 H18      -2.2197   -11.1068    -5.0362  H       1  <O>11       0.0618
  45 H19      -0.6950   -11.2248    -6.9251  H       1  <O>11       0.0618
  46 H20       1.6389   -10.6156    -6.6617  H       1  <O>11       0.0626
@<TRIPOS>BOND
     1     1     2    2
     2     2     3   am
     3     3     4    1
     4     4     5    2
     5     5     6    1
     6     6     7    1
     7     7     8    1
     8     8     9    1
     9     9    10   ar
    10    10    11   ar
    11    11    12   ar
    12    12    13    2
    13    12    14   ar
    14    14    15   ar
    15     9    15   ar
    16    15    16    1
    17    16    17    1
    18    17    18    1
    19    18    19    1
    20    14    19    1
    21     7    20    2
    22     4    20    1
    23     2    21    1
    24    21    22   ar
    25    22    23   ar
    26    23    24   ar
    27    24    25   ar
    28    25    26   ar
    29    21    26   ar
    30     3    27    1
    31     5    28    1
    32     6    29    1
    33     6    30    1
    34     8    31    1
    35     8    32    1
    36    11    33    1
    37    16    34    1
    38    16    35    1
    39    17    36    1
    40    17    37    1
    41    18    38    1
    42    18    39    1
    43    19    40    1
    44    19    41    1
    45    22    42    1
    46    23    43    1
    47    24    44    1
    48    25    45    1
    49    26    46    1
@<TRIPOS>MOLECULE
mol70_1_16
 46 49 0 0 0
SMALL
USER_CHARGES
****
VDW energy = -100.42
@<TRIPOS>ATOM
   1 O1        3.4420    -9.1855    -5.2979  O.2     1  <O>11      -0.2418
   2 C1        2.8552    -9.8129    -4.4288  C.2     1  <O>11       0.3328
   3 N1        3.5160   -10.1860    -3.2900  N.am    1  <O>11      -0.1668
   4 C2        4.8350    -9.8570    -3.1240  C.2     1  <O>11       0.3148
   5 C3        5.5518   -10.1960    -2.0144  C.2     1  <O>11       0.0147
   6 C4        6.9431    -9.6753    -2.1679  C.3     1  <O>11       0.0359
   7 C5        6.7246    -9.0898    -3.5231  C.2     1  <O>11       0.1407
   8 C6        7.8029    -8.4257    -4.2926  C.3     1  <O>11       0.0541
   9 C7        8.9065    -9.3914    -4.5340  C.ar    1  <O>11       0.0726
  10 N2        8.8088   -10.6904    -4.0522  N.ar    1  <O>11      -0.1752
  11 N3        9.8122   -11.5802    -4.2694  N.ar    1  <O>11      -0.2427
  12 C8       10.9120   -11.1942    -4.9496  C.ar    1  <O>11       0.2682
  13 O2       11.9080   -12.1684    -5.1588  O.2     1  <O>11      -0.2661
  14 C9       11.0895    -9.9008    -5.4405  C.ar    1  <O>11       0.0232
  15 C10      10.0371    -8.9915    -5.2426  C.ar    1  <O>11      -0.0157
  16 C11      10.1060    -7.5665    -5.7190  C.3     1  <O>11      -0.0255
  17 C12      11.1887    -7.3373    -6.7707  C.3     1  <O>11      -0.0487
  18 C13      12.4962    -7.9792    -6.3297  C.3     1  <O>11      -0.0486
  19 C14      12.3318    -9.4912    -6.1891  C.3     1  <O>11      -0.0222
  20 N4        5.5335    -9.1807    -4.0213  N.2     1  <O>11      -0.0504
  21 C15       1.4620   -10.1610    -4.6040  C.ar    1  <O>11       0.0616
  22 C16       0.5946   -10.0837    -3.5126  C.ar    1  <O>11      -0.0474
  23 C17      -0.7516   -10.4309    -3.6727  C.ar    1  <O>11      -0.0610
  24 C18      -1.2274   -10.8492    -4.9180  C.ar    1  <O>11      -0.0617
  25 C19      -0.3466   -10.9160    -6.0041  C.ar    1  <O>11      -0.0610
  26 C20       0.9963   -10.5699    -5.8555  C.ar    1  <O>11      -0.0474
  27 H1        3.0270   -10.7100    -2.5640  H       1  <O>11       0.3016
  28 H2        5.2391   -10.7431    -1.1371  H       1  <O>11       0.0657
  29 H3        7.1999    -8.9258    -1.4198  H       1  <O>11       0.0392
  30 H4        7.6934   -10.4651    -2.1638  H       1  <O>11       0.0392
  31 H5        8.1816    -7.5749    -3.7272  H       1  <O>11       0.0411
  32 H6        7.4075    -8.0808    -5.2486  H       1  <O>11       0.0411
  33 H7        9.7287   -12.5246    -3.9212  H       1  <O>11       0.1921
  34 H8        9.1411    -7.2986    -6.1509  H       1  <O>11       0.0314
  35 H9       10.3134    -6.9244    -4.8625  H       1  <O>11       0.0314
  36 H10      10.8716    -7.7798    -7.7150  H       1  <O>11       0.0268
  37 H11      11.3407    -6.2649    -6.9033  H       1  <O>11       0.0268
  38 H12      13.2665    -7.7703    -7.0720  H       1  <O>11       0.0269
  39 H13      12.7939    -7.5600    -5.3680  H       1  <O>11       0.0269
  40 H14      12.2885    -9.9259    -7.1875  H       1  <O>11       0.0315
  41 H15      13.1980    -9.8836    -5.6590  H       1  <O>11       0.0315
  42 H16       0.9443    -9.7723    -2.5929  H       1  <O>11       0.0626
  43 H17      -1.3953   -10.3778    -2.8679  H       1  <O>11       0.0618
  44 H18      -2.2197   -11.1068    -5.0362  H       1  <O>11       0.0618
  45 H19      -0.6950   -11.2248    -6.9251  H       1  <O>11       0.0618
  46 H20       1.6389   -10.6156    -6.6617  H       1  <O>11       0.0626
@<TRIPOS>BOND
     1     1     2    2
     2     2     3   am
     3     3     4    1
     4     4     5    2
     5     5     6    1
     6     6     7    1
     7     7     8    1
     8     8     9    1
     9     9    10   ar
    10    10    11   ar
    11    11    12   ar
    12    12    13    2
    13    12    14   ar
    14    14    15   ar
    15     9    15   ar
    16    15    16    1
    17    16    17    1
    18    17    18    1
    19    18    19    1
    20    14    19    1
    21     7    20    2
    22     4    20    1
    23     2    21    1
    24    21    22   ar
    25    22    23   ar
    26    23    24   ar
    27    24    25   ar
    28    25    26   ar
    29    21    26   ar
    30     3    27    1
    31     5    28    1
    32     6    29    1
    33     6    30    1
    34     8    31    1
    35     8    32    1
    36    11    33    1
    37    16    34    1
    38    16    35    1
    39    17    36    1
    40    17    37    1
    41    18    38    1
    42    18    39    1
    43    19    40    1
    44    19    41    1
    45    22    42    1
    46    23    43    1
    47    24    44    1
    48    25    45    1
    49    26    46    1
@<TRIPOS>MOLECULE
mol70_1_17
 46 49 0 0 0
SMALL
USER_CHARGES
****
VDW energy = -100.35
@<TRIPOS>ATOM
   1 O1        3.4420    -9.1855    -5.2979  O.2     1  <O>11      -0.2418
   2 C1        2.8552    -9.8129    -4.4288  C.2     1  <O>11       0.3328
   3 N1        3.5160   -10.1860    -3.2900  N.am    1  <O>11      -0.1668
   4 C2        4.8350    -9.8570    -3.1240  C.2     1  <O>11       0.3148
   5 C3        5.5518   -10.1960    -2.0144  C.2     1  <O>11       0.0147
   6 C4        6.9431    -9.6753    -2.1679  C.3     1  <O>11       0.0359
   7 C5        6.7246    -9.0898    -3.5231  C.2     1  <O>11       0.1407
   8 C6        7.8029    -8.4257    -4.2926  C.3     1  <O>11       0.0541
   9 C7        8.3201    -7.2655    -3.5210  C.ar    1  <O>11       0.0726
  10 N2        7.7472    -6.0112    -3.6878  N.ar    1  <O>11      -0.1752
  11 N3        8.2128    -4.9453    -2.9856  N.ar    1  <O>11      -0.2427
  12 C8        9.2429    -5.1077    -2.1291  C.ar    1  <O>11       0.2682
  13 O2        9.6665    -3.9685    -1.4165  O.2     1  <O>11      -0.2661
  14 C9        9.8825    -6.3310    -1.9296  C.ar    1  <O>11       0.0232
  15 C10       9.3790    -7.4381    -2.6326  C.ar    1  <O>11      -0.0157
  16 C11       9.9820    -8.8105    -2.5092  C.3     1  <O>11      -0.0255
  17 C12      10.8680    -8.9677    -1.2758  C.3     1  <O>11      -0.0487
  18 C13      11.8185    -7.7852    -1.1555  C.3     1  <O>11      -0.0486
  19 C14      11.0379    -6.4849    -0.9742  C.3     1  <O>11      -0.0222
  20 N4        5.5335    -9.1807    -4.0213  N.2     1  <O>11      -0.0504
  21 C15       1.4620   -10.1610    -4.6040  C.ar    1  <O>11       0.0616
  22 C16       0.5946   -10.0837    -3.5126  C.ar    1  <O>11      -0.0474
  23 C17      -0.7516   -10.4309    -3.6727  C.ar    1  <O>11      -0.0610
  24 C18      -1.2274   -10.8492    -4.9180  C.ar    1  <O>11      -0.0617
  25 C19      -0.3466   -10.9160    -6.0041  C.ar    1  <O>11      -0.0610
  26 C20       0.9963   -10.5699    -5.8555  C.ar    1  <O>11      -0.0474
  27 H1        3.0270   -10.7100    -2.5640  H       1  <O>11       0.3016
  28 H2        5.2391   -10.7431    -1.1371  H       1  <O>11       0.0657
  29 H3        7.1999    -8.9258    -1.4198  H       1  <O>11       0.0392
  30 H4        7.6934   -10.4651    -2.1638  H       1  <O>11       0.0392
  31 H5        7.4081    -8.0802    -5.2473  H       1  <O>11       0.0411
  32 H6        8.6131    -9.1342    -4.4683  H       1  <O>11       0.0411
  33 H7        7.7849    -4.0387    -3.1084  H       1  <O>11       0.1921
  34 H8        9.1736    -9.5402    -2.4505  H       1  <O>11       0.0314
  35 H9       10.5854    -9.0050    -3.3964  H       1  <O>11       0.0314
  36 H10      10.2400    -9.0161    -0.3863  H       1  <O>11       0.0268
  37 H11      11.4475    -9.8881    -1.3636  H       1  <O>11       0.0268
  38 H12      12.4697    -7.9348    -0.2943  H       1  <O>11       0.0269
  39 H13      12.4220    -7.7178    -2.0612  H       1  <O>11       0.0269
  40 H14      10.6468    -6.4583     0.0426  H       1  <O>11       0.0315
  41 H15      11.7208    -5.6502    -1.1230  H       1  <O>11       0.0315
  42 H16       0.9443    -9.7723    -2.5929  H       1  <O>11       0.0626
  43 H17      -1.3953   -10.3778    -2.8679  H       1  <O>11       0.0618
  44 H18      -2.2197   -11.1068    -5.0362  H       1  <O>11       0.0618
  45 H19      -0.6950   -11.2248    -6.9251  H       1  <O>11       0.0618
  46 H20       1.6389   -10.6156    -6.6617  H       1  <O>11       0.0626
@<TRIPOS>BOND
     1     1     2    2
     2     2     3   am
     3     3     4    1
     4     4     5    2
     5     5     6    1
     6     6     7    1
     7     7     8    1
     8     8     9    1
     9     9    10   ar
    10    10    11   ar
    11    11    12   ar
    12    12    13    2
    13    12    14   ar
    14    14    15   ar
    15     9    15   ar
    16    15    16    1
    17    16    17    1
    18    17    18    1
    19    18    19    1
    20    14    19    1
    21     7    20    2
    22     4    20    1
    23     2    21    1
    24    21    22   ar
    25    22    23   ar
    26    23    24   ar
    27    24    25   ar
    28    25    26   ar
    29    21    26   ar
    30     3    27    1
    31     5    28    1
    32     6    29    1
    33     6    30    1
    34     8    31    1
    35     8    32    1
    36    11    33    1
    37    16    34    1
    38    16    35    1
    39    17    36    1
    40    17    37    1
    41    18    38    1
    42    18    39    1
    43    19    40    1
    44    19    41    1
    45    22    42    1
    46    23    43    1
    47    24    44    1
    48    25    45    1
    49    26    46    1
@<TRIPOS>MOLECULE
mol70_1_18
 46 49 0 0 0
SMALL
USER_CHARGES
****
VDW energy = -100.13
@<TRIPOS>ATOM
   1 O1        3.4420    -9.1855    -5.2979  O.2     1  <O>11      -0.2418
   2 C1        2.8552    -9.8129    -4.4288  C.2     1  <O>11       0.3328
   3 N1        3.5160   -10.1860    -3.2900  N.am    1  <O>11      -0.1668
   4 C2        4.8350    -9.8570    -3.1240  C.2     1  <O>11       0.3148
   5 C3        5.5518   -10.1960    -2.0144  C.2     1  <O>11       0.0147
   6 C4        6.9431    -9.6753    -2.1679  C.3     1  <O>11       0.0359
   7 C5        6.7246    -9.0898    -3.5231  C.2     1  <O>11       0.1407
   8 C6        7.8029    -8.4257    -4.2926  C.3     1  <O>11       0.0541
   9 C7        7.2640    -7.9533    -5.5946  C.ar    1  <O>11       0.0726
  10 N2        7.3038    -8.7870    -6.7048  N.ar    1  <O>11      -0.1752
  11 N3        6.8123    -8.3640    -7.8986  N.ar    1  <O>11      -0.2427
  12 C8        6.2913    -7.1236    -8.0051  C.ar    1  <O>11       0.2682
  13 O2        5.7803    -6.7516    -9.2642  O.2     1  <O>11      -0.2661
  14 C9        6.2411    -6.2243    -6.9403  C.ar    1  <O>11       0.0232
  15 C10       6.7206    -6.6750    -5.6992  C.ar    1  <O>11      -0.0157
  16 C11       6.7264    -5.8017    -4.4745  C.3     1  <O>11      -0.0255
  17 C12       5.8033    -4.5917    -4.5963  C.3     1  <O>11      -0.0487
  18 C13       6.0146    -3.9002    -5.9354  C.3     1  <O>11      -0.0486
  19 C14       5.6629    -4.8402    -7.0868  C.3     1  <O>11      -0.0222
  20 N4        5.5335    -9.1807    -4.0213  N.2     1  <O>11      -0.0504
  21 C15       1.4620   -10.1610    -4.6040  C.ar    1  <O>11       0.0616
  22 C16       0.8010    -9.7730    -5.7710  C.ar    1  <O>11      -0.0474
  23 C17      -0.5500   -10.0960    -5.9410  C.ar    1  <O>11      -0.0610
  24 C18      -1.2340   -10.8060    -4.9510  C.ar    1  <O>11      -0.0617
  25 C19      -0.5560   -11.1930    -3.7890  C.ar    1  <O>11      -0.0610
  26 C20       0.7910   -10.8780    -3.6110  C.ar    1  <O>11      -0.0474
  27 H1        3.0270   -10.7100    -2.5640  H       1  <O>11       0.3016
  28 H2        5.2391   -10.7431    -1.1371  H       1  <O>11       0.0657
  29 H3        7.1999    -8.9258    -1.4198  H       1  <O>11       0.0392
  30 H4        7.6934   -10.4651    -2.1638  H       1  <O>11       0.0392
  31 H5        8.6119    -9.1335    -4.4694  H       1  <O>11       0.0411
  32 H6        8.1814    -7.5738    -3.7265  H       1  <O>11       0.0411
  33 H7        6.8392    -8.9802    -8.6984  H       1  <O>11       0.1921
  34 H8        6.4037    -6.3994    -3.6213  H       1  <O>11       0.0314
  35 H9        7.7435    -5.4462    -4.3072  H       1  <O>11       0.0314
  36 H10       4.7671    -4.9216    -4.5216  H       1  <O>11       0.0268
  37 H11       6.0216    -3.8897    -3.7900  H       1  <O>11       0.0268
  38 H12       5.3782    -3.0169    -5.9872  H       1  <O>11       0.0269
  39 H13       7.0598    -3.6018    -6.0228  H       1  <O>11       0.0269
  40 H14       4.5778    -4.9266    -7.1399  H       1  <O>11       0.0315
  41 H15       6.0388    -4.4065    -8.0119  H       1  <O>11       0.0315
  42 H16       1.3059    -9.2509    -6.5042  H       1  <O>11       0.0626
  43 H17      -1.0429    -9.8087    -6.8009  H       1  <O>11       0.0618
  44 H18      -2.2307   -11.0431    -5.0753  H       1  <O>11       0.0618
  45 H19      -1.0585   -11.7173    -3.0558  H       1  <O>11       0.0618
  46 H20       1.2865   -11.1716    -2.7547  H       1  <O>11       0.0626
@<TRIPOS>BOND
     1     1     2    2
     2     2     3   am
     3     3     4    1
     4     4     5    2
     5     5     6    1
     6     6     7    1
     7     7     8    1
     8     8     9    1
     9     9    10   ar
    10    10    11   ar
    11    11    12   ar
    12    12    13    2
    13    12    14   ar
    14    14    15   ar
    15     9    15   ar
    16    15    16    1
    17    16    17    1
    18    17    18    1
    19    18    19    1
    20    14    19    1
    21     7    20    2
    22     4    20    1
    23     2    21    1
    24    21    22   ar
    25    22    23   ar
    26    23    24   ar
    27    24    25   ar
    28    25    26   ar
    29    21    26   ar
    30     3    27    1
    31     5    28    1
    32     6    29    1
    33     6    30    1
    34     8    31    1
    35     8    32    1
    36    11    33    1
    37    16    34    1
    38    16    35    1
    39    17    36    1
    40    17    37    1
    41    18    38    1
    42    18    39    1
    43    19    40    1
    44    19    41    1
    45    22    42    1
    46    23    43    1
    47    24    44    1
    48    25    45    1
    49    26    46    1
@<TRIPOS>MOLECULE
mol70_1_19
 46 49 0 0 0
SMALL
USER_CHARGES
****
VDW energy = -98.49
@<TRIPOS>ATOM
   1 O1        3.4420    -9.1855    -5.2979  O.2     1  <O>11      -0.2418
   2 C1        2.8552    -9.8129    -4.4288  C.2     1  <O>11       0.3328
   3 N1        3.5160   -10.1860    -3.2900  N.am    1  <O>11      -0.1668
   4 C2        4.8350    -9.8570    -3.1240  C.2     1  <O>11       0.3148
   5 C3        5.5518   -10.1960    -2.0144  C.2     1  <O>11       0.0147
   6 C4        6.9431    -9.6753    -2.1679  C.3     1  <O>11       0.0359
   7 C5        6.7246    -9.0898    -3.5231  C.2     1  <O>11       0.1407
   8 C6        7.8029    -8.4257    -4.2926  C.3     1  <O>11       0.0541
   9 C7        7.2640    -7.9533    -5.5946  C.ar    1  <O>11       0.0726
  10 N2        5.9294    -8.1706    -5.9123  N.ar    1  <O>11      -0.1752
  11 N3        5.4280    -7.7410    -7.0997  N.ar    1  <O>11      -0.2427
  12 C8        6.2355    -7.1081    -7.9764  C.ar    1  <O>11       0.2682
  13 O2        5.6512    -6.6700    -9.1811  O.2     1  <O>11      -0.2661
  14 C9        7.5898    -6.8778    -7.7356  C.ar    1  <O>11       0.0232
  15 C10       8.0986    -7.2942    -6.4941  C.ar    1  <O>11      -0.0157
  16 C11       9.5420    -7.1085    -6.1140  C.3     1  <O>11      -0.0255
  17 C12      10.2638    -6.0813    -6.9829  C.3     1  <O>11      -0.0487
  18 C13       9.9668    -6.3337    -8.4540  C.3     1  <O>11      -0.0486
  19 C14       8.4736    -6.1770    -8.7352  C.3     1  <O>11      -0.0222
  20 N4        5.5335    -9.1807    -4.0213  N.2     1  <O>11      -0.0504
  21 C15       1.4620   -10.1610    -4.6040  C.ar    1  <O>11       0.0616
  22 C16       0.4750    -9.2817    -4.1546  C.ar    1  <O>11      -0.0474
  23 C17      -0.8745    -9.6183    -4.3101  C.ar    1  <O>11      -0.0610
  24 C18      -1.2337   -10.8255    -4.9148  C.ar    1  <O>11      -0.0617
  25 C19      -0.2326   -11.6941    -5.3653  C.ar    1  <O>11      -0.0610
  26 C20       1.1151   -11.3668    -5.2172  C.ar    1  <O>11      -0.0474
  27 H1        3.0270   -10.7100    -2.5640  H       1  <O>11       0.3016
  28 H2        5.2391   -10.7431    -1.1371  H       1  <O>11       0.0657
  29 H3        7.1999    -8.9258    -1.4198  H       1  <O>11       0.0392
  30 H4        7.6934   -10.4651    -2.1638  H       1  <O>11       0.0392
  31 H5        8.6119    -9.1335    -4.4694  H       1  <O>11       0.0411
  32 H6        8.1814    -7.5738    -3.7265  H       1  <O>11       0.0411
  33 H7        4.4545    -7.8974    -7.3186  H       1  <O>11       0.1921
  34 H8        9.5870    -6.7772    -5.0760  H       1  <O>11       0.0314
  35 H9       10.0527    -8.0667    -6.2137  H       1  <O>11       0.0314
  36 H10       9.9240    -5.0812    -6.7139  H       1  <O>11       0.0268
  37 H11      11.3390    -6.1588    -6.8141  H       1  <O>11       0.0268
  38 H12      10.5222    -5.6178    -9.0599  H       1  <O>11       0.0269
  39 H13      10.2758    -7.3469    -8.7126  H       1  <O>11       0.0269
  40 H14       8.2314    -5.1145    -8.7203  H       1  <O>11       0.0315
  41 H15       8.2652    -6.5836    -9.7233  H       1  <O>11       0.0315
  42 H16       0.7391    -8.3884    -3.7103  H       1  <O>11       0.0626
  43 H17      -1.6070    -8.9723    -3.9769  H       1  <O>11       0.0618
  44 H18      -2.2287   -11.0748    -5.0282  H       1  <O>11       0.0618
  45 H19      -0.4947   -12.5867    -5.8121  H       1  <O>11       0.0618
  46 H20       1.8481   -12.0089    -5.5570  H       1  <O>11       0.0626
@<TRIPOS>BOND
     1     1     2    2
     2     2     3   am
     3     3     4    1
     4     4     5    2
     5     5     6    1
     6     6     7    1
     7     7     8    1
     8     8     9    1
     9     9    10   ar
    10    10    11   ar
    11    11    12   ar
    12    12    13    2
    13    12    14   ar
    14    14    15   ar
    15     9    15   ar
    16    15    16    1
    17    16    17    1
    18    17    18    1
    19    18    19    1
    20    14    19    1
    21     7    20    2
    22     4    20    1
    23     2    21    1
    24    21    22   ar
    25    22    23   ar
    26    23    24   ar
    27    24    25   ar
    28    25    26   ar
    29    21    26   ar
    30     3    27    1
    31     5    28    1
    32     6    29    1
    33     6    30    1
    34     8    31    1
    35     8    32    1
    36    11    33    1
    37    16    34    1
    38    16    35    1
    39    17    36    1
    40    17    37    1
    41    18    38    1
    42    18    39    1
    43    19    40    1
    44    19    41    1
    45    22    42    1
    46    23    43    1
    47    24    44    1
    48    25    45    1
    49    26    46    1
@<TRIPOS>MOLECULE
mol70_1_20
 46 49 0 0 0
SMALL
USER_CHARGES
****
VDW energy = -98.49
@<TRIPOS>ATOM
   1 O1        3.4420    -9.1855    -5.2979  O.2     1  <O>11      -0.2418
   2 C1        2.8552    -9.8129    -4.4288  C.2     1  <O>11       0.3328
   3 N1        3.5160   -10.1860    -3.2900  N.am    1  <O>11      -0.1668
   4 C2        4.8350    -9.8570    -3.1240  C.2     1  <O>11       0.3148
   5 C3        5.5518   -10.1960    -2.0144  C.2     1  <O>11       0.0147
   6 C4        6.9431    -9.6753    -2.1679  C.3     1  <O>11       0.0359
   7 C5        6.7246    -9.0898    -3.5231  C.2     1  <O>11       0.1407
   8 C6        7.8029    -8.4257    -4.2926  C.3     1  <O>11       0.0541
   9 C7        7.2640    -7.9533    -5.5946  C.ar    1  <O>11       0.0726
  10 N2        5.9294    -8.1706    -5.9123  N.ar    1  <O>11      -0.1752
  11 N3        5.4280    -7.7410    -7.0997  N.ar    1  <O>11      -0.2427
  12 C8        6.2355    -7.1081    -7.9764  C.ar    1  <O>11       0.2682
  13 O2        5.6512    -6.6700    -9.1811  O.2     1  <O>11      -0.2661
  14 C9        7.5898    -6.8778    -7.7356  C.ar    1  <O>11       0.0232
  15 C10       8.0986    -7.2942    -6.4941  C.ar    1  <O>11      -0.0157
  16 C11       9.5420    -7.1085    -6.1140  C.3     1  <O>11      -0.0255
  17 C12      10.2638    -6.0813    -6.9829  C.3     1  <O>11      -0.0487
  18 C13       9.9668    -6.3337    -8.4540  C.3     1  <O>11      -0.0486
  19 C14       8.4736    -6.1770    -8.7352  C.3     1  <O>11      -0.0222
  20 N4        5.5335    -9.1807    -4.0213  N.2     1  <O>11      -0.0504
  21 C15       1.4620   -10.1610    -4.6040  C.ar    1  <O>11       0.0616
  22 C16       1.1306   -11.3698    -5.2192  C.ar    1  <O>11      -0.0474
  23 C17      -0.2153   -11.7066    -5.4026  C.ar    1  <O>11      -0.0610
  24 C18      -1.2229   -10.8409    -4.9699  C.ar    1  <O>11      -0.0617
  25 C19      -0.8747    -9.6351    -4.3496  C.ar    1  <O>11      -0.0610
  26 C20       0.4636    -9.2913    -4.1600  C.ar    1  <O>11      -0.0474
  27 H1        3.0270   -10.7100    -2.5640  H       1  <O>11       0.3016
  28 H2        5.2391   -10.7431    -1.1371  H       1  <O>11       0.0657
  29 H3        7.1999    -8.9258    -1.4198  H       1  <O>11       0.0392
  30 H4        7.6934   -10.4651    -2.1638  H       1  <O>11       0.0392
  31 H5        8.6119    -9.1335    -4.4694  H       1  <O>11       0.0411
  32 H6        8.1814    -7.5738    -3.7265  H       1  <O>11       0.0411
  33 H7        4.4545    -7.8974    -7.3186  H       1  <O>11       0.1921
  34 H8        9.5870    -6.7772    -5.0760  H       1  <O>11       0.0314
  35 H9       10.0527    -8.0667    -6.2137  H       1  <O>11       0.0314
  36 H10       9.9240    -5.0812    -6.7139  H       1  <O>11       0.0268
  37 H11      11.3390    -6.1588    -6.8141  H       1  <O>11       0.0268
  38 H12      10.5222    -5.6178    -9.0599  H       1  <O>11       0.0269
  39 H13      10.2758    -7.3469    -8.7126  H       1  <O>11       0.0269
  40 H14       8.2314    -5.1145    -8.7203  H       1  <O>11       0.0315
  41 H15       8.2652    -6.5836    -9.7233  H       1  <O>11       0.0315
  42 H16       1.8739   -12.0113    -5.5368  H       1  <O>11       0.0626
  43 H17      -0.4644   -12.5978    -5.8593  H       1  <O>11       0.0618
  44 H18      -2.2155   -11.0882    -5.1063  H       1  <O>11       0.0618
  45 H19      -1.6167    -8.9935    -4.0291  H       1  <O>11       0.0618
  46 H20       0.7134    -8.4037    -3.6966  H       1  <O>11       0.0626
@<TRIPOS>BOND
     1     1     2    2
     2     2     3   am
     3     3     4    1
     4     4     5    2
     5     5     6    1
     6     6     7    1
     7     7     8    1
     8     8     9    1
     9     9    10   ar
    10    10    11   ar
    11    11    12   ar
    12    12    13    2
    13    12    14   ar
    14    14    15   ar
    15     9    15   ar
    16    15    16    1
    17    16    17    1
    18    17    18    1
    19    18    19    1
    20    14    19    1
    21     7    20    2
    22     4    20    1
    23     2    21    1
    24    21    22   ar
    25    22    23   ar
    26    23    24   ar
    27    24    25   ar
    28    25    26   ar
    29    21    26   ar
    30     3    27    1
    31     5    28    1
    32     6    29    1
    33     6    30    1
    34     8    31    1
    35     8    32    1
    36    11    33    1
    37    16    34    1
    38    16    35    1
    39    17    36    1
    40    17    37    1
    41    18    38    1
    42    18    39    1
    43    19    40    1
    44    19    41    1
    45    22    42    1
    46    23    43    1
    47    24    44    1
    48    25    45    1
    49    26    46    1
@<TRIPOS>MOLECULE
mol70_1_21
 46 49 0 0 0
SMALL
USER_CHARGES
****
VDW energy = -98.40
@<TRIPOS>ATOM
   1 O1        3.4420    -9.1855    -5.2979  O.2     1  <O>11      -0.2418
   2 C1        2.8552    -9.8129    -4.4288  C.2     1  <O>11       0.3328
   3 N1        3.5160   -10.1860    -3.2900  N.am    1  <O>11      -0.1668
   4 C2        4.8350    -9.8570    -3.1240  C.2     1  <O>11       0.3148
   5 C3        5.5518   -10.1960    -2.0144  C.2     1  <O>11       0.0147
   6 C4        6.9431    -9.6753    -2.1679  C.3     1  <O>11       0.0359
   7 C5        6.7246    -9.0898    -3.5231  C.2     1  <O>11       0.1407
   8 C6        7.8029    -8.4257    -4.2926  C.3     1  <O>11       0.0541
   9 C7        7.2640    -7.9533    -5.5946  C.ar    1  <O>11       0.0726
  10 N2        6.7215    -6.6789    -5.6990  N.ar    1  <O>11      -0.1752
  11 N3        6.2278    -6.2384    -6.8856  N.ar    1  <O>11      -0.2427
  12 C8        6.2582    -7.0488    -7.9643  C.ar    1  <O>11       0.2682
  13 O2        5.7491    -6.5267    -9.1697  O.2     1  <O>11      -0.2661
  14 C9        6.7644    -8.3479    -7.9273  C.ar    1  <O>11       0.0232
  15 C10       7.3034    -8.7899    -6.7076  C.ar    1  <O>11      -0.0157
  16 C11       7.8759   -10.1701    -6.5351  C.3     1  <O>11      -0.0255
  17 C12       8.2001   -10.8550    -7.8605  C.3     1  <O>11      -0.0487
  18 C13       7.0341   -10.7098    -8.8278  C.3     1  <O>11      -0.0486
  19 C14       6.7785    -9.2375    -9.1438  C.3     1  <O>11      -0.0222
  20 N4        5.5335    -9.1807    -4.0213  N.2     1  <O>11      -0.0504
  21 C15       1.4620   -10.1610    -4.6040  C.ar    1  <O>11       0.0616
  22 C16       0.8010    -9.7730    -5.7710  C.ar    1  <O>11      -0.0474
  23 C17      -0.5500   -10.0960    -5.9410  C.ar    1  <O>11      -0.0610
  24 C18      -1.2340   -10.8060    -4.9510  C.ar    1  <O>11      -0.0617
  25 C19      -0.5560   -11.1930    -3.7890  C.ar    1  <O>11      -0.0610
  26 C20       0.7910   -10.8780    -3.6110  C.ar    1  <O>11      -0.0474
  27 H1        3.0270   -10.7100    -2.5640  H       1  <O>11       0.3016
  28 H2        5.2391   -10.7431    -1.1371  H       1  <O>11       0.0657
  29 H3        7.1999    -8.9258    -1.4198  H       1  <O>11       0.0392
  30 H4        7.6934   -10.4651    -2.1638  H       1  <O>11       0.0392
  31 H5        8.6119    -9.1335    -4.4694  H       1  <O>11       0.0411
  32 H6        8.1814    -7.5738    -3.7265  H       1  <O>11       0.0411
  33 H7        5.8418    -5.3075    -6.9532  H       1  <O>11       0.1921
  34 H8        8.7936   -10.0939    -5.9508  H       1  <O>11       0.0314
  35 H9        7.1506   -10.7814    -5.9973  H       1  <O>11       0.0314
  36 H10       9.0872   -10.3946    -8.2952  H       1  <O>11       0.0268
  37 H11       8.3896   -11.9146    -7.6814  H       1  <O>11       0.0268
  38 H12       7.2667   -11.2392    -9.7517  H       1  <O>11       0.0269
  39 H13       6.1395   -11.1402    -8.3767  H       1  <O>11       0.0269
  40 H14       7.5644    -8.8888    -9.8135  H       1  <O>11       0.0315
  41 H15       5.8137    -9.1550    -9.6414  H       1  <O>11       0.0315
  42 H16       1.3059    -9.2509    -6.5042  H       1  <O>11       0.0626
  43 H17      -1.0429    -9.8087    -6.8009  H       1  <O>11       0.0618
  44 H18      -2.2307   -11.0431    -5.0753  H       1  <O>11       0.0618
  45 H19      -1.0585   -11.7173    -3.0558  H       1  <O>11       0.0618
  46 H20       1.2865   -11.1716    -2.7547  H       1  <O>11       0.0626
@<TRIPOS>BOND
     1     1     2    2
     2     2     3   am
     3     3     4    1
     4     4     5    2
     5     5     6    1
     6     6     7    1
     7     7     8    1
     8     8     9    1
     9     9    10   ar
    10    10    11   ar
    11    11    12   ar
    12    12    13    2
    13    12    14   ar
    14    14    15   ar
    15     9    15   ar
    16    15    16    1
    17    16    17    1
    18    17    18    1
    19    18    19    1
    20    14    19    1
    21     7    20    2
    22     4    20    1
    23     2    21    1
    24    21    22   ar
    25    22    23   ar
    26    23    24   ar
    27    24    25   ar
    28    25    26   ar
    29    21    26   ar
    30     3    27    1
    31     5    28    1
    32     6    29    1
    33     6    30    1
    34     8    31    1
    35     8    32    1
    36    11    33    1
    37    16    34    1
    38    16    35    1
    39    17    36    1
    40    17    37    1
    41    18    38    1
    42    18    39    1
    43    19    40    1
    44    19    41    1
    45    22    42    1
    46    23    43    1
    47    24    44    1
    48    25    45    1
    49    26    46    1
@<TRIPOS>MOLECULE
mol70_1_22
 46 49 0 0 0
SMALL
USER_CHARGES
****
VDW energy = -97.24
@<TRIPOS>ATOM
   1 O1        3.4420    -9.1855    -5.2979  O.2     1  <O>11      -0.2418
   2 C1        2.8552    -9.8129    -4.4288  C.2     1  <O>11       0.3328
   3 N1        3.5160   -10.1860    -3.2900  N.am    1  <O>11      -0.1668
   4 C2        4.8350    -9.8570    -3.1240  C.2     1  <O>11       0.3148
   5 C3        5.5500    -9.1600    -4.0530  C.2     1  <O>11       0.0147
   6 C4        6.9450    -8.9860    -3.5490  C.3     1  <O>11       0.0359
   7 C5        6.7130    -9.6850    -2.2510  C.2     1  <O>11       0.1407
   8 C6        7.7630    -9.8190    -1.2140  C.3     1  <O>11       0.0541
   9 C7        7.2170   -10.5630    -0.0490  C.ar    1  <O>11       0.0726
  10 N2        5.9010   -11.0070    -0.0650  N.ar    1  <O>11      -0.1752
  11 N3        5.3940   -11.6890     0.9950  N.ar    1  <O>11      -0.2427
  12 C8        6.1730   -11.9270     2.0710  C.ar    1  <O>11       0.2682
  13 O2        5.5950   -12.6560     3.1290  O.2     1  <O>11      -0.2661
  14 C9        7.4940   -11.4900     2.1670  C.ar    1  <O>11       0.0232
  15 C10       8.0260   -10.8130     1.0570  C.ar    1  <O>11      -0.0157
  16 C11       9.4350   -10.2870     1.0360  C.3     1  <O>11      -0.0255
  17 C12      10.3250   -10.9130     2.1070  C.3     1  <O>11      -0.0487
  18 C13       9.6110   -10.9140     3.4510  C.3     1  <O>11      -0.0486
  19 C14       8.3410   -11.7600     3.3840  C.3     1  <O>11      -0.0222
  20 N4        5.5360   -10.1850    -2.0510  N.2     1  <O>11      -0.0504
  21 C15       1.4620   -10.1610    -4.6040  C.ar    1  <O>11       0.0616
  22 C16       0.8010    -9.7730    -5.7710  C.ar    1  <O>11      -0.0474
  23 C17      -0.5500   -10.0960    -5.9410  C.ar    1  <O>11      -0.0610
  24 C18      -1.2340   -10.8060    -4.9510  C.ar    1  <O>11      -0.0617
  25 C19      -0.5560   -11.1930    -3.7890  C.ar    1  <O>11      -0.0610
  26 C20       0.7910   -10.8780    -3.6110  C.ar    1  <O>11      -0.0474
  27 H1        3.0270   -10.7100    -2.5640  H       1  <O>11       0.3016
  28 H2        5.2340    -8.7690    -5.0090  H       1  <O>11       0.0657
  29 H3        7.6860    -9.4860    -4.1720  H       1  <O>11       0.0392
  30 H4        7.2220    -7.9400    -3.4230  H       1  <O>11       0.0392
  31 H5        8.0860    -8.8290    -0.8940  H       1  <O>11       0.0411
  32 H6        8.6130   -10.3640    -1.6260  H       1  <O>11       0.0411
  33 H7        4.4380   -12.0140     0.9710  H       1  <O>11       0.1921
  34 H8        9.8690   -10.4980     0.0580  H       1  <O>11       0.0314
  35 H9        9.4050    -9.2090     1.1970  H       1  <O>11       0.0314
  36 H10      10.5600   -11.9390     1.8240  H       1  <O>11       0.0268
  37 H11      11.2480   -10.3370     2.1900  H       1  <O>11       0.0268
  38 H12      10.2760   -11.3260     4.2100  H       1  <O>11       0.0269
  39 H13       9.3460    -9.8900     3.7160  H       1  <O>11       0.0269
  40 H14       8.6290   -12.8110     3.3740  H       1  <O>11       0.0315
  41 H15       7.7440   -11.5550     4.2710  H       1  <O>11       0.0315
  42 H16       1.3059    -9.2509    -6.5042  H       1  <O>11       0.0626
  43 H17      -1.0429    -9.8087    -6.8009  H       1  <O>11       0.0618
  44 H18      -2.2307   -11.0431    -5.0753  H       1  <O>11       0.0618
  45 H19      -1.0585   -11.7173    -3.0558  H       1  <O>11       0.0618
  46 H20       1.2865   -11.1716    -2.7547  H       1  <O>11       0.0626
@<TRIPOS>BOND
     1     1     2    2
     2     2     3   am
     3     3     4    1
     4     4     5    2
     5     5     6    1
     6     6     7    1
     7     7     8    1
     8     8     9    1
     9     9    10   ar
    10    10    11   ar
    11    11    12   ar
    12    12    13    2
    13    12    14   ar
    14    14    15   ar
    15     9    15   ar
    16    15    16    1
    17    16    17    1
    18    17    18    1
    19    18    19    1
    20    14    19    1
    21     7    20    2
    22     4    20    1
    23     2    21    1
    24    21    22   ar
    25    22    23   ar
    26    23    24   ar
    27    24    25   ar
    28    25    26   ar
    29    21    26   ar
    30     3    27    1
    31     5    28    1
    32     6    29    1
    33     6    30    1
    34     8    31    1
    35     8    32    1
    36    11    33    1
    37    16    34    1
    38    16    35    1
    39    17    36    1
    40    17    37    1
    41    18    38    1
    42    18    39    1
    43    19    40    1
    44    19    41    1
    45    22    42    1
    46    23    43    1
    47    24    44    1
    48    25    45    1
    49    26    46    1
@<TRIPOS>MOLECULE
mol70_1_23
 46 49 0 0 0
SMALL
USER_CHARGES
****
VDW energy = -95.67
@<TRIPOS>ATOM
   1 O1        3.4420    -9.1855    -5.2979  O.2     1  <O>11      -0.2418
   2 C1        2.8552    -9.8129    -4.4288  C.2     1  <O>11       0.3328
   3 N1        3.5160   -10.1860    -3.2900  N.am    1  <O>11      -0.1668
   4 C2        4.8350    -9.8570    -3.1240  C.2     1  <O>11       0.3148
   5 C3        5.5518   -10.1960    -2.0144  C.2     1  <O>11       0.0147
   6 C4        6.9431    -9.6753    -2.1679  C.3     1  <O>11       0.0359
   7 C5        6.7246    -9.0898    -3.5231  C.2     1  <O>11       0.1407
   8 C6        7.8029    -8.4257    -4.2926  C.3     1  <O>11       0.0541
   9 C7        7.2640    -7.9533    -5.5946  C.ar    1  <O>11       0.0726
  10 N2        5.9294    -8.1706    -5.9123  N.ar    1  <O>11      -0.1752
  11 N3        5.4280    -7.7410    -7.0997  N.ar    1  <O>11      -0.2427
  12 C8        6.2355    -7.1081    -7.9764  C.ar    1  <O>11       0.2682
  13 O2        5.6512    -6.6700    -9.1811  O.2     1  <O>11      -0.2661
  14 C9        7.5898    -6.8778    -7.7356  C.ar    1  <O>11       0.0232
  15 C10       8.0986    -7.2942    -6.4941  C.ar    1  <O>11      -0.0157
  16 C11       9.5420    -7.1085    -6.1140  C.3     1  <O>11      -0.0255
  17 C12      10.2638    -6.0813    -6.9829  C.3     1  <O>11      -0.0487
  18 C13       9.9668    -6.3337    -8.4540  C.3     1  <O>11      -0.0486
  19 C14       8.4736    -6.1770    -8.7352  C.3     1  <O>11      -0.0222
  20 N4        5.5335    -9.1807    -4.0213  N.2     1  <O>11      -0.0504
  21 C15       1.4620   -10.1610    -4.6040  C.ar    1  <O>11       0.0616
  22 C16       1.0134   -11.4175    -4.1926  C.ar    1  <O>11      -0.0474
  23 C17      -0.3305   -11.7649    -4.3706  C.ar    1  <O>11      -0.0610
  24 C18      -1.2205   -10.8590    -4.9532  C.ar    1  <O>11      -0.0617
  25 C19      -0.7568    -9.6008    -5.3553  C.ar    1  <O>11      -0.0610
  26 C20       0.5801    -9.2441    -5.1802  C.ar    1  <O>11      -0.0474
  27 H1        3.0270   -10.7100    -2.5640  H       1  <O>11       0.3016
  28 H2        5.2391   -10.7431    -1.1371  H       1  <O>11       0.0657
  29 H3        7.1999    -8.9258    -1.4198  H       1  <O>11       0.0392
  30 H4        7.6934   -10.4651    -2.1638  H       1  <O>11       0.0392
  31 H5        8.6119    -9.1335    -4.4694  H       1  <O>11       0.0411
  32 H6        8.1814    -7.5738    -3.7265  H       1  <O>11       0.0411
  33 H7        4.4545    -7.8974    -7.3186  H       1  <O>11       0.1921
  34 H8        9.5870    -6.7772    -5.0760  H       1  <O>11       0.0314
  35 H9       10.0527    -8.0667    -6.2137  H       1  <O>11       0.0314
  36 H10       9.9240    -5.0812    -6.7139  H       1  <O>11       0.0268
  37 H11      11.3390    -6.1588    -6.8141  H       1  <O>11       0.0268
  38 H12      10.5222    -5.6178    -9.0599  H       1  <O>11       0.0269
  39 H13      10.2758    -7.3469    -8.7126  H       1  <O>11       0.0269
  40 H14       8.2314    -5.1145    -8.7203  H       1  <O>11       0.0315
  41 H15       8.2652    -6.5836    -9.7233  H       1  <O>11       0.0315
  42 H16       1.6693   -12.0865    -3.7596  H       1  <O>11       0.0626
  43 H17      -0.6655   -12.6936    -4.0704  H       1  <O>11       0.0618
  44 H18      -2.2113   -11.1153    -5.0861  H       1  <O>11       0.0618
  45 H19      -1.4117    -8.9296    -5.7862  H       1  <O>11       0.0618
  46 H20       0.9141    -8.3127    -5.4733  H       1  <O>11       0.0626
@<TRIPOS>BOND
     1     1     2    2
     2     2     3   am
     3     3     4    1
     4     4     5    2
     5     5     6    1
     6     6     7    1
     7     7     8    1
     8     8     9    1
     9     9    10   ar
    10    10    11   ar
    11    11    12   ar
    12    12    13    2
    13    12    14   ar
    14    14    15   ar
    15     9    15   ar
    16    15    16    1
    17    16    17    1
    18    17    18    1
    19    18    19    1
    20    14    19    1
    21     7    20    2
    22     4    20    1
    23     2    21    1
    24    21    22   ar
    25    22    23   ar
    26    23    24   ar
    27    24    25   ar
    28    25    26   ar
    29    21    26   ar
    30     3    27    1
    31     5    28    1
    32     6    29    1
    33     6    30    1
    34     8    31    1
    35     8    32    1
    36    11    33    1
    37    16    34    1
    38    16    35    1
    39    17    36    1
    40    17    37    1
    41    18    38    1
    42    18    39    1
    43    19    40    1
    44    19    41    1
    45    22    42    1
    46    23    43    1
    47    24    44    1
    48    25    45    1
    49    26    46    1
@<TRIPOS>MOLECULE
mol70_1_24
 46 49 0 0 0
SMALL
USER_CHARGES
****
VDW energy = -95.62
@<TRIPOS>ATOM
   1 O1        3.4420    -9.1855    -5.2979  O.2     1  <O>11      -0.2418
   2 C1        2.8552    -9.8129    -4.4288  C.2     1  <O>11       0.3328
   3 N1        3.5160   -10.1860    -3.2900  N.am    1  <O>11      -0.1668
   4 C2        4.8350    -9.8570    -3.1240  C.2     1  <O>11       0.3148
   5 C3        5.5518   -10.1960    -2.0144  C.2     1  <O>11       0.0147
   6 C4        6.9431    -9.6753    -2.1679  C.3     1  <O>11       0.0359
   7 C5        6.7246    -9.0898    -3.5231  C.2     1  <O>11       0.1407
   8 C6        7.8029    -8.4257    -4.2926  C.3     1  <O>11       0.0541
   9 C7        8.3201    -7.2655    -3.5210  C.ar    1  <O>11       0.0726
  10 N2        7.7472    -6.0112    -3.6878  N.ar    1  <O>11      -0.1752
  11 N3        8.2128    -4.9453    -2.9856  N.ar    1  <O>11      -0.2427
  12 C8        9.2429    -5.1077    -2.1291  C.ar    1  <O>11       0.2682
  13 O2        9.6665    -3.9685    -1.4165  O.2     1  <O>11      -0.2661
  14 C9        9.8825    -6.3310    -1.9296  C.ar    1  <O>11       0.0232
  15 C10       9.3790    -7.4381    -2.6326  C.ar    1  <O>11      -0.0157
  16 C11       9.9820    -8.8105    -2.5092  C.3     1  <O>11      -0.0255
  17 C12      10.8680    -8.9677    -1.2758  C.3     1  <O>11      -0.0487
  18 C13      11.8185    -7.7852    -1.1555  C.3     1  <O>11      -0.0486
  19 C14      11.0379    -6.4849    -0.9742  C.3     1  <O>11      -0.0222
  20 N4        5.5335    -9.1807    -4.0213  N.2     1  <O>11      -0.0504
  21 C15       1.4620   -10.1610    -4.6040  C.ar    1  <O>11       0.0616
  22 C16       0.8010    -9.7730    -5.7710  C.ar    1  <O>11      -0.0474
  23 C17      -0.5500   -10.0960    -5.9410  C.ar    1  <O>11      -0.0610
  24 C18      -1.2340   -10.8060    -4.9510  C.ar    1  <O>11      -0.0617
  25 C19      -0.5560   -11.1930    -3.7890  C.ar    1  <O>11      -0.0610
  26 C20       0.7910   -10.8780    -3.6110  C.ar    1  <O>11      -0.0474
  27 H1        3.0270   -10.7100    -2.5640  H       1  <O>11       0.3016
  28 H2        5.2391   -10.7431    -1.1371  H       1  <O>11       0.0657
  29 H3        7.1999    -8.9258    -1.4198  H       1  <O>11       0.0392
  30 H4        7.6934   -10.4651    -2.1638  H       1  <O>11       0.0392
  31 H5        7.4081    -8.0802    -5.2473  H       1  <O>11       0.0411
  32 H6        8.6131    -9.1342    -4.4683  H       1  <O>11       0.0411
  33 H7        7.7849    -4.0387    -3.1084  H       1  <O>11       0.1921
  34 H8        9.1736    -9.5402    -2.4505  H       1  <O>11       0.0314
  35 H9       10.5854    -9.0050    -3.3964  H       1  <O>11       0.0314
  36 H10      10.2400    -9.0161    -0.3863  H       1  <O>11       0.0268
  37 H11      11.4475    -9.8881    -1.3636  H       1  <O>11       0.0268
  38 H12      12.4697    -7.9348    -0.2943  H       1  <O>11       0.0269
  39 H13      12.4220    -7.7178    -2.0612  H       1  <O>11       0.0269
  40 H14      10.6468    -6.4583     0.0426  H       1  <O>11       0.0315
  41 H15      11.7208    -5.6502    -1.1230  H       1  <O>11       0.0315
  42 H16       1.3059    -9.2509    -6.5042  H       1  <O>11       0.0626
  43 H17      -1.0429    -9.8087    -6.8009  H       1  <O>11       0.0618
  44 H18      -2.2307   -11.0431    -5.0753  H       1  <O>11       0.0618
  45 H19      -1.0585   -11.7173    -3.0558  H       1  <O>11       0.0618
  46 H20       1.2865   -11.1716    -2.7547  H       1  <O>11       0.0626
@<TRIPOS>BOND
     1     1     2    2
     2     2     3   am
     3     3     4    1
     4     4     5    2
     5     5     6    1
     6     6     7    1
     7     7     8    1
     8     8     9    1
     9     9    10   ar
    10    10    11   ar
    11    11    12   ar
    12    12    13    2
    13    12    14   ar
    14    14    15   ar
    15     9    15   ar
    16    15    16    1
    17    16    17    1
    18    17    18    1
    19    18    19    1
    20    14    19    1
    21     7    20    2
    22     4    20    1
    23     2    21    1
    24    21    22   ar
    25    22    23   ar
    26    23    24   ar
    27    24    25   ar
    28    25    26   ar
    29    21    26   ar
    30     3    27    1
    31     5    28    1
    32     6    29    1
    33     6    30    1
    34     8    31    1
    35     8    32    1
    36    11    33    1
    37    16    34    1
    38    16    35    1
    39    17    36    1
    40    17    37    1
    41    18    38    1
    42    18    39    1
    43    19    40    1
    44    19    41    1
    45    22    42    1
    46    23    43    1
    47    24    44    1
    48    25    45    1
    49    26    46    1
@<TRIPOS>MOLECULE
mol70_1_25
 46 49 0 0 0
SMALL
USER_CHARGES
****
VDW energy = -91.01
@<TRIPOS>ATOM
   1 O1        3.4420    -9.1855    -5.2979  O.2     1  <O>11      -0.2418
   2 C1        2.8552    -9.8129    -4.4288  C.2     1  <O>11       0.3328
   3 N1        3.5160   -10.1860    -3.2900  N.am    1  <O>11      -0.1668
   4 C2        4.8350    -9.8570    -3.1240  C.2     1  <O>11       0.3148
   5 C3        5.5518   -10.1960    -2.0144  C.2     1  <O>11       0.0147
   6 C4        6.9431    -9.6753    -2.1679  C.3     1  <O>11       0.0359
   7 C5        6.7246    -9.0898    -3.5231  C.2     1  <O>11       0.1407
   8 C6        7.8029    -8.4257    -4.2926  C.3     1  <O>11       0.0541
   9 C7        7.2640    -7.9533    -5.5946  C.ar    1  <O>11       0.0726
  10 N2        5.9294    -8.1706    -5.9123  N.ar    1  <O>11      -0.1752
  11 N3        5.4280    -7.7410    -7.0997  N.ar    1  <O>11      -0.2427
  12 C8        6.2355    -7.1081    -7.9764  C.ar    1  <O>11       0.2682
  13 O2        5.6512    -6.6700    -9.1811  O.2     1  <O>11      -0.2661
  14 C9        7.5898    -6.8778    -7.7356  C.ar    1  <O>11       0.0232
  15 C10       8.0986    -7.2942    -6.4941  C.ar    1  <O>11      -0.0157
  16 C11       9.5420    -7.1085    -6.1140  C.3     1  <O>11      -0.0255
  17 C12      10.2638    -6.0813    -6.9829  C.3     1  <O>11      -0.0487
  18 C13       9.9668    -6.3337    -8.4540  C.3     1  <O>11      -0.0486
  19 C14       8.4736    -6.1770    -8.7352  C.3     1  <O>11      -0.0222
  20 N4        5.5335    -9.1807    -4.0213  N.2     1  <O>11      -0.0504
  21 C15       1.4620   -10.1610    -4.6040  C.ar    1  <O>11       0.0616
  22 C16       0.8010    -9.7730    -5.7710  C.ar    1  <O>11      -0.0474
  23 C17      -0.5500   -10.0960    -5.9410  C.ar    1  <O>11      -0.0610
  24 C18      -1.2340   -10.8060    -4.9510  C.ar    1  <O>11      -0.0617
  25 C19      -0.5560   -11.1930    -3.7890  C.ar    1  <O>11      -0.0610
  26 C20       0.7910   -10.8780    -3.6110  C.ar    1  <O>11      -0.0474
  27 H1        3.0270   -10.7100    -2.5640  H       1  <O>11       0.3016
  28 H2        5.2391   -10.7431    -1.1371  H       1  <O>11       0.0657
  29 H3        7.1999    -8.9258    -1.4198  H       1  <O>11       0.0392
  30 H4        7.6934   -10.4651    -2.1638  H       1  <O>11       0.0392
  31 H5        8.6119    -9.1335    -4.4694  H       1  <O>11       0.0411
  32 H6        8.1814    -7.5738    -3.7265  H       1  <O>11       0.0411
  33 H7        4.4545    -7.8974    -7.3186  H       1  <O>11       0.1921
  34 H8        9.5870    -6.7772    -5.0760  H       1  <O>11       0.0314
  35 H9       10.0527    -8.0667    -6.2137  H       1  <O>11       0.0314
  36 H10       9.9240    -5.0812    -6.7139  H       1  <O>11       0.0268
  37 H11      11.3390    -6.1588    -6.8141  H       1  <O>11       0.0268
  38 H12      10.5222    -5.6178    -9.0599  H       1  <O>11       0.0269
  39 H13      10.2758    -7.3469    -8.7126  H       1  <O>11       0.0269
  40 H14       8.2314    -5.1145    -8.7203  H       1  <O>11       0.0315
  41 H15       8.2652    -6.5836    -9.7233  H       1  <O>11       0.0315
  42 H16       1.3059    -9.2509    -6.5042  H       1  <O>11       0.0626
  43 H17      -1.0429    -9.8087    -6.8009  H       1  <O>11       0.0618
  44 H18      -2.2307   -11.0431    -5.0753  H       1  <O>11       0.0618
  45 H19      -1.0585   -11.7173    -3.0558  H       1  <O>11       0.0618
  46 H20       1.2865   -11.1716    -2.7547  H       1  <O>11       0.0626
@<TRIPOS>BOND
     1     1     2    2
     2     2     3   am
     3     3     4    1
     4     4     5    2
     5     5     6    1
     6     6     7    1
     7     7     8    1
     8     8     9    1
     9     9    10   ar
    10    10    11   ar
    11    11    12   ar
    12    12    13    2
    13    12    14   ar
    14    14    15   ar
    15     9    15   ar
    16    15    16    1
    17    16    17    1
    18    17    18    1
    19    18    19    1
    20    14    19    1
    21     7    20    2
    22     4    20    1
    23     2    21    1
    24    21    22   ar
    25    22    23   ar
    26    23    24   ar
    27    24    25   ar
    28    25    26   ar
    29    21    26   ar
    30     3    27    1
    31     5    28    1
    32     6    29    1
    33     6    30    1
    34     8    31    1
    35     8    32    1
    36    11    33    1
    37    16    34    1
    38    16    35    1
    39    17    36    1
    40    17    37    1
    41    18    38    1
    42    18    39    1
    43    19    40    1
    44    19    41    1
    45    22    42    1
    46    23    43    1
    47    24    44    1
    48    25    45    1
    49    26    46    1
@<TRIPOS>MOLECULE
mol70_1_26
 46 49 0 0 0
SMALL
USER_CHARGES
****
VDW energy = -85.80
@<TRIPOS>ATOM
   1 O1        3.4420    -9.1855    -5.2979  O.2     1  <O>11      -0.2418
   2 C1        2.8552    -9.8129    -4.4288  C.2     1  <O>11       0.3328
   3 N1        3.5160   -10.1860    -3.2900  N.am    1  <O>11      -0.1668
   4 C2        4.8350    -9.8570    -3.1240  C.2     1  <O>11       0.3148
   5 C3        5.5518   -10.1960    -2.0144  C.2     1  <O>11       0.0147
   6 C4        6.9431    -9.6753    -2.1679  C.3     1  <O>11       0.0359
   7 C5        6.7246    -9.0898    -3.5231  C.2     1  <O>11       0.1407
   8 C6        7.8029    -8.4257    -4.2926  C.3     1  <O>11       0.0541
   9 C7        7.8250    -6.9761    -3.9651  C.ar    1  <O>11       0.0726
  10 N2        8.9656    -6.4076    -3.4128  N.ar    1  <O>11      -0.1752
  11 N3        8.9951    -5.0831    -3.1115  N.ar    1  <O>11      -0.2427
  12 C8        7.9060    -4.3206    -3.3432  C.ar    1  <O>11       0.2682
  13 O2        8.0065    -2.9513    -3.0277  O.2     1  <O>11      -0.2661
  14 C9        6.7191    -4.8279    -3.8716  C.ar    1  <O>11       0.0232
  15 C10       6.7015    -6.1907    -4.2121  C.ar    1  <O>11      -0.0157
  16 C11       5.4827    -6.8602    -4.7854  C.3     1  <O>11      -0.0255
  17 C12       4.4622    -5.8715    -5.3442  C.3     1  <O>11      -0.0487
  18 C13       4.2243    -4.7424    -4.3519  C.3     1  <O>11      -0.0486
  19 C14       5.5125    -3.9575    -4.1122  C.3     1  <O>11      -0.0222
  20 N4        5.5335    -9.1807    -4.0213  N.2     1  <O>11      -0.0504
  21 C15       1.4620   -10.1610    -4.6040  C.ar    1  <O>11       0.0616
  22 C16       0.5946   -10.0837    -3.5126  C.ar    1  <O>11      -0.0474
  23 C17      -0.7516   -10.4309    -3.6727  C.ar    1  <O>11      -0.0610
  24 C18      -1.2274   -10.8492    -4.9180  C.ar    1  <O>11      -0.0617
  25 C19      -0.3466   -10.9160    -6.0041  C.ar    1  <O>11      -0.0610
  26 C20       0.9963   -10.5699    -5.8555  C.ar    1  <O>11      -0.0474
  27 H1        3.0270   -10.7100    -2.5640  H       1  <O>11       0.3016
  28 H2        5.2391   -10.7431    -1.1371  H       1  <O>11       0.0657
  29 H3        7.1999    -8.9258    -1.4198  H       1  <O>11       0.0392
  30 H4        7.6934   -10.4651    -2.1638  H       1  <O>11       0.0392
  31 H5        7.6206    -8.5546    -5.3589  H       1  <O>11       0.0411
  32 H6        8.7633    -8.8710    -4.0307  H       1  <O>11       0.0411
  33 H7        9.8317    -4.6774    -2.7169  H       1  <O>11       0.1921
  34 H8        5.7987    -7.5243    -5.5907  H       1  <O>11       0.0314
  35 H9        5.0048    -7.4434    -3.9978  H       1  <O>11       0.0314
  36 H10       4.8395    -5.4555    -6.2784  H       1  <O>11       0.0268
  37 H11       3.5213    -6.3917    -5.5302  H       1  <O>11       0.0268
  38 H12       3.4640    -4.0700    -4.7494  H       1  <O>11       0.0269
  39 H13       3.8800    -5.1635    -3.4068  H       1  <O>11       0.0269
  40 H14       5.7059    -3.3395    -4.9888  H       1  <O>11       0.0315
  41 H15       5.3696    -3.3194    -3.2418  H       1  <O>11       0.0315
  42 H16       0.9443    -9.7723    -2.5929  H       1  <O>11       0.0626
  43 H17      -1.3953   -10.3778    -2.8679  H       1  <O>11       0.0618
  44 H18      -2.2197   -11.1068    -5.0362  H       1  <O>11       0.0618
  45 H19      -0.6950   -11.2248    -6.9251  H       1  <O>11       0.0618
  46 H20       1.6389   -10.6156    -6.6617  H       1  <O>11       0.0626
@<TRIPOS>BOND
     1     1     2    2
     2     2     3   am
     3     3     4    1
     4     4     5    2
     5     5     6    1
     6     6     7    1
     7     7     8    1
     8     8     9    1
     9     9    10   ar
    10    10    11   ar
    11    11    12   ar
    12    12    13    2
    13    12    14   ar
    14    14    15   ar
    15     9    15   ar
    16    15    16    1
    17    16    17    1
    18    17    18    1
    19    18    19    1
    20    14    19    1
    21     7    20    2
    22     4    20    1
    23     2    21    1
    24    21    22   ar
    25    22    23   ar
    26    23    24   ar
    27    24    25   ar
    28    25    26   ar
    29    21    26   ar
    30     3    27    1
    31     5    28    1
    32     6    29    1
    33     6    30    1
    34     8    31    1
    35     8    32    1
    36    11    33    1
    37    16    34    1
    38    16    35    1
    39    17    36    1
    40    17    37    1
    41    18    38    1
    42    18    39    1
    43    19    40    1
    44    19    41    1
    45    22    42    1
    46    23    43    1
    47    24    44    1
    48    25    45    1
    49    26    46    1
@<TRIPOS>MOLECULE
mol70_1_27
 46 49 0 0 0
SMALL
USER_CHARGES
****
VDW energy = -84.77
@<TRIPOS>ATOM
   1 O1        3.4420    -9.1855    -5.2979  O.2     1  <O>11      -0.2418
   2 C1        2.8552    -9.8129    -4.4288  C.2     1  <O>11       0.3328
   3 N1        3.5160   -10.1860    -3.2900  N.am    1  <O>11      -0.1668
   4 C2        4.8350    -9.8570    -3.1240  C.2     1  <O>11       0.3148
   5 C3        5.5500    -9.1600    -4.0530  C.2     1  <O>11       0.0147
   6 C4        6.9450    -8.9860    -3.5490  C.3     1  <O>11       0.0359
   7 C5        6.7130    -9.6850    -2.2510  C.2     1  <O>11       0.1407
   8 C6        7.7630    -9.8190    -1.2140  C.3     1  <O>11       0.0541
   9 C7        7.2170   -10.5630    -0.0490  C.ar    1  <O>11       0.0726
  10 N2        7.1845    -9.9630     1.2033  N.ar    1  <O>11      -0.1752
  11 N3        6.6860   -10.6352     2.2735  N.ar    1  <O>11      -0.2427
  12 C8        6.2288   -11.8953     2.1174  C.ar    1  <O>11       0.2682
  13 O2        5.7064   -12.5313     3.2609  O.2     1  <O>11      -0.2661
  14 C9        6.2532   -12.5690     0.8964  C.ar    1  <O>11       0.0232
  15 C10       6.7395   -11.8609    -0.2152  C.ar    1  <O>11      -0.0157
  16 C11       6.8225   -12.4750    -1.5857  C.3     1  <O>11      -0.0255
  17 C12       5.9619   -13.7272    -1.7351  C.3     1  <O>11      -0.0487
  18 C13       6.1755   -14.6579    -0.5501  C.3     1  <O>11      -0.0486
  19 C14       5.7455   -13.9804     0.7495  C.3     1  <O>11      -0.0222
  20 N4        5.5360   -10.1850    -2.0510  N.2     1  <O>11      -0.0504
  21 C15       1.4620   -10.1610    -4.6040  C.ar    1  <O>11       0.0616
  22 C16       0.8010    -9.7730    -5.7710  C.ar    1  <O>11      -0.0474
  23 C17      -0.5500   -10.0960    -5.9410  C.ar    1  <O>11      -0.0610
  24 C18      -1.2340   -10.8060    -4.9510  C.ar    1  <O>11      -0.0617
  25 C19      -0.5560   -11.1930    -3.7890  C.ar    1  <O>11      -0.0610
  26 C20       0.7910   -10.8780    -3.6110  C.ar    1  <O>11      -0.0474
  27 H1        3.0270   -10.7100    -2.5640  H       1  <O>11       0.3016
  28 H2        5.2340    -8.7690    -5.0090  H       1  <O>11       0.0657
  29 H3        7.6860    -9.4860    -4.1720  H       1  <O>11       0.0392
  30 H4        7.2220    -7.9400    -3.4230  H       1  <O>11       0.0392
  31 H5        8.0860    -8.8290    -0.8940  H       1  <O>11       0.0411
  32 H6        8.6130   -10.3640    -1.6260  H       1  <O>11       0.0411
  33 H7        6.6600   -10.1878     3.1786  H       1  <O>11       0.1921
  34 H8        6.4904   -11.7370    -2.3167  H       1  <O>11       0.0314
  35 H9        7.8609   -12.7426    -1.7833  H       1  <O>11       0.0314
  36 H10       4.9119   -13.4381    -1.7804  H       1  <O>11       0.0268
  37 H11       6.2374   -14.2459    -2.6547  H       1  <O>11       0.0268
  38 H12       5.5856   -15.5631    -0.6942  H       1  <O>11       0.0269
  39 H13       7.2324   -14.9184    -0.4859  H       1  <O>11       0.0269
  40 H14       4.6563   -13.9571     0.7802  H       1  <O>11       0.0315
  41 H15       6.1202   -14.5695     1.5849  H       1  <O>11       0.0315
  42 H16       1.3059    -9.2509    -6.5042  H       1  <O>11       0.0626
  43 H17      -1.0429    -9.8087    -6.8009  H       1  <O>11       0.0618
  44 H18      -2.2307   -11.0431    -5.0753  H       1  <O>11       0.0618
  45 H19      -1.0585   -11.7173    -3.0558  H       1  <O>11       0.0618
  46 H20       1.2865   -11.1716    -2.7547  H       1  <O>11       0.0626
@<TRIPOS>BOND
     1     1     2    2
     2     2     3   am
     3     3     4    1
     4     4     5    2
     5     5     6    1
     6     6     7    1
     7     7     8    1
     8     8     9    1
     9     9    10   ar
    10    10    11   ar
    11    11    12   ar
    12    12    13    2
    13    12    14   ar
    14    14    15   ar
    15     9    15   ar
    16    15    16    1
    17    16    17    1
    18    17    18    1
    19    18    19    1
    20    14    19    1
    21     7    20    2
    22     4    20    1
    23     2    21    1
    24    21    22   ar
    25    22    23   ar
    26    23    24   ar
    27    24    25   ar
    28    25    26   ar
    29    21    26   ar
    30     3    27    1
    31     5    28    1
    32     6    29    1
    33     6    30    1
    34     8    31    1
    35     8    32    1
    36    11    33    1
    37    16    34    1
    38    16    35    1
    39    17    36    1
    40    17    37    1
    41    18    38    1
    42    18    39    1
    43    19    40    1
    44    19    41    1
    45    22    42    1
    46    23    43    1
    47    24    44    1
    48    25    45    1
    49    26    46    1
@<TRIPOS>MOLECULE
mol70_1_28
 46 49 0 0 0
SMALL
USER_CHARGES
****
VDW energy = -82.17
@<TRIPOS>ATOM
   1 O1        3.4420    -9.1855    -5.2979  O.2     1  <O>11      -0.2418
   2 C1        2.8552    -9.8129    -4.4288  C.2     1  <O>11       0.3328
   3 N1        3.5160   -10.1860    -3.2900  N.am    1  <O>11      -0.1668
   4 C2        4.8350    -9.8570    -3.1240  C.2     1  <O>11       0.3148
   5 C3        5.5518   -10.1960    -2.0144  C.2     1  <O>11       0.0147
   6 C4        6.9431    -9.6753    -2.1679  C.3     1  <O>11       0.0359
   7 C5        6.7246    -9.0898    -3.5231  C.2     1  <O>11       0.1407
   8 C6        7.8029    -8.4257    -4.2926  C.3     1  <O>11       0.0541
   9 C7        7.2640    -7.9533    -5.5946  C.ar    1  <O>11       0.0726
  10 N2        7.8064    -8.4271    -6.7823  N.ar    1  <O>11      -0.1752
  11 N3        7.3191    -8.0018    -7.9770  N.ar    1  <O>11      -0.2427
  12 C8        6.3087    -7.1077    -8.0065  C.ar    1  <O>11       0.2682
  13 O2        5.8350    -6.7212    -9.2758  O.2     1  <O>11      -0.2661
  14 C9        5.7326    -6.5706    -6.8554  C.ar    1  <O>11       0.0232
  15 C10       6.2163    -7.0358    -5.6213  C.ar    1  <O>11      -0.0157
  16 C11       5.6829    -6.5329    -4.3079  C.3     1  <O>11      -0.0255
  17 C12       4.3327    -5.8321    -4.4376  C.3     1  <O>11      -0.0487
  18 C13       4.3617    -4.8419    -5.5929  C.3     1  <O>11      -0.0486
  19 C14       4.6111    -5.5656    -6.9147  C.3     1  <O>11      -0.0222
  20 N4        5.5335    -9.1807    -4.0213  N.2     1  <O>11      -0.0504
  21 C15       1.4620   -10.1610    -4.6040  C.ar    1  <O>11       0.0616
  22 C16       1.0134   -11.4175    -4.1926  C.ar    1  <O>11      -0.0474
  23 C17      -0.3305   -11.7649    -4.3706  C.ar    1  <O>11      -0.0610
  24 C18      -1.2205   -10.8590    -4.9532  C.ar    1  <O>11      -0.0617
  25 C19      -0.7568    -9.6008    -5.3553  C.ar    1  <O>11      -0.0610
  26 C20       0.5801    -9.2441    -5.1802  C.ar    1  <O>11      -0.0474
  27 H1        3.0270   -10.7100    -2.5640  H       1  <O>11       0.3016
  28 H2        5.2391   -10.7431    -1.1371  H       1  <O>11       0.0657
  29 H3        7.1999    -8.9258    -1.4198  H       1  <O>11       0.0392
  30 H4        7.6934   -10.4651    -2.1638  H       1  <O>11       0.0392
  31 H5        8.6119    -9.1335    -4.4694  H       1  <O>11       0.0411
  32 H6        8.1814    -7.5738    -3.7265  H       1  <O>11       0.0411
  33 H7        7.7154    -8.3575    -8.8352  H       1  <O>11       0.1921
  34 H8        5.5695    -7.3815    -3.6323  H       1  <O>11       0.0314
  35 H9        6.4010    -5.8269    -3.8897  H       1  <O>11       0.0314
  36 H10       3.5580    -6.5765    -4.6215  H       1  <O>11       0.0268
  37 H11       4.1134    -5.2986    -3.5114  H       1  <O>11       0.0268
  38 H12       3.4048    -4.3225    -5.6440  H       1  <O>11       0.0269
  39 H13       5.1601    -4.1186    -5.4240  H       1  <O>11       0.0269
  40 H14       3.6977    -6.0885    -7.1971  H       1  <O>11       0.0315
  41 H15       4.8542    -4.8230    -7.6728  H       1  <O>11       0.0315
  42 H16       1.6693   -12.0865    -3.7596  H       1  <O>11       0.0626
  43 H17      -0.6655   -12.6936    -4.0704  H       1  <O>11       0.0618
  44 H18      -2.2113   -11.1153    -5.0861  H       1  <O>11       0.0618
  45 H19      -1.4117    -8.9296    -5.7862  H       1  <O>11       0.0618
  46 H20       0.9141    -8.3127    -5.4733  H       1  <O>11       0.0626
@<TRIPOS>BOND
     1     1     2    2
     2     2     3   am
     3     3     4    1
     4     4     5    2
     5     5     6    1
     6     6     7    1
     7     7     8    1
     8     8     9    1
     9     9    10   ar
    10    10    11   ar
    11    11    12   ar
    12    12    13    2
    13    12    14   ar
    14    14    15   ar
    15     9    15   ar
    16    15    16    1
    17    16    17    1
    18    17    18    1
    19    18    19    1
    20    14    19    1
    21     7    20    2
    22     4    20    1
    23     2    21    1
    24    21    22   ar
    25    22    23   ar
    26    23    24   ar
    27    24    25   ar
    28    25    26   ar
    29    21    26   ar
    30     3    27    1
    31     5    28    1
    32     6    29    1
    33     6    30    1
    34     8    31    1
    35     8    32    1
    36    11    33    1
    37    16    34    1
    38    16    35    1
    39    17    36    1
    40    17    37    1
    41    18    38    1
    42    18    39    1
    43    19    40    1
    44    19    41    1
    45    22    42    1
    46    23    43    1
    47    24    44    1
    48    25    45    1
    49    26    46    1
@<TRIPOS>MOLECULE
mol70_1_29
 46 49 0 0 0
SMALL
USER_CHARGES
****
VDW energy = -81.57
@<TRIPOS>ATOM
   1 O1        3.4420    -9.1855    -5.2979  O.2     1  <O>11      -0.2418
   2 C1        2.8552    -9.8129    -4.4288  C.2     1  <O>11       0.3328
   3 N1        3.5160   -10.1860    -3.2900  N.am    1  <O>11      -0.1668
   4 C2        4.8350    -9.8570    -3.1240  C.2     1  <O>11       0.3148
   5 C3        5.5518   -10.1960    -2.0144  C.2     1  <O>11       0.0147
   6 C4        6.9431    -9.6753    -2.1679  C.3     1  <O>11       0.0359
   7 C5        6.7246    -9.0898    -3.5231  C.2     1  <O>11       0.1407
   8 C6        7.8029    -8.4257    -4.2926  C.3     1  <O>11       0.0541
   9 C7        7.2640    -7.9533    -5.5946  C.ar    1  <O>11       0.0726
  10 N2        7.3021    -6.6014    -5.9112  N.ar    1  <O>11      -0.1752
  11 N3        6.8130    -6.1610    -7.0997  N.ar    1  <O>11      -0.2427
  12 C8        6.2801    -7.0429    -7.9711  C.ar    1  <O>11       0.2682
  13 O2        5.8080    -6.5264    -9.1939  O.2     1  <O>11      -0.2661
  14 C9        6.1858    -8.4098    -7.7103  C.ar    1  <O>11       0.0232
  15 C10       6.7211    -8.8673    -6.4947  C.ar    1  <O>11      -0.0157
  16 C11       6.6784   -10.3160    -6.0924  C.3     1  <O>11      -0.0255
  17 C12       6.4084   -11.2563    -7.2645  C.3     1  <O>11      -0.0487
  18 C13       5.2446   -10.7391    -8.0977  C.3     1  <O>11      -0.0486
  19 C14       5.5772    -9.3737    -8.6961  C.3     1  <O>11      -0.0222
  20 N4        5.5335    -9.1807    -4.0213  N.2     1  <O>11      -0.0504
  21 C15       1.4620   -10.1610    -4.6040  C.ar    1  <O>11       0.0616
  22 C16       0.8010    -9.7730    -5.7710  C.ar    1  <O>11      -0.0474
  23 C17      -0.5500   -10.0960    -5.9410  C.ar    1  <O>11      -0.0610
  24 C18      -1.2340   -10.8060    -4.9510  C.ar    1  <O>11      -0.0617
  25 C19      -0.5560   -11.1930    -3.7890  C.ar    1  <O>11      -0.0610
  26 C20       0.7910   -10.8780    -3.6110  C.ar    1  <O>11      -0.0474
  27 H1        3.0270   -10.7100    -2.5640  H       1  <O>11       0.3016
  28 H2        5.2391   -10.7431    -1.1371  H       1  <O>11       0.0657
  29 H3        7.1999    -8.9258    -1.4198  H       1  <O>11       0.0392
  30 H4        7.6934   -10.4651    -2.1638  H       1  <O>11       0.0392
  31 H5        8.6119    -9.1335    -4.4694  H       1  <O>11       0.0411
  32 H6        8.1814    -7.5738    -3.7265  H       1  <O>11       0.0411
  33 H7        6.8517    -5.1769    -7.3238  H       1  <O>11       0.1921
  34 H8        7.6392   -10.5810    -5.6497  H       1  <O>11       0.0314
  35 H9        5.8875   -10.4474    -5.3534  H       1  <O>11       0.0314
  36 H10       7.2993   -11.3162    -7.8895  H       1  <O>11       0.0268
  37 H11       6.1642   -12.2484    -6.8814  H       1  <O>11       0.0268
  38 H12       5.0402   -11.4433    -8.9042  H       1  <O>11       0.0269
  39 H13       4.3630   -10.6470    -7.4625  H       1  <O>11       0.0269
  40 H14       6.2841    -9.5199    -9.5125  H       1  <O>11       0.0315
  41 H15       4.6593    -8.9353    -9.0839  H       1  <O>11       0.0315
  42 H16       1.3059    -9.2509    -6.5042  H       1  <O>11       0.0626
  43 H17      -1.0429    -9.8087    -6.8009  H       1  <O>11       0.0618
  44 H18      -2.2307   -11.0431    -5.0753  H       1  <O>11       0.0618
  45 H19      -1.0585   -11.7173    -3.0558  H       1  <O>11       0.0618
  46 H20       1.2865   -11.1716    -2.7547  H       1  <O>11       0.0626
@<TRIPOS>BOND
     1     1     2    2
     2     2     3   am
     3     3     4    1
     4     4     5    2
     5     5     6    1
     6     6     7    1
     7     7     8    1
     8     8     9    1
     9     9    10   ar
    10    10    11   ar
    11    11    12   ar
    12    12    13    2
    13    12    14   ar
    14    14    15   ar
    15     9    15   ar
    16    15    16    1
    17    16    17    1
    18    17    18    1
    19    18    19    1
    20    14    19    1
    21     7    20    2
    22     4    20    1
    23     2    21    1
    24    21    22   ar
    25    22    23   ar
    26    23    24   ar
    27    24    25   ar
    28    25    26   ar
    29    21    26   ar
    30     3    27    1
    31     5    28    1
    32     6    29    1
    33     6    30    1
    34     8    31    1
    35     8    32    1
    36    11    33    1
    37    16    34    1
    38    16    35    1
    39    17    36    1
    40    17    37    1
    41    18    38    1
    42    18    39    1
    43    19    40    1
    44    19    41    1
    45    22    42    1
    46    23    43    1
    47    24    44    1
    48    25    45    1
    49    26    46    1
@<TRIPOS>MOLECULE
mol70_1_30
 46 49 0 0 0
SMALL
USER_CHARGES
****
VDW energy = -77.36
@<TRIPOS>ATOM
   1 O1        3.4420    -9.1855    -5.2979  O.2     1  <O>11      -0.2418
   2 C1        2.8552    -9.8129    -4.4288  C.2     1  <O>11       0.3328
   3 N1        3.5160   -10.1860    -3.2900  N.am    1  <O>11      -0.1668
   4 C2        4.8350    -9.8570    -3.1240  C.2     1  <O>11       0.3148
   5 C3        5.5518   -10.1960    -2.0144  C.2     1  <O>11       0.0147
   6 C4        6.9431    -9.6753    -2.1679  C.3     1  <O>11       0.0359
   7 C5        6.7246    -9.0898    -3.5231  C.2     1  <O>11       0.1407
   8 C6        7.8029    -8.4257    -4.2926  C.3     1  <O>11       0.0541
   9 C7        7.2640    -7.9533    -5.5946  C.ar    1  <O>11       0.0726
  10 N2        7.8064    -8.4271    -6.7823  N.ar    1  <O>11      -0.1752
  11 N3        7.3191    -8.0018    -7.9770  N.ar    1  <O>11      -0.2427
  12 C8        6.3087    -7.1077    -8.0065  C.ar    1  <O>11       0.2682
  13 O2        5.8350    -6.7212    -9.2758  O.2     1  <O>11      -0.2661
  14 C9        5.7326    -6.5706    -6.8554  C.ar    1  <O>11       0.0232
  15 C10       6.2163    -7.0358    -5.6213  C.ar    1  <O>11      -0.0157
  16 C11       5.6829    -6.5329    -4.3079  C.3     1  <O>11      -0.0255
  17 C12       4.3327    -5.8321    -4.4376  C.3     1  <O>11      -0.0487
  18 C13       4.3617    -4.8419    -5.5929  C.3     1  <O>11      -0.0486
  19 C14       4.6111    -5.5656    -6.9147  C.3     1  <O>11      -0.0222
  20 N4        5.5335    -9.1807    -4.0213  N.2     1  <O>11      -0.0504
  21 C15       1.4620   -10.1610    -4.6040  C.ar    1  <O>11       0.0616
  22 C16       0.8010    -9.7730    -5.7710  C.ar    1  <O>11      -0.0474
  23 C17      -0.5500   -10.0960    -5.9410  C.ar    1  <O>11      -0.0610
  24 C18      -1.2340   -10.8060    -4.9510  C.ar    1  <O>11      -0.0617
  25 C19      -0.5560   -11.1930    -3.7890  C.ar    1  <O>11      -0.0610
  26 C20       0.7910   -10.8780    -3.6110  C.ar    1  <O>11      -0.0474
  27 H1        3.0270   -10.7100    -2.5640  H       1  <O>11       0.3016
  28 H2        5.2391   -10.7431    -1.1371  H       1  <O>11       0.0657
  29 H3        7.1999    -8.9258    -1.4198  H       1  <O>11       0.0392
  30 H4        7.6934   -10.4651    -2.1638  H       1  <O>11       0.0392
  31 H5        8.6119    -9.1335    -4.4694  H       1  <O>11       0.0411
  32 H6        8.1814    -7.5738    -3.7265  H       1  <O>11       0.0411
  33 H7        7.7154    -8.3575    -8.8352  H       1  <O>11       0.1921
  34 H8        5.5695    -7.3815    -3.6323  H       1  <O>11       0.0314
  35 H9        6.4010    -5.8269    -3.8897  H       1  <O>11       0.0314
  36 H10       3.5580    -6.5765    -4.6215  H       1  <O>11       0.0268
  37 H11       4.1134    -5.2986    -3.5114  H       1  <O>11       0.0268
  38 H12       3.4048    -4.3225    -5.6440  H       1  <O>11       0.0269
  39 H13       5.1601    -4.1186    -5.4240  H       1  <O>11       0.0269
  40 H14       3.6977    -6.0885    -7.1971  H       1  <O>11       0.0315
  41 H15       4.8542    -4.8230    -7.6728  H       1  <O>11       0.0315
  42 H16       1.3059    -9.2509    -6.5042  H       1  <O>11       0.0626
  43 H17      -1.0429    -9.8087    -6.8009  H       1  <O>11       0.0618
  44 H18      -2.2307   -11.0431    -5.0753  H       1  <O>11       0.0618
  45 H19      -1.0585   -11.7173    -3.0558  H       1  <O>11       0.0618
  46 H20       1.2865   -11.1716    -2.7547  H       1  <O>11       0.0626
@<TRIPOS>BOND
     1     1     2    2
     2     2     3   am
     3     3     4    1
     4     4     5    2
     5     5     6    1
     6     6     7    1
     7     7     8    1
     8     8     9    1
     9     9    10   ar
    10    10    11   ar
    11    11    12   ar
    12    12    13    2
    13    12    14   ar
    14    14    15   ar
    15     9    15   ar
    16    15    16    1
    17    16    17    1
    18    17    18    1
    19    18    19    1
    20    14    19    1
    21     7    20    2
    22     4    20    1
    23     2    21    1
    24    21    22   ar
    25    22    23   ar
    26    23    24   ar
    27    24    25   ar
    28    25    26   ar
    29    21    26   ar
    30     3    27    1
    31     5    28    1
    32     6    29    1
    33     6    30    1
    34     8    31    1
    35     8    32    1
    36    11    33    1
    37    16    34    1
    38    16    35    1
    39    17    36    1
    40    17    37    1
    41    18    38    1
    42    18    39    1
    43    19    40    1
    44    19    41    1
    45    22    42    1
    46    23    43    1
    47    24    44    1
    48    25    45    1
    49    26    46    1
