@<TRIPOS>MOLECULE
mol88_1_1
 47 49 0 0 0
SMALL
USER_CHARGES
****
VDW energy = 140.28
@<TRIPOS>ATOM
   1 N1        2.8495    -9.8143    -4.4295  N.pl3   1  <O>11      -0.3543
   2 C1        1.4617   -10.1611    -4.6036  C.ar    1  <O>11       0.0829
   3 C2        0.8050   -10.8783    -3.6012  C.ar    1  <O>11       0.1458
   4 F1        1.4699   -11.2386    -2.4576  F       1  <O>11      -0.2035
   5 C3       -0.5391   -11.2290    -3.7692  C.ar    1  <O>11      -0.0245
   6 C4       -1.2224   -10.8607    -4.9311  C.ar    1  <O>11      -0.0571
   7 C5       -0.5527   -10.1366    -5.9237  C.ar    1  <O>11      -0.0374
   8 C6        0.7874    -9.7806    -5.7650  C.ar    1  <O>11       0.0714
   9 N2        1.4750    -9.0290    -6.7840  N.pl3   1  <O>11      -0.2144
  10 S1        1.2705    -7.3930    -6.8835  S.O2    1  <O>11       0.0724
  11 O1       -0.2936    -7.0566    -7.3352  O.2     1  <O>11      -0.1500
  12 O2        2.3169    -6.7719    -8.0144  O.2     1  <O>11      -0.1500
  13 C7        1.6006    -6.6592    -5.3074  C.ar    1  <O>11       0.1092
  14 C8        0.5567    -6.4548    -4.3872  C.ar    1  <O>11      -0.0350
  15 C9        0.8177    -5.8629    -3.1462  C.ar    1  <O>11      -0.0592
  16 C10       2.1161    -5.4757    -2.8111  C.ar    1  <O>11      -0.0495
  17 C11       3.1561    -5.6861    -3.7236  C.ar    1  <O>11       0.0400
  18 C12       4.5013    -5.2828    -3.3708  C.2     1  <O>11       0.2602
  19 O3        5.2686    -6.0887    -2.8680  O.2     1  <O>11      -0.2687
  20 N3        4.9127    -3.9969    -3.6000  N.am    1  <O>11      -0.2301
  21 N4        6.1895    -3.6139    -3.2652  N.am    1  <O>11      -0.2300
  22 C13       6.5619    -2.3015    -3.3816  C.2     1  <O>11       0.2629
  23 O4        5.7587    -1.4728    -3.7825  O.2     1  <O>11      -0.2686
  24 C14       7.9160    -1.8944    -3.0299  C.ar    1  <O>11       0.0733
  25 C15       8.1872    -1.3536    -1.7605  C.ar    1  <O>11      -0.0468
  26 C16       9.4844    -0.9529    -1.4251  C.ar    1  <O>11      -0.0609
  27 C17      10.5212    -1.0882    -2.3500  C.ar    1  <O>11      -0.0590
  28 C18      10.2540    -1.6346    -3.6128  C.ar    1  <O>11      -0.0257
  29 C19       8.9635    -2.0405    -3.9558  C.ar    1  <O>11       0.1355
  30 F2        8.7025    -2.5803    -5.1878  F       1  <O>11      -0.2047
  31 C20       2.9067    -6.2764    -4.9631  C.ar    1  <O>11      -0.0229
  32 H1        3.3392    -9.2907    -5.1550  H       1  <O>11       0.1425
  33 H2        3.3420   -10.0924    -3.5807  H       1  <O>11       0.1425
  34 H3        2.0891    -9.5062    -7.4433  H       1  <O>11       0.1737
  35 H4        4.2720    -3.3235    -4.0193  H       1  <O>11       0.1731
  36 H5        6.8579    -4.3053    -2.9328  H       1  <O>11       0.1731
  37 H6       -1.0275   -11.7615    -3.0324  H       1  <O>11       0.0647
  38 H7       -2.2132   -11.1207    -5.0562  H       1  <O>11       0.0619
  39 H8       -1.0552    -9.8628    -6.7825  H       1  <O>11       0.0637
  40 H9       -0.4048    -6.7422    -4.6279  H       1  <O>11       0.0637
  41 H10       0.0473    -5.7120    -2.4764  H       1  <O>11       0.0618
  42 H11       2.3079    -5.0374    -1.8967  H       1  <O>11       0.0625
  43 H12       7.4246    -1.2519    -1.0725  H       1  <O>11       0.0626
  44 H13       9.6756    -0.5562    -0.4917  H       1  <O>11       0.0618
  45 H14      11.4777    -0.7880    -2.1057  H       1  <O>11       0.0618
  46 H15      11.0201    -1.7379    -4.2965  H       1  <O>11       0.0646
  47 H16       3.6819    -6.4316    -5.6264  H       1  <O>11       0.0645
@<TRIPOS>BOND
     1     1     2    1
     2     2     3   ar
     3     3     4    1
     4     3     5   ar
     5     5     6   ar
     6     6     7   ar
     7     7     8   ar
     8     2     8   ar
     9     8     9    1
    10     9    10    1
    11    10    11    2
    12    10    12    2
    13    10    13    1
    14    13    14   ar
    15    14    15   ar
    16    15    16   ar
    17    16    17   ar
    18    17    18    1
    19    18    19    2
    20    18    20   am
    21    20    21    1
    22    21    22   am
    23    22    23    2
    24    22    24    1
    25    24    25   ar
    26    25    26   ar
    27    26    27   ar
    28    27    28   ar
    29    28    29   ar
    30    24    29   ar
    31    29    30    1
    32    17    31   ar
    33    13    31   ar
    34     1    32    1
    35     1    33    1
    36     9    34    1
    37    20    35    1
    38    21    36    1
    39     5    37    1
    40     6    38    1
    41     7    39    1
    42    14    40    1
    43    15    41    1
    44    16    42    1
    45    25    43    1
    46    26    44    1
    47    27    45    1
    48    28    46    1
    49    31    47    1
@<TRIPOS>MOLECULE
mol88_1_2
 47 49 0 0 0
SMALL
USER_CHARGES
****
VDW energy = 141.58
@<TRIPOS>ATOM
   1 N1        2.8495    -9.8143    -4.4295  N.pl3   1  <O>11      -0.3543
   2 C1        1.4617   -10.1611    -4.6036  C.ar    1  <O>11       0.0829
   3 C2        0.8050   -10.8783    -3.6012  C.ar    1  <O>11       0.1458
   4 F1        1.4699   -11.2386    -2.4576  F       1  <O>11      -0.2035
   5 C3       -0.5391   -11.2290    -3.7692  C.ar    1  <O>11      -0.0245
   6 C4       -1.2224   -10.8607    -4.9311  C.ar    1  <O>11      -0.0571
   7 C5       -0.5527   -10.1366    -5.9237  C.ar    1  <O>11      -0.0374
   8 C6        0.7874    -9.7806    -5.7650  C.ar    1  <O>11       0.0714
   9 N2        1.4750    -9.0290    -6.7840  N.pl3   1  <O>11      -0.2144
  10 S1        1.2705    -7.3930    -6.8835  S.O2    1  <O>11       0.0724
  11 O1        2.1786    -6.7966    -8.1417  O.2     1  <O>11      -0.1500
  12 O2        1.7638    -6.6858    -5.4636  O.2     1  <O>11      -0.1500
  13 C7       -0.4381    -7.0270    -7.1633  C.ar    1  <O>11       0.1092
  14 C8       -0.9289    -6.8891    -8.4742  C.ar    1  <O>11      -0.0350
  15 C9       -2.2778    -6.5872    -8.6929  C.ar    1  <O>11      -0.0592
  16 C10      -3.1463    -6.4256    -7.6124  C.ar    1  <O>11      -0.0495
  17 C11      -2.6597    -6.5703    -6.3083  C.ar    1  <O>11       0.0400
  18 C12      -3.5651    -6.4018    -5.1909  C.2     1  <O>11       0.2602
  19 O3       -4.1194    -7.3738    -4.7019  O.2     1  <O>11      -0.2687
  20 N3       -3.8008    -5.1520    -4.6833  N.am    1  <O>11      -0.2301
  21 N4       -4.6601    -4.9919    -3.6227  N.am    1  <O>11      -0.2300
  22 C13      -4.9891    -3.7340    -3.1936  C.2     1  <O>11       0.2629
  23 O4       -4.5186    -2.7558    -3.7543  O.2     1  <O>11      -0.2686
  24 C14      -5.8976    -3.5627    -2.0675  C.ar    1  <O>11       0.0733
  25 C15      -7.2644    -3.3173    -2.2895  C.ar    1  <O>11      -0.0468
  26 C16      -8.1358    -3.1424    -1.2097  C.ar    1  <O>11      -0.0609
  27 C17      -7.6538    -3.2112     0.0985  C.ar    1  <O>11      -0.0590
  28 C18      -6.2932    -3.4638     0.3215  C.ar    1  <O>11      -0.0257
  29 C19      -5.4162    -3.6430    -0.7493  C.ar    1  <O>11       0.1355
  30 F2       -4.0872    -3.8959    -0.5323  F       1  <O>11      -0.2047
  31 C20      -1.3168    -6.8723    -6.0793  C.ar    1  <O>11      -0.0229
  32 H1        3.3392    -9.2907    -5.1550  H       1  <O>11       0.1425
  33 H2        3.3420   -10.0924    -3.5807  H       1  <O>11       0.1425
  34 H3        2.0891    -9.5062    -7.4433  H       1  <O>11       0.1737
  35 H4       -3.3385    -4.3401    -5.0919  H       1  <O>11       0.1731
  36 H5       -5.0502    -5.8074    -3.1557  H       1  <O>11       0.1731
  37 H6       -1.0275   -11.7615    -3.0324  H       1  <O>11       0.0647
  38 H7       -2.2132   -11.1207    -5.0562  H       1  <O>11       0.0619
  39 H8       -1.0552    -9.8628    -6.7825  H       1  <O>11       0.0637
  40 H9       -0.2923    -7.0110    -9.2772  H       1  <O>11       0.0637
  41 H10      -2.6317    -6.4837    -9.6569  H       1  <O>11       0.0618
  42 H11      -4.1405    -6.2010    -7.7741  H       1  <O>11       0.0625
  43 H12      -7.6264    -3.2661    -3.2546  H       1  <O>11       0.0626
  44 H13      -9.1375    -2.9620    -1.3805  H       1  <O>11       0.0618
  45 H14      -8.2947    -3.0771     0.8961  H       1  <O>11       0.0618
  46 H15      -5.9360    -3.5178     1.2882  H       1  <O>11       0.0646
  47 H16      -0.9697    -6.9819    -5.1137  H       1  <O>11       0.0645
@<TRIPOS>BOND
     1     1     2    1
     2     2     3   ar
     3     3     4    1
     4     3     5   ar
     5     5     6   ar
     6     6     7   ar
     7     7     8   ar
     8     2     8   ar
     9     8     9    1
    10     9    10    1
    11    10    11    2
    12    10    12    2
    13    10    13    1
    14    13    14   ar
    15    14    15   ar
    16    15    16   ar
    17    16    17   ar
    18    17    18    1
    19    18    19    2
    20    18    20   am
    21    20    21    1
    22    21    22   am
    23    22    23    2
    24    22    24    1
    25    24    25   ar
    26    25    26   ar
    27    26    27   ar
    28    27    28   ar
    29    28    29   ar
    30    24    29   ar
    31    29    30    1
    32    17    31   ar
    33    13    31   ar
    34     1    32    1
    35     1    33    1
    36     9    34    1
    37    20    35    1
    38    21    36    1
    39     5    37    1
    40     6    38    1
    41     7    39    1
    42    14    40    1
    43    15    41    1
    44    16    42    1
    45    25    43    1
    46    26    44    1
    47    27    45    1
    48    28    46    1
    49    31    47    1
@<TRIPOS>MOLECULE
mol88_1_3
 47 49 0 0 0
SMALL
USER_CHARGES
****
VDW energy = 142.45
@<TRIPOS>ATOM
   1 N1        2.8495    -9.8143    -4.4295  N.pl3   1  <O>11      -0.3543
   2 C1        1.4617   -10.1611    -4.6036  C.ar    1  <O>11       0.0829
   3 C2        0.8050   -10.8783    -3.6012  C.ar    1  <O>11       0.1458
   4 F1        1.4699   -11.2386    -2.4576  F       1  <O>11      -0.2035
   5 C3       -0.5391   -11.2290    -3.7692  C.ar    1  <O>11      -0.0245
   6 C4       -1.2224   -10.8607    -4.9311  C.ar    1  <O>11      -0.0571
   7 C5       -0.5527   -10.1366    -5.9237  C.ar    1  <O>11      -0.0374
   8 C6        0.7874    -9.7806    -5.7650  C.ar    1  <O>11       0.0714
   9 N2        1.4750    -9.0290    -6.7840  N.pl3   1  <O>11      -0.2144
  10 S1        1.2705    -7.3930    -6.8835  S.O2    1  <O>11       0.0724
  11 O1       -0.2936    -7.0566    -7.3352  O.2     1  <O>11      -0.1500
  12 O2        2.3169    -6.7719    -8.0144  O.2     1  <O>11      -0.1500
  13 C7        1.6006    -6.6592    -5.3074  C.ar    1  <O>11       0.1092
  14 C8        0.5567    -6.4548    -4.3872  C.ar    1  <O>11      -0.0350
  15 C9        0.8177    -5.8629    -3.1462  C.ar    1  <O>11      -0.0592
  16 C10       2.1161    -5.4757    -2.8111  C.ar    1  <O>11      -0.0495
  17 C11       3.1561    -5.6861    -3.7236  C.ar    1  <O>11       0.0400
  18 C12       4.5013    -5.2828    -3.3708  C.2     1  <O>11       0.2602
  19 O3        5.2686    -6.0887    -2.8680  O.2     1  <O>11      -0.2687
  20 N3        4.9127    -3.9969    -3.6000  N.am    1  <O>11      -0.2301
  21 N4        6.1895    -3.6139    -3.2652  N.am    1  <O>11      -0.2300
  22 C13       6.5619    -2.3015    -3.3816  C.2     1  <O>11       0.2629
  23 O4        5.7587    -1.4728    -3.7825  O.2     1  <O>11      -0.2686
  24 C14       7.9160    -1.8944    -3.0299  C.ar    1  <O>11       0.0733
  25 C15       8.1389    -0.6843    -2.3492  C.ar    1  <O>11      -0.0468
  26 C16       9.4388    -0.2872    -2.0200  C.ar    1  <O>11      -0.0609
  27 C17      10.5261    -1.0918    -2.3650  C.ar    1  <O>11      -0.0590
  28 C18      10.3050    -2.3022    -3.0363  C.ar    1  <O>11      -0.0257
  29 C19       9.0113    -2.7087    -3.3663  C.ar    1  <O>11       0.1355
  30 F2        8.7936    -3.8946    -4.0173  F       1  <O>11      -0.2047
  31 C20       2.9067    -6.2764    -4.9631  C.ar    1  <O>11      -0.0229
  32 H1        3.3392    -9.2907    -5.1550  H       1  <O>11       0.1425
  33 H2        3.3420   -10.0924    -3.5807  H       1  <O>11       0.1425
  34 H3        2.0891    -9.5062    -7.4433  H       1  <O>11       0.1737
  35 H4        4.2720    -3.3235    -4.0193  H       1  <O>11       0.1731
  36 H5        6.8579    -4.3053    -2.9328  H       1  <O>11       0.1731
  37 H6       -1.0275   -11.7615    -3.0324  H       1  <O>11       0.0647
  38 H7       -2.2132   -11.1207    -5.0562  H       1  <O>11       0.0619
  39 H8       -1.0552    -9.8628    -6.7825  H       1  <O>11       0.0637
  40 H9       -0.4048    -6.7422    -4.6279  H       1  <O>11       0.0637
  41 H10       0.0473    -5.7120    -2.4764  H       1  <O>11       0.0618
  42 H11       2.3079    -5.0374    -1.8967  H       1  <O>11       0.0625
  43 H12       7.3387    -0.0859    -2.0910  H       1  <O>11       0.0626
  44 H13       9.5946     0.6026    -1.5210  H       1  <O>11       0.0618
  45 H14      11.4862    -0.7975    -2.1274  H       1  <O>11       0.0618
  46 H15      11.1077    -2.8994    -3.2895  H       1  <O>11       0.0646
  47 H16       3.6819    -6.4316    -5.6264  H       1  <O>11       0.0645
@<TRIPOS>BOND
     1     1     2    1
     2     2     3   ar
     3     3     4    1
     4     3     5   ar
     5     5     6   ar
     6     6     7   ar
     7     7     8   ar
     8     2     8   ar
     9     8     9    1
    10     9    10    1
    11    10    11    2
    12    10    12    2
    13    10    13    1
    14    13    14   ar
    15    14    15   ar
    16    15    16   ar
    17    16    17   ar
    18    17    18    1
    19    18    19    2
    20    18    20   am
    21    20    21    1
    22    21    22   am
    23    22    23    2
    24    22    24    1
    25    24    25   ar
    26    25    26   ar
    27    26    27   ar
    28    27    28   ar
    29    28    29   ar
    30    24    29   ar
    31    29    30    1
    32    17    31   ar
    33    13    31   ar
    34     1    32    1
    35     1    33    1
    36     9    34    1
    37    20    35    1
    38    21    36    1
    39     5    37    1
    40     6    38    1
    41     7    39    1
    42    14    40    1
    43    15    41    1
    44    16    42    1
    45    25    43    1
    46    26    44    1
    47    27    45    1
    48    28    46    1
    49    31    47    1
@<TRIPOS>MOLECULE
mol88_1_4
 47 49 0 0 0
SMALL
USER_CHARGES
****
VDW energy = 142.63
@<TRIPOS>ATOM
   1 N1        2.8495    -9.8143    -4.4295  N.pl3   1  <O>11      -0.3543
   2 C1        1.4617   -10.1611    -4.6036  C.ar    1  <O>11       0.0829
   3 C2        0.8050   -10.8783    -3.6012  C.ar    1  <O>11       0.1458
   4 F1        1.4699   -11.2386    -2.4576  F       1  <O>11      -0.2035
   5 C3       -0.5391   -11.2290    -3.7692  C.ar    1  <O>11      -0.0245
   6 C4       -1.2224   -10.8607    -4.9311  C.ar    1  <O>11      -0.0571
   7 C5       -0.5527   -10.1366    -5.9237  C.ar    1  <O>11      -0.0374
   8 C6        0.7874    -9.7806    -5.7650  C.ar    1  <O>11       0.0714
   9 N2        1.4750    -9.0290    -6.7840  N.pl3   1  <O>11      -0.2144
  10 S1        1.2705    -7.3930    -6.8835  S.O2    1  <O>11       0.0724
  11 O1       -0.2936    -7.0566    -7.3352  O.2     1  <O>11      -0.1500
  12 O2        2.3169    -6.7719    -8.0144  O.2     1  <O>11      -0.1500
  13 C7        1.6006    -6.6592    -5.3074  C.ar    1  <O>11       0.1092
  14 C8        0.5567    -6.4548    -4.3872  C.ar    1  <O>11      -0.0350
  15 C9        0.8177    -5.8629    -3.1462  C.ar    1  <O>11      -0.0592
  16 C10       2.1161    -5.4757    -2.8111  C.ar    1  <O>11      -0.0495
  17 C11       3.1561    -5.6861    -3.7236  C.ar    1  <O>11       0.0400
  18 C12       4.5013    -5.2828    -3.3708  C.2     1  <O>11       0.2602
  19 O3        5.2686    -6.0887    -2.8680  O.2     1  <O>11      -0.2687
  20 N3        4.9127    -3.9969    -3.6000  N.am    1  <O>11      -0.2301
  21 N4        6.1895    -3.6139    -3.2652  N.am    1  <O>11      -0.2300
  22 C13       6.5619    -2.3015    -3.3816  C.2     1  <O>11       0.2629
  23 O4        5.7587    -1.4728    -3.7825  O.2     1  <O>11      -0.2686
  24 C14       7.9160    -1.8944    -3.0299  C.ar    1  <O>11       0.0733
  25 C15       8.5953    -0.9411    -3.8091  C.ar    1  <O>11      -0.0468
  26 C16       9.8988    -0.5569    -3.4787  C.ar    1  <O>11      -0.0609
  27 C17      10.5354    -1.1179    -2.3703  C.ar    1  <O>11      -0.0590
  28 C18       9.8566    -2.0623    -1.5879  C.ar    1  <O>11      -0.0257
  29 C19       8.5545    -2.4497    -1.9074  C.ar    1  <O>11       0.1355
  30 F2        7.8879    -3.3683    -1.1398  F       1  <O>11      -0.2047
  31 C20       2.9067    -6.2764    -4.9631  C.ar    1  <O>11      -0.0229
  32 H1        3.3392    -9.2907    -5.1550  H       1  <O>11       0.1425
  33 H2        3.3420   -10.0924    -3.5807  H       1  <O>11       0.1425
  34 H3        2.0891    -9.5062    -7.4433  H       1  <O>11       0.1737
  35 H4        4.2720    -3.3235    -4.0193  H       1  <O>11       0.1731
  36 H5        6.8579    -4.3053    -2.9328  H       1  <O>11       0.1731
  37 H6       -1.0275   -11.7615    -3.0324  H       1  <O>11       0.0647
  38 H7       -2.2132   -11.1207    -5.0562  H       1  <O>11       0.0619
  39 H8       -1.0552    -9.8628    -6.7825  H       1  <O>11       0.0637
  40 H9       -0.4048    -6.7422    -4.6279  H       1  <O>11       0.0637
  41 H10       0.0473    -5.7120    -2.4764  H       1  <O>11       0.0618
  42 H11       2.3079    -5.0374    -1.8967  H       1  <O>11       0.0625
  43 H12       8.1293    -0.5226    -4.6294  H       1  <O>11       0.0626
  44 H13      10.3912     0.1428    -4.0558  H       1  <O>11       0.0618
  45 H14      11.4991    -0.8393    -2.1285  H       1  <O>11       0.0618
  46 H15      10.3250    -2.4757    -0.7665  H       1  <O>11       0.0646
  47 H16       3.6819    -6.4316    -5.6264  H       1  <O>11       0.0645
@<TRIPOS>BOND
     1     1     2    1
     2     2     3   ar
     3     3     4    1
     4     3     5   ar
     5     5     6   ar
     6     6     7   ar
     7     7     8   ar
     8     2     8   ar
     9     8     9    1
    10     9    10    1
    11    10    11    2
    12    10    12    2
    13    10    13    1
    14    13    14   ar
    15    14    15   ar
    16    15    16   ar
    17    16    17   ar
    18    17    18    1
    19    18    19    2
    20    18    20   am
    21    20    21    1
    22    21    22   am
    23    22    23    2
    24    22    24    1
    25    24    25   ar
    26    25    26   ar
    27    26    27   ar
    28    27    28   ar
    29    28    29   ar
    30    24    29   ar
    31    29    30    1
    32    17    31   ar
    33    13    31   ar
    34     1    32    1
    35     1    33    1
    36     9    34    1
    37    20    35    1
    38    21    36    1
    39     5    37    1
    40     6    38    1
    41     7    39    1
    42    14    40    1
    43    15    41    1
    44    16    42    1
    45    25    43    1
    46    26    44    1
    47    27    45    1
    48    28    46    1
    49    31    47    1
@<TRIPOS>MOLECULE
mol88_1_5
 47 49 0 0 0
SMALL
USER_CHARGES
****
VDW energy = 142.66
@<TRIPOS>ATOM
   1 N1        2.8495    -9.8143    -4.4295  N.pl3   1  <O>11      -0.3543
   2 C1        1.4617   -10.1611    -4.6036  C.ar    1  <O>11       0.0829
   3 C2        0.8050   -10.8783    -3.6012  C.ar    1  <O>11       0.1458
   4 F1        1.4699   -11.2386    -2.4576  F       1  <O>11      -0.2035
   5 C3       -0.5391   -11.2290    -3.7692  C.ar    1  <O>11      -0.0245
   6 C4       -1.2224   -10.8607    -4.9311  C.ar    1  <O>11      -0.0571
   7 C5       -0.5527   -10.1366    -5.9237  C.ar    1  <O>11      -0.0374
   8 C6        0.7874    -9.7806    -5.7650  C.ar    1  <O>11       0.0714
   9 N2        1.4750    -9.0290    -6.7840  N.pl3   1  <O>11      -0.2144
  10 S1        1.2705    -7.3930    -6.8835  S.O2    1  <O>11       0.0724
  11 O1       -0.2936    -7.0566    -7.3352  O.2     1  <O>11      -0.1500
  12 O2        2.3169    -6.7719    -8.0144  O.2     1  <O>11      -0.1500
  13 C7        1.6006    -6.6592    -5.3074  C.ar    1  <O>11       0.1092
  14 C8        0.5567    -6.4548    -4.3872  C.ar    1  <O>11      -0.0350
  15 C9        0.8177    -5.8629    -3.1462  C.ar    1  <O>11      -0.0592
  16 C10       2.1161    -5.4757    -2.8111  C.ar    1  <O>11      -0.0495
  17 C11       3.1561    -5.6861    -3.7236  C.ar    1  <O>11       0.0400
  18 C12       4.5013    -5.2828    -3.3708  C.2     1  <O>11       0.2602
  19 O3        5.2686    -6.0887    -2.8680  O.2     1  <O>11      -0.2687
  20 N3        4.9127    -3.9969    -3.6000  N.am    1  <O>11      -0.2301
  21 N4        4.0489    -3.0893    -4.1647  N.am    1  <O>11      -0.2300
  22 C13       4.4958    -1.8406    -4.5047  C.2     1  <O>11       0.2629
  23 O4        5.6619    -1.5350    -4.3059  O.2     1  <O>11      -0.2686
  24 C14       3.5804    -0.8764    -5.1008  C.ar    1  <O>11       0.0733
  25 C15       3.5357    -0.7094    -6.4963  C.ar    1  <O>11      -0.0468
  26 C16       2.6650     0.2231    -7.0693  C.ar    1  <O>11      -0.0609
  27 C17       1.8320     0.9953    -6.2579  C.ar    1  <O>11      -0.0590
  28 C18       1.8696     0.8242    -4.8673  C.ar    1  <O>11      -0.0257
  29 C19       2.7326    -0.1060    -4.2862  C.ar    1  <O>11       0.1355
  30 F2        2.7659    -0.2782    -2.9272  F       1  <O>11      -0.2047
  31 C20       2.9067    -6.2764    -4.9631  C.ar    1  <O>11      -0.0229
  32 H1        3.3392    -9.2907    -5.1550  H       1  <O>11       0.1425
  33 H2        3.3420   -10.0924    -3.5807  H       1  <O>11       0.1425
  34 H3        2.0891    -9.5062    -7.4433  H       1  <O>11       0.1737
  35 H4        5.8599    -3.7125    -3.3513  H       1  <O>11       0.1731
  36 H5        3.0776    -3.3445    -4.3285  H       1  <O>11       0.1731
  37 H6       -1.0275   -11.7615    -3.0324  H       1  <O>11       0.0647
  38 H7       -2.2132   -11.1207    -5.0562  H       1  <O>11       0.0619
  39 H8       -1.0552    -9.8628    -6.7825  H       1  <O>11       0.0637
  40 H9       -0.4048    -6.7422    -4.6279  H       1  <O>11       0.0637
  41 H10       0.0473    -5.7120    -2.4764  H       1  <O>11       0.0618
  42 H11       2.3079    -5.0374    -1.8967  H       1  <O>11       0.0625
  43 H12       4.1488    -1.2781    -7.1011  H       1  <O>11       0.0626
  44 H13       2.6383     0.3405    -8.0943  H       1  <O>11       0.0618
  45 H14       1.1929     1.6875    -6.6791  H       1  <O>11       0.0618
  46 H15       1.2523     1.3925    -4.2664  H       1  <O>11       0.0646
  47 H16       3.6819    -6.4316    -5.6264  H       1  <O>11       0.0645
@<TRIPOS>BOND
     1     1     2    1
     2     2     3   ar
     3     3     4    1
     4     3     5   ar
     5     5     6   ar
     6     6     7   ar
     7     7     8   ar
     8     2     8   ar
     9     8     9    1
    10     9    10    1
    11    10    11    2
    12    10    12    2
    13    10    13    1
    14    13    14   ar
    15    14    15   ar
    16    15    16   ar
    17    16    17   ar
    18    17    18    1
    19    18    19    2
    20    18    20   am
    21    20    21    1
    22    21    22   am
    23    22    23    2
    24    22    24    1
    25    24    25   ar
    26    25    26   ar
    27    26    27   ar
    28    27    28   ar
    29    28    29   ar
    30    24    29   ar
    31    29    30    1
    32    17    31   ar
    33    13    31   ar
    34     1    32    1
    35     1    33    1
    36     9    34    1
    37    20    35    1
    38    21    36    1
    39     5    37    1
    40     6    38    1
    41     7    39    1
    42    14    40    1
    43    15    41    1
    44    16    42    1
    45    25    43    1
    46    26    44    1
    47    27    45    1
    48    28    46    1
    49    31    47    1
@<TRIPOS>MOLECULE
mol88_1_6
 47 49 0 0 0
SMALL
USER_CHARGES
****
VDW energy = 142.88
@<TRIPOS>ATOM
   1 N1        2.8495    -9.8143    -4.4295  N.pl3   1  <O>11      -0.3543
   2 C1        1.4617   -10.1611    -4.6036  C.ar    1  <O>11       0.0829
   3 C2        0.8050   -10.8783    -3.6012  C.ar    1  <O>11       0.1458
   4 F1        1.4699   -11.2386    -2.4576  F       1  <O>11      -0.2035
   5 C3       -0.5391   -11.2290    -3.7692  C.ar    1  <O>11      -0.0245
   6 C4       -1.2224   -10.8607    -4.9311  C.ar    1  <O>11      -0.0571
   7 C5       -0.5527   -10.1366    -5.9237  C.ar    1  <O>11      -0.0374
   8 C6        0.7874    -9.7806    -5.7650  C.ar    1  <O>11       0.0714
   9 N2        1.4750    -9.0290    -6.7840  N.pl3   1  <O>11      -0.2144
  10 S1        1.2705    -7.3930    -6.8835  S.O2    1  <O>11       0.0724
  11 O1       -0.2936    -7.0566    -7.3352  O.2     1  <O>11      -0.1500
  12 O2        2.3169    -6.7719    -8.0144  O.2     1  <O>11      -0.1500
  13 C7        1.6006    -6.6592    -5.3074  C.ar    1  <O>11       0.1092
  14 C8        0.5567    -6.4548    -4.3872  C.ar    1  <O>11      -0.0350
  15 C9        0.8177    -5.8629    -3.1462  C.ar    1  <O>11      -0.0592
  16 C10       2.1161    -5.4757    -2.8111  C.ar    1  <O>11      -0.0495
  17 C11       3.1561    -5.6861    -3.7236  C.ar    1  <O>11       0.0400
  18 C12       4.5013    -5.2828    -3.3708  C.2     1  <O>11       0.2602
  19 O3        5.2686    -6.0887    -2.8680  O.2     1  <O>11      -0.2687
  20 N3        4.9127    -3.9969    -3.6000  N.am    1  <O>11      -0.2301
  21 N4        6.1895    -3.6139    -3.2652  N.am    1  <O>11      -0.2300
  22 C13       6.5619    -2.3015    -3.3816  C.2     1  <O>11       0.2629
  23 O4        7.6963    -1.9605    -3.0821  O.2     1  <O>11      -0.2686
  24 C14       5.6052    -1.3122    -3.8601  C.ar    1  <O>11       0.0733
  25 C15       5.6004    -0.9256    -5.2121  C.ar    1  <O>11      -0.0468
  26 C16       4.6895     0.0314    -5.6706  C.ar    1  <O>11      -0.0609
  27 C17       3.7763     0.6098    -4.7874  C.ar    1  <O>11      -0.0590
  28 C18       3.7744     0.2196    -3.4412  C.ar    1  <O>11      -0.0257
  29 C19       4.6772    -0.7370    -2.9746  C.ar    1  <O>11       0.1355
  30 F2        4.6723    -1.1236    -1.6601  F       1  <O>11      -0.2047
  31 C20       2.9067    -6.2764    -4.9631  C.ar    1  <O>11      -0.0229
  32 H1        3.3392    -9.2907    -5.1550  H       1  <O>11       0.1425
  33 H2        3.3420   -10.0924    -3.5807  H       1  <O>11       0.1425
  34 H3        2.0891    -9.5062    -7.4433  H       1  <O>11       0.1737
  35 H4        4.2720    -3.3235    -4.0193  H       1  <O>11       0.1731
  36 H5        6.8579    -4.3053    -2.9328  H       1  <O>11       0.1731
  37 H6       -1.0275   -11.7615    -3.0324  H       1  <O>11       0.0647
  38 H7       -2.2132   -11.1207    -5.0562  H       1  <O>11       0.0619
  39 H8       -1.0552    -9.8628    -6.7825  H       1  <O>11       0.0637
  40 H9       -0.4048    -6.7422    -4.6279  H       1  <O>11       0.0637
  41 H10       0.0473    -5.7120    -2.4764  H       1  <O>11       0.0618
  42 H11       2.3079    -5.0374    -1.8967  H       1  <O>11       0.0625
  43 H12       6.2729    -1.3505    -5.8696  H       1  <O>11       0.0626
  44 H13       4.6925     0.3106    -6.6642  H       1  <O>11       0.0618
  45 H14       3.1072     1.3200    -5.1233  H       1  <O>11       0.0618
  46 H15       3.0980     0.6443    -2.7877  H       1  <O>11       0.0646
  47 H16       3.6819    -6.4316    -5.6264  H       1  <O>11       0.0645
@<TRIPOS>BOND
     1     1     2    1
     2     2     3   ar
     3     3     4    1
     4     3     5   ar
     5     5     6   ar
     6     6     7   ar
     7     7     8   ar
     8     2     8   ar
     9     8     9    1
    10     9    10    1
    11    10    11    2
    12    10    12    2
    13    10    13    1
    14    13    14   ar
    15    14    15   ar
    16    15    16   ar
    17    16    17   ar
    18    17    18    1
    19    18    19    2
    20    18    20   am
    21    20    21    1
    22    21    22   am
    23    22    23    2
    24    22    24    1
    25    24    25   ar
    26    25    26   ar
    27    26    27   ar
    28    27    28   ar
    29    28    29   ar
    30    24    29   ar
    31    29    30    1
    32    17    31   ar
    33    13    31   ar
    34     1    32    1
    35     1    33    1
    36     9    34    1
    37    20    35    1
    38    21    36    1
    39     5    37    1
    40     6    38    1
    41     7    39    1
    42    14    40    1
    43    15    41    1
    44    16    42    1
    45    25    43    1
    46    26    44    1
    47    27    45    1
    48    28    46    1
    49    31    47    1
@<TRIPOS>MOLECULE
mol88_1_7
 47 49 0 0 0
SMALL
USER_CHARGES
****
VDW energy = 143.80
@<TRIPOS>ATOM
   1 N1        2.8495    -9.8143    -4.4295  N.pl3   1  <O>11      -0.3543
   2 C1        1.4617   -10.1611    -4.6036  C.ar    1  <O>11       0.0829
   3 C2        0.8050   -10.8783    -3.6012  C.ar    1  <O>11       0.1458
   4 F1        1.4699   -11.2386    -2.4576  F       1  <O>11      -0.2035
   5 C3       -0.5391   -11.2290    -3.7692  C.ar    1  <O>11      -0.0245
   6 C4       -1.2224   -10.8607    -4.9311  C.ar    1  <O>11      -0.0571
   7 C5       -0.5527   -10.1366    -5.9237  C.ar    1  <O>11      -0.0374
   8 C6        0.7874    -9.7806    -5.7650  C.ar    1  <O>11       0.0714
   9 N2        1.4750    -9.0290    -6.7840  N.pl3   1  <O>11      -0.2144
  10 S1        1.2705    -7.3930    -6.8835  S.O2    1  <O>11       0.0724
  11 O1       -0.2936    -7.0566    -7.3352  O.2     1  <O>11      -0.1500
  12 O2        2.3169    -6.7719    -8.0144  O.2     1  <O>11      -0.1500
  13 C7        1.6006    -6.6592    -5.3074  C.ar    1  <O>11       0.1092
  14 C8        0.5567    -6.4548    -4.3872  C.ar    1  <O>11      -0.0350
  15 C9        0.8177    -5.8629    -3.1462  C.ar    1  <O>11      -0.0592
  16 C10       2.1161    -5.4757    -2.8111  C.ar    1  <O>11      -0.0495
  17 C11       3.1561    -5.6861    -3.7236  C.ar    1  <O>11       0.0400
  18 C12       4.5013    -5.2828    -3.3708  C.2     1  <O>11       0.2602
  19 O3        5.2686    -6.0887    -2.8680  O.2     1  <O>11      -0.2687
  20 N3        4.9127    -3.9969    -3.6000  N.am    1  <O>11      -0.2301
  21 N4        4.0489    -3.0893    -4.1647  N.am    1  <O>11      -0.2300
  22 C13       4.4958    -1.8406    -4.5047  C.2     1  <O>11       0.2629
  23 O4        5.6619    -1.5350    -4.3059  O.2     1  <O>11      -0.2686
  24 C14       3.5804    -0.8764    -5.1008  C.ar    1  <O>11       0.0733
  25 C15       4.0121    -0.0406    -6.1461  C.ar    1  <O>11      -0.0468
  26 C16       3.1377     0.8925    -6.7123  C.ar    1  <O>11      -0.0609
  27 C17       1.8274     1.0001    -6.2431  C.ar    1  <O>11      -0.0590
  28 C18       1.3933     0.1621    -5.2068  C.ar    1  <O>11      -0.0257
  29 C19       2.2572    -0.7744    -4.6375  C.ar    1  <O>11       0.1355
  30 F2        1.8320    -1.5981    -3.6284  F       1  <O>11      -0.2047
  31 C20       2.9067    -6.2764    -4.9631  C.ar    1  <O>11      -0.0229
  32 H1        3.3392    -9.2907    -5.1550  H       1  <O>11       0.1425
  33 H2        3.3420   -10.0924    -3.5807  H       1  <O>11       0.1425
  34 H3        2.0891    -9.5062    -7.4433  H       1  <O>11       0.1737
  35 H4        5.8599    -3.7125    -3.3513  H       1  <O>11       0.1731
  36 H5        3.0776    -3.3445    -4.3285  H       1  <O>11       0.1731
  37 H6       -1.0275   -11.7615    -3.0324  H       1  <O>11       0.0647
  38 H7       -2.2132   -11.1207    -5.0562  H       1  <O>11       0.0619
  39 H8       -1.0552    -9.8628    -6.7825  H       1  <O>11       0.0637
  40 H9       -0.4048    -6.7422    -4.6279  H       1  <O>11       0.0637
  41 H10       0.0473    -5.7120    -2.4764  H       1  <O>11       0.0618
  42 H11       2.3079    -5.0374    -1.8967  H       1  <O>11       0.0625
  43 H12       4.9796    -0.1163    -6.4974  H       1  <O>11       0.0626
  44 H13       3.4619     1.5029    -7.4787  H       1  <O>11       0.0618
  45 H14       1.1828     1.6918    -6.6564  H       1  <O>11       0.0618
  46 H15       0.4240     0.2387    -4.8609  H       1  <O>11       0.0646
  47 H16       3.6819    -6.4316    -5.6264  H       1  <O>11       0.0645
@<TRIPOS>BOND
     1     1     2    1
     2     2     3   ar
     3     3     4    1
     4     3     5   ar
     5     5     6   ar
     6     6     7   ar
     7     7     8   ar
     8     2     8   ar
     9     8     9    1
    10     9    10    1
    11    10    11    2
    12    10    12    2
    13    10    13    1
    14    13    14   ar
    15    14    15   ar
    16    15    16   ar
    17    16    17   ar
    18    17    18    1
    19    18    19    2
    20    18    20   am
    21    20    21    1
    22    21    22   am
    23    22    23    2
    24    22    24    1
    25    24    25   ar
    26    25    26   ar
    27    26    27   ar
    28    27    28   ar
    29    28    29   ar
    30    24    29   ar
    31    29    30    1
    32    17    31   ar
    33    13    31   ar
    34     1    32    1
    35     1    33    1
    36     9    34    1
    37    20    35    1
    38    21    36    1
    39     5    37    1
    40     6    38    1
    41     7    39    1
    42    14    40    1
    43    15    41    1
    44    16    42    1
    45    25    43    1
    46    26    44    1
    47    27    45    1
    48    28    46    1
    49    31    47    1
@<TRIPOS>MOLECULE
mol88_1_8
 47 49 0 0 0
SMALL
USER_CHARGES
****
VDW energy = 144.03
@<TRIPOS>ATOM
   1 N1        2.8495    -9.8143    -4.4295  N.pl3   1  <O>11      -0.3543
   2 C1        1.4617   -10.1611    -4.6036  C.ar    1  <O>11       0.0829
   3 C2        0.8050   -10.8783    -3.6012  C.ar    1  <O>11       0.1458
   4 F1        1.4699   -11.2386    -2.4576  F       1  <O>11      -0.2035
   5 C3       -0.5391   -11.2290    -3.7692  C.ar    1  <O>11      -0.0245
   6 C4       -1.2224   -10.8607    -4.9311  C.ar    1  <O>11      -0.0571
   7 C5       -0.5527   -10.1366    -5.9237  C.ar    1  <O>11      -0.0374
   8 C6        0.7874    -9.7806    -5.7650  C.ar    1  <O>11       0.0714
   9 N2        1.4750    -9.0290    -6.7840  N.pl3   1  <O>11      -0.2144
  10 S1        2.2677    -9.8181    -7.9993  S.O2    1  <O>11       0.0724
  11 O1        3.5695   -10.6386    -7.3705  O.2     1  <O>11      -0.1500
  12 O2        2.8007    -8.7146    -9.1209  O.2     1  <O>11      -0.1500
  13 C7        1.1664   -10.9649    -8.7762  C.ar    1  <O>11       0.1092
  14 C8        1.0991   -12.2973    -8.3305  C.ar    1  <O>11      -0.0350
  15 C9        0.2366   -13.2058    -8.9544  C.ar    1  <O>11      -0.0592
  16 C10      -0.5661   -12.7952   -10.0198  C.ar    1  <O>11      -0.0495
  17 C11      -0.5048   -11.4677   -10.4583  C.ar    1  <O>11       0.0400
  18 C12      -1.3399   -11.0469   -11.5639  C.2     1  <O>11       0.2602
  19 O3       -2.4306   -10.5420   -11.3479  O.2     1  <O>11      -0.2687
  20 N3       -0.9070   -11.2163   -12.8519  N.am    1  <O>11      -0.2301
  21 N4       -1.6994   -10.8170   -13.9014  N.am    1  <O>11      -0.2300
  22 C13      -1.3216   -11.0955   -15.1876  C.2     1  <O>11       0.2629
  23 O4       -2.0270   -10.7424   -16.1206  O.2     1  <O>11      -0.2686
  24 C14      -0.0804   -11.8146   -15.4430  C.ar    1  <O>11       0.0733
  25 C15       1.0937   -11.1112   -15.7659  C.ar    1  <O>11      -0.0468
  26 C16       2.2834   -11.8006   -16.0213  C.ar    1  <O>11      -0.0609
  27 C17       2.3136   -13.1947   -15.9565  C.ar    1  <O>11      -0.0590
  28 C18       1.1461   -13.8968   -15.6268  C.ar    1  <O>11      -0.0257
  29 C19      -0.0452   -13.2178   -15.3669  C.ar    1  <O>11       0.1355
  30 F2       -1.1855   -13.9029   -15.0387  F       1  <O>11      -0.2047
  31 C20       0.3510   -10.5536    -9.8424  C.ar    1  <O>11      -0.0229
  32 H1        3.3392    -9.2907    -5.1550  H       1  <O>11       0.1425
  33 H2        3.3420   -10.0924    -3.5807  H       1  <O>11       0.1425
  34 H3        1.4716    -8.0098    -6.7562  H       1  <O>11       0.1737
  35 H4        0.0036   -11.6385   -13.0326  H       1  <O>11       0.1731
  36 H5       -2.5653   -10.3134   -13.7228  H       1  <O>11       0.1731
  37 H6       -1.0275   -11.7615    -3.0324  H       1  <O>11       0.0647
  38 H7       -2.2132   -11.1207    -5.0562  H       1  <O>11       0.0619
  39 H8       -1.0552    -9.8628    -6.7825  H       1  <O>11       0.0637
  40 H9        1.6876   -12.6058    -7.5409  H       1  <O>11       0.0637
  41 H10       0.1940   -14.1831    -8.6255  H       1  <O>11       0.0618
  42 H11      -1.2005   -13.4660   -10.4809  H       1  <O>11       0.0625
  43 H12       1.0773   -10.0804   -15.8146  H       1  <O>11       0.0626
  44 H13       3.1408   -11.2775   -16.2584  H       1  <O>11       0.0618
  45 H14       3.1894   -13.7049   -16.1499  H       1  <O>11       0.0618
  46 H15       1.1677   -14.9273   -15.5757  H       1  <O>11       0.0646
  47 H16       0.3844    -9.5758   -10.1705  H       1  <O>11       0.0645
@<TRIPOS>BOND
     1     1     2    1
     2     2     3   ar
     3     3     4    1
     4     3     5   ar
     5     5     6   ar
     6     6     7   ar
     7     7     8   ar
     8     2     8   ar
     9     8     9    1
    10     9    10    1
    11    10    11    2
    12    10    12    2
    13    10    13    1
    14    13    14   ar
    15    14    15   ar
    16    15    16   ar
    17    16    17   ar
    18    17    18    1
    19    18    19    2
    20    18    20   am
    21    20    21    1
    22    21    22   am
    23    22    23    2
    24    22    24    1
    25    24    25   ar
    26    25    26   ar
    27    26    27   ar
    28    27    28   ar
    29    28    29   ar
    30    24    29   ar
    31    29    30    1
    32    17    31   ar
    33    13    31   ar
    34     1    32    1
    35     1    33    1
    36     9    34    1
    37    20    35    1
    38    21    36    1
    39     5    37    1
    40     6    38    1
    41     7    39    1
    42    14    40    1
    43    15    41    1
    44    16    42    1
    45    25    43    1
    46    26    44    1
    47    27    45    1
    48    28    46    1
    49    31    47    1
@<TRIPOS>MOLECULE
mol88_1_9
 47 49 0 0 0
SMALL
USER_CHARGES
****
VDW energy = 144.04
@<TRIPOS>ATOM
   1 N1        2.8495    -9.8143    -4.4295  N.pl3   1  <O>11      -0.3543
   2 C1        1.4617   -10.1611    -4.6036  C.ar    1  <O>11       0.0829
   3 C2        0.8050   -10.8783    -3.6012  C.ar    1  <O>11       0.1458
   4 F1        1.4699   -11.2386    -2.4576  F       1  <O>11      -0.2035
   5 C3       -0.5391   -11.2290    -3.7692  C.ar    1  <O>11      -0.0245
   6 C4       -1.2224   -10.8607    -4.9311  C.ar    1  <O>11      -0.0571
   7 C5       -0.5527   -10.1366    -5.9237  C.ar    1  <O>11      -0.0374
   8 C6        0.7874    -9.7806    -5.7650  C.ar    1  <O>11       0.0714
   9 N2        1.4750    -9.0290    -6.7840  N.pl3   1  <O>11      -0.2144
  10 S1        1.2705    -7.3930    -6.8835  S.O2    1  <O>11       0.0724
  11 O1        2.1786    -6.7966    -8.1417  O.2     1  <O>11      -0.1500
  12 O2        1.7638    -6.6858    -5.4636  O.2     1  <O>11      -0.1500
  13 C7       -0.4381    -7.0270    -7.1633  C.ar    1  <O>11       0.1092
  14 C8       -0.9289    -6.8891    -8.4742  C.ar    1  <O>11      -0.0350
  15 C9       -2.2778    -6.5872    -8.6929  C.ar    1  <O>11      -0.0592
  16 C10      -3.1463    -6.4256    -7.6124  C.ar    1  <O>11      -0.0495
  17 C11      -2.6597    -6.5703    -6.3083  C.ar    1  <O>11       0.0400
  18 C12      -3.5651    -6.4018    -5.1909  C.2     1  <O>11       0.2602
  19 O3       -4.1194    -7.3738    -4.7019  O.2     1  <O>11      -0.2687
  20 N3       -3.8008    -5.1520    -4.6833  N.am    1  <O>11      -0.2301
  21 N4       -3.1781    -4.0578    -5.2344  N.am    1  <O>11      -0.2300
  22 C13      -3.3185    -2.8264    -4.6525  C.2     1  <O>11       0.2629
  23 O4       -3.9970    -2.7022    -3.6440  O.2     1  <O>11      -0.2686
  24 C14      -2.6613    -1.6649    -5.2372  C.ar    1  <O>11       0.0733
  25 C15      -1.4244    -1.2223    -4.7358  C.ar    1  <O>11      -0.0468
  26 C16      -0.7973    -0.1015    -5.2893  C.ar    1  <O>11      -0.0609
  27 C17      -1.3961     0.5864    -6.3461  C.ar    1  <O>11      -0.0590
  28 C18      -2.6251     0.1416    -6.8523  C.ar    1  <O>11      -0.0257
  29 C19      -3.2572    -0.9778    -6.3090  C.ar    1  <O>11       0.1355
  30 F2       -4.4557    -1.4169    -6.8071  F       1  <O>11      -0.2047
  31 C20      -1.3168    -6.8723    -6.0793  C.ar    1  <O>11      -0.0229
  32 H1        3.3392    -9.2907    -5.1550  H       1  <O>11       0.1425
  33 H2        3.3420   -10.0924    -3.5807  H       1  <O>11       0.1425
  34 H3        2.0891    -9.5062    -7.4433  H       1  <O>11       0.1737
  35 H4       -4.4386    -5.0330    -3.8966  H       1  <O>11       0.1731
  36 H5       -2.6145    -4.1623    -6.0751  H       1  <O>11       0.1731
  37 H6       -1.0275   -11.7615    -3.0324  H       1  <O>11       0.0647
  38 H7       -2.2132   -11.1207    -5.0562  H       1  <O>11       0.0619
  39 H8       -1.0552    -9.8628    -6.7825  H       1  <O>11       0.0637
  40 H9       -0.2923    -7.0110    -9.2772  H       1  <O>11       0.0637
  41 H10      -2.6317    -6.4837    -9.6569  H       1  <O>11       0.0618
  42 H11      -4.1405    -6.2010    -7.7741  H       1  <O>11       0.0625
  43 H12      -0.9768    -1.7275    -3.9551  H       1  <O>11       0.0626
  44 H13       0.1102     0.2178    -4.9155  H       1  <O>11       0.0618
  45 H14      -0.9370     1.4168    -6.7519  H       1  <O>11       0.0618
  46 H15      -3.0675     0.6475    -7.6355  H       1  <O>11       0.0646
  47 H16      -0.9697    -6.9819    -5.1137  H       1  <O>11       0.0645
@<TRIPOS>BOND
     1     1     2    1
     2     2     3   ar
     3     3     4    1
     4     3     5   ar
     5     5     6   ar
     6     6     7   ar
     7     7     8   ar
     8     2     8   ar
     9     8     9    1
    10     9    10    1
    11    10    11    2
    12    10    12    2
    13    10    13    1
    14    13    14   ar
    15    14    15   ar
    16    15    16   ar
    17    16    17   ar
    18    17    18    1
    19    18    19    2
    20    18    20   am
    21    20    21    1
    22    21    22   am
    23    22    23    2
    24    22    24    1
    25    24    25   ar
    26    25    26   ar
    27    26    27   ar
    28    27    28   ar
    29    28    29   ar
    30    24    29   ar
    31    29    30    1
    32    17    31   ar
    33    13    31   ar
    34     1    32    1
    35     1    33    1
    36     9    34    1
    37    20    35    1
    38    21    36    1
    39     5    37    1
    40     6    38    1
    41     7    39    1
    42    14    40    1
    43    15    41    1
    44    16    42    1
    45    25    43    1
    46    26    44    1
    47    27    45    1
    48    28    46    1
    49    31    47    1
@<TRIPOS>MOLECULE
mol88_1_10
 47 49 0 0 0
SMALL
USER_CHARGES
****
VDW energy = 146.64
@<TRIPOS>ATOM
   1 N1        2.8495    -9.8143    -4.4295  N.pl3   1  <O>11      -0.3543
   2 C1        1.4617   -10.1611    -4.6036  C.ar    1  <O>11       0.0829
   3 C2        0.8050   -10.8783    -3.6012  C.ar    1  <O>11       0.1458
   4 F1        1.4699   -11.2386    -2.4576  F       1  <O>11      -0.2035
   5 C3       -0.5391   -11.2290    -3.7692  C.ar    1  <O>11      -0.0245
   6 C4       -1.2224   -10.8607    -4.9311  C.ar    1  <O>11      -0.0571
   7 C5       -0.5527   -10.1366    -5.9237  C.ar    1  <O>11      -0.0374
   8 C6        0.7874    -9.7806    -5.7650  C.ar    1  <O>11       0.0714
   9 N2        1.4750    -9.0290    -6.7840  N.pl3   1  <O>11      -0.2144
  10 S1        1.2705    -7.3930    -6.8835  S.O2    1  <O>11       0.0724
  11 O1       -0.2936    -7.0566    -7.3352  O.2     1  <O>11      -0.1500
  12 O2        2.3169    -6.7719    -8.0144  O.2     1  <O>11      -0.1500
  13 C7        1.6006    -6.6592    -5.3074  C.ar    1  <O>11       0.1092
  14 C8        0.5567    -6.4548    -4.3872  C.ar    1  <O>11      -0.0350
  15 C9        0.8177    -5.8629    -3.1462  C.ar    1  <O>11      -0.0592
  16 C10       2.1161    -5.4757    -2.8111  C.ar    1  <O>11      -0.0495
  17 C11       3.1561    -5.6861    -3.7236  C.ar    1  <O>11       0.0400
  18 C12       4.5013    -5.2828    -3.3708  C.2     1  <O>11       0.2602
  19 O3        5.2259    -4.7717    -4.2105  O.2     1  <O>11      -0.2687
  20 N3        4.9615    -5.4757    -2.0956  N.am    1  <O>11      -0.2301
  21 N4        6.2383    -5.0930    -1.7605  N.am    1  <O>11      -0.2300
  22 C13       6.7395    -5.3949    -0.5227  C.2     1  <O>11       0.2629
  23 O4        7.8752    -5.0565    -0.2254  O.2     1  <O>11      -0.2686
  24 C14       5.9196    -6.1212     0.4382  C.ar    1  <O>11       0.0733
  25 C15       5.2073    -5.4261     1.4316  C.ar    1  <O>11      -0.0468
  26 C16       4.4281    -6.1226     2.3610  C.ar    1  <O>11      -0.0609
  27 C17       4.3514    -7.5154     2.3079  C.ar    1  <O>11      -0.0590
  28 C18       5.0544    -8.2090     1.3132  C.ar    1  <O>11      -0.0257
  29 C19       5.8320    -7.5228     0.3793  C.ar    1  <O>11       0.1355
  30 F2        6.5148    -8.1995    -0.5971  F       1  <O>11      -0.2047
  31 C20       2.9067    -6.2764    -4.9631  C.ar    1  <O>11      -0.0229
  32 H1        3.3392    -9.2907    -5.1550  H       1  <O>11       0.1425
  33 H2        3.3420   -10.0924    -3.5807  H       1  <O>11       0.1425
  34 H3        2.0891    -9.5062    -7.4433  H       1  <O>11       0.1737
  35 H4        4.3569    -5.9030    -1.3944  H       1  <O>11       0.1731
  36 H5        6.8100    -4.5844    -2.4311  H       1  <O>11       0.1731
  37 H6       -1.0275   -11.7615    -3.0324  H       1  <O>11       0.0647
  38 H7       -2.2132   -11.1207    -5.0562  H       1  <O>11       0.0619
  39 H8       -1.0552    -9.8628    -6.7825  H       1  <O>11       0.0637
  40 H9       -0.4048    -6.7422    -4.6279  H       1  <O>11       0.0637
  41 H10       0.0473    -5.7120    -2.4764  H       1  <O>11       0.0618
  42 H11       2.3079    -5.0374    -1.8967  H       1  <O>11       0.0625
  43 H12       5.2598    -4.3964     1.4752  H       1  <O>11       0.0626
  44 H13       3.9087    -5.6057     3.0877  H       1  <O>11       0.0618
  45 H14       3.7811    -8.0309     2.9963  H       1  <O>11       0.0618
  46 H15       4.9964    -9.2385     1.2710  H       1  <O>11       0.0646
  47 H16       3.6819    -6.4316    -5.6264  H       1  <O>11       0.0645
@<TRIPOS>BOND
     1     1     2    1
     2     2     3   ar
     3     3     4    1
     4     3     5   ar
     5     5     6   ar
     6     6     7   ar
     7     7     8   ar
     8     2     8   ar
     9     8     9    1
    10     9    10    1
    11    10    11    2
    12    10    12    2
    13    10    13    1
    14    13    14   ar
    15    14    15   ar
    16    15    16   ar
    17    16    17   ar
    18    17    18    1
    19    18    19    2
    20    18    20   am
    21    20    21    1
    22    21    22   am
    23    22    23    2
    24    22    24    1
    25    24    25   ar
    26    25    26   ar
    27    26    27   ar
    28    27    28   ar
    29    28    29   ar
    30    24    29   ar
    31    29    30    1
    32    17    31   ar
    33    13    31   ar
    34     1    32    1
    35     1    33    1
    36     9    34    1
    37    20    35    1
    38    21    36    1
    39     5    37    1
    40     6    38    1
    41     7    39    1
    42    14    40    1
    43    15    41    1
    44    16    42    1
    45    25    43    1
    46    26    44    1
    47    27    45    1
    48    28    46    1
    49    31    47    1
@<TRIPOS>MOLECULE
mol88_1_11
 47 49 0 0 0
SMALL
USER_CHARGES
****
VDW energy = 147.25
@<TRIPOS>ATOM
   1 N1        2.8495    -9.8143    -4.4295  N.pl3   1  <O>11      -0.3543
   2 C1        1.4617   -10.1611    -4.6036  C.ar    1  <O>11       0.0829
   3 C2        0.8050   -10.8783    -3.6012  C.ar    1  <O>11       0.1458
   4 F1        1.4699   -11.2386    -2.4576  F       1  <O>11      -0.2035
   5 C3       -0.5391   -11.2290    -3.7692  C.ar    1  <O>11      -0.0245
   6 C4       -1.2224   -10.8607    -4.9311  C.ar    1  <O>11      -0.0571
   7 C5       -0.5527   -10.1366    -5.9237  C.ar    1  <O>11      -0.0374
   8 C6        0.7874    -9.7806    -5.7650  C.ar    1  <O>11       0.0714
   9 N2        1.4750    -9.0290    -6.7840  N.pl3   1  <O>11      -0.2144
  10 S1        1.2705    -7.3930    -6.8835  S.O2    1  <O>11       0.0724
  11 O1       -0.2936    -7.0566    -7.3352  O.2     1  <O>11      -0.1500
  12 O2        2.3169    -6.7719    -8.0144  O.2     1  <O>11      -0.1500
  13 C7        1.6006    -6.6592    -5.3074  C.ar    1  <O>11       0.1092
  14 C8        2.8653    -6.8025    -4.7088  C.ar    1  <O>11      -0.0350
  15 C9        3.1205    -6.2321    -3.4566  C.ar    1  <O>11      -0.0592
  16 C10       2.1236    -5.5131    -2.7953  C.ar    1  <O>11      -0.0495
  17 C11       0.8677    -5.3640    -3.3943  C.ar    1  <O>11       0.0400
  18 C12      -0.1629    -4.6168    -2.7040  C.2     1  <O>11       0.2602
  19 O3       -0.3155    -3.4279    -2.9372  O.2     1  <O>11      -0.2687
  20 N3       -0.9656    -5.2434    -1.7884  N.am    1  <O>11      -0.2301
  21 N4       -1.9438    -4.5345    -1.1331  N.am    1  <O>11      -0.2300
  22 C13      -2.6648    -5.1292    -0.1326  C.2     1  <O>11       0.2629
  23 O4       -2.4373    -6.2892     0.1765  O.2     1  <O>11      -0.2686
  24 C14      -3.7041    -4.3799     0.5611  C.ar    1  <O>11       0.0733
  25 C15      -3.8704    -4.5172     1.9507  C.ar    1  <O>11      -0.0468
  26 C16      -4.8742    -3.8065     2.6163  C.ar    1  <O>11      -0.0609
  27 C17      -5.7191    -2.9534     1.9042  C.ar    1  <O>11      -0.0590
  28 C18      -5.5493    -2.8092     0.5204  C.ar    1  <O>11      -0.0257
  29 C19      -4.5485    -3.5116    -0.1524  C.ar    1  <O>11       0.1355
  30 F2       -4.3779    -3.3669    -1.5042  F       1  <O>11      -0.2047
  31 C20       0.6033    -5.9279    -4.6430  C.ar    1  <O>11      -0.0229
  32 H1        3.3392    -9.2907    -5.1550  H       1  <O>11       0.1425
  33 H2        3.3420   -10.0924    -3.5807  H       1  <O>11       0.1425
  34 H3        2.0891    -9.5062    -7.4433  H       1  <O>11       0.1737
  35 H4       -0.8380    -6.2360    -1.5930  H       1  <O>11       0.1731
  36 H5       -2.1333    -3.5690    -1.3924  H       1  <O>11       0.1731
  37 H6       -1.0275   -11.7615    -3.0324  H       1  <O>11       0.0647
  38 H7       -2.2132   -11.1207    -5.0562  H       1  <O>11       0.0619
  39 H8       -1.0552    -9.8628    -6.7825  H       1  <O>11       0.0637
  40 H9        3.6075    -7.3301    -5.1946  H       1  <O>11       0.0637
  41 H10       4.0492    -6.3434    -3.0206  H       1  <O>11       0.0618
  42 H11       2.3115    -5.0942    -1.8710  H       1  <O>11       0.0625
  43 H12      -3.2482    -5.1460     2.4823  H       1  <O>11       0.0626
  44 H13      -4.9906    -3.9129     3.6362  H       1  <O>11       0.0618
  45 H14      -6.4636    -2.4324     2.3933  H       1  <O>11       0.0618
  46 H15      -6.1714    -2.1767    -0.0069  H       1  <O>11       0.0646
  47 H16      -0.3247    -5.8073    -5.0778  H       1  <O>11       0.0645
@<TRIPOS>BOND
     1     1     2    1
     2     2     3   ar
     3     3     4    1
     4     3     5   ar
     5     5     6   ar
     6     6     7   ar
     7     7     8   ar
     8     2     8   ar
     9     8     9    1
    10     9    10    1
    11    10    11    2
    12    10    12    2
    13    10    13    1
    14    13    14   ar
    15    14    15   ar
    16    15    16   ar
    17    16    17   ar
    18    17    18    1
    19    18    19    2
    20    18    20   am
    21    20    21    1
    22    21    22   am
    23    22    23    2
    24    22    24    1
    25    24    25   ar
    26    25    26   ar
    27    26    27   ar
    28    27    28   ar
    29    28    29   ar
    30    24    29   ar
    31    29    30    1
    32    17    31   ar
    33    13    31   ar
    34     1    32    1
    35     1    33    1
    36     9    34    1
    37    20    35    1
    38    21    36    1
    39     5    37    1
    40     6    38    1
    41     7    39    1
    42    14    40    1
    43    15    41    1
    44    16    42    1
    45    25    43    1
    46    26    44    1
    47    27    45    1
    48    28    46    1
    49    31    47    1
@<TRIPOS>MOLECULE
mol88_1_12
 47 49 0 0 0
SMALL
USER_CHARGES
****
VDW energy = 148.73
@<TRIPOS>ATOM
   1 N1        2.8495    -9.8143    -4.4295  N.pl3   1  <O>11      -0.3543
   2 C1        1.4617   -10.1611    -4.6036  C.ar    1  <O>11       0.0829
   3 C2        0.8050   -10.8783    -3.6012  C.ar    1  <O>11       0.1458
   4 F1        1.4699   -11.2386    -2.4576  F       1  <O>11      -0.2035
   5 C3       -0.5391   -11.2290    -3.7692  C.ar    1  <O>11      -0.0245
   6 C4       -1.2224   -10.8607    -4.9311  C.ar    1  <O>11      -0.0571
   7 C5       -0.5527   -10.1366    -5.9237  C.ar    1  <O>11      -0.0374
   8 C6        0.7874    -9.7806    -5.7650  C.ar    1  <O>11       0.0714
   9 N2        1.4750    -9.0290    -6.7840  N.pl3   1  <O>11      -0.2144
  10 S1        1.2705    -7.3930    -6.8835  S.O2    1  <O>11       0.0724
  11 O1       -0.2936    -7.0566    -7.3352  O.2     1  <O>11      -0.1500
  12 O2        2.3169    -6.7719    -8.0144  O.2     1  <O>11      -0.1500
  13 C7        1.6006    -6.6592    -5.3074  C.ar    1  <O>11       0.1092
  14 C8        0.5567    -6.4548    -4.3872  C.ar    1  <O>11      -0.0350
  15 C9        0.8177    -5.8629    -3.1462  C.ar    1  <O>11      -0.0592
  16 C10       2.1161    -5.4757    -2.8111  C.ar    1  <O>11      -0.0495
  17 C11       3.1561    -5.6861    -3.7236  C.ar    1  <O>11       0.0400
  18 C12       4.5013    -5.2828    -3.3708  C.2     1  <O>11       0.2602
  19 O3        4.7191    -4.7639    -2.2871  O.2     1  <O>11      -0.2687
  20 N3        5.5293    -5.4821    -4.2533  N.am    1  <O>11      -0.2301
  21 N4        6.8062    -5.0994    -3.9187  N.am    1  <O>11      -0.2300
  22 C13       7.8107    -5.1871    -4.8448  C.2     1  <O>11       0.2629
  23 O4        7.5706    -5.6051    -5.9675  O.2     1  <O>11      -0.2686
  24 C14       9.1655    -4.7845    -4.4907  C.ar    1  <O>11       0.0733
  25 C15       9.6333    -3.5002    -4.8208  C.ar    1  <O>11      -0.0468
  26 C16      10.9368    -3.1159    -4.4907  C.ar    1  <O>11      -0.0609
  27 C17      11.7839    -4.0065    -3.8290  C.ar    1  <O>11      -0.0590
  28 C18      11.3165    -5.2842    -3.4921  C.ar    1  <O>11      -0.0257
  29 C19      10.0163    -5.6759    -3.8142  C.ar    1  <O>11       0.1355
  30 F2        9.5564    -6.9226    -3.4800  F       1  <O>11      -0.2047
  31 C20       2.9067    -6.2764    -4.9631  C.ar    1  <O>11      -0.0229
  32 H1        3.3392    -9.2907    -5.1550  H       1  <O>11       0.1425
  33 H2        3.3420   -10.0924    -3.5807  H       1  <O>11       0.1425
  34 H3        2.0891    -9.5062    -7.4433  H       1  <O>11       0.1737
  35 H4        5.3476    -5.9148    -5.1586  H       1  <O>11       0.1731
  36 H5        7.0052    -4.7528    -2.9830  H       1  <O>11       0.1731
  37 H6       -1.0275   -11.7615    -3.0324  H       1  <O>11       0.0647
  38 H7       -2.2132   -11.1207    -5.0562  H       1  <O>11       0.0619
  39 H8       -1.0552    -9.8628    -6.7825  H       1  <O>11       0.0637
  40 H9       -0.4048    -6.7422    -4.6279  H       1  <O>11       0.0637
  41 H10       0.0473    -5.7120    -2.4764  H       1  <O>11       0.0618
  42 H11       2.3079    -5.0374    -1.8967  H       1  <O>11       0.0625
  43 H12       9.0111    -2.8374    -5.3094  H       1  <O>11       0.0626
  44 H13      11.2733    -2.1718    -4.7369  H       1  <O>11       0.0618
  45 H14      12.7477    -3.7261    -3.5896  H       1  <O>11       0.0618
  46 H15      11.9407    -5.9427    -3.0003  H       1  <O>11       0.0646
  47 H16       3.6819    -6.4316    -5.6264  H       1  <O>11       0.0645
@<TRIPOS>BOND
     1     1     2    1
     2     2     3   ar
     3     3     4    1
     4     3     5   ar
     5     5     6   ar
     6     6     7   ar
     7     7     8   ar
     8     2     8   ar
     9     8     9    1
    10     9    10    1
    11    10    11    2
    12    10    12    2
    13    10    13    1
    14    13    14   ar
    15    14    15   ar
    16    15    16   ar
    17    16    17   ar
    18    17    18    1
    19    18    19    2
    20    18    20   am
    21    20    21    1
    22    21    22   am
    23    22    23    2
    24    22    24    1
    25    24    25   ar
    26    25    26   ar
    27    26    27   ar
    28    27    28   ar
    29    28    29   ar
    30    24    29   ar
    31    29    30    1
    32    17    31   ar
    33    13    31   ar
    34     1    32    1
    35     1    33    1
    36     9    34    1
    37    20    35    1
    38    21    36    1
    39     5    37    1
    40     6    38    1
    41     7    39    1
    42    14    40    1
    43    15    41    1
    44    16    42    1
    45    25    43    1
    46    26    44    1
    47    27    45    1
    48    28    46    1
    49    31    47    1
@<TRIPOS>MOLECULE
mol88_1_13
 47 49 0 0 0
SMALL
USER_CHARGES
****
VDW energy = 151.24
@<TRIPOS>ATOM
   1 N1        2.8495    -9.8143    -4.4295  N.pl3   1  <O>11      -0.3543
   2 C1        1.4617   -10.1611    -4.6036  C.ar    1  <O>11       0.0829
   3 C2        0.8050   -10.8783    -3.6012  C.ar    1  <O>11       0.1458
   4 F1        1.4699   -11.2386    -2.4576  F       1  <O>11      -0.2035
   5 C3       -0.5391   -11.2290    -3.7692  C.ar    1  <O>11      -0.0245
   6 C4       -1.2224   -10.8607    -4.9311  C.ar    1  <O>11      -0.0571
   7 C5       -0.5527   -10.1366    -5.9237  C.ar    1  <O>11      -0.0374
   8 C6        0.7874    -9.7806    -5.7650  C.ar    1  <O>11       0.0714
   9 N2        1.4750    -9.0290    -6.7840  N.pl3   1  <O>11      -0.2144
  10 S1        1.2705    -7.3930    -6.8835  S.O2    1  <O>11       0.0724
  11 O1       -0.2936    -7.0566    -7.3352  O.2     1  <O>11      -0.1500
  12 O2        2.3169    -6.7719    -8.0144  O.2     1  <O>11      -0.1500
  13 C7        1.6006    -6.6592    -5.3074  C.ar    1  <O>11       0.1092
  14 C8        0.5567    -6.4548    -4.3872  C.ar    1  <O>11      -0.0350
  15 C9        0.8177    -5.8629    -3.1462  C.ar    1  <O>11      -0.0592
  16 C10       2.1161    -5.4757    -2.8111  C.ar    1  <O>11      -0.0495
  17 C11       3.1561    -5.6861    -3.7236  C.ar    1  <O>11       0.0400
  18 C12       4.5013    -5.2828    -3.3708  C.2     1  <O>11       0.2602
  19 O3        5.2686    -6.0887    -2.8680  O.2     1  <O>11      -0.2687
  20 N3        4.9127    -3.9969    -3.6000  N.am    1  <O>11      -0.2301
  21 N4        6.1895    -3.6139    -3.2652  N.am    1  <O>11      -0.2300
  22 C13       6.6101    -3.7000    -1.9651  C.2     1  <O>11       0.2629
  23 O4        5.8499    -4.1175    -1.1045  O.2     1  <O>11      -0.2686
  24 C14       7.9624    -3.2915    -1.6082  C.ar    1  <O>11       0.0733
  25 C15       8.9856    -4.2492    -1.4927  C.ar    1  <O>11      -0.0468
  26 C16      10.2818    -3.8600    -1.1401  C.ar    1  <O>11      -0.0609
  27 C17      10.5693    -2.5151    -0.9008  C.ar    1  <O>11      -0.0590
  28 C18       9.5523    -1.5584    -1.0235  C.ar    1  <O>11      -0.0257
  29 C19       8.2564    -1.9364    -1.3781  C.ar    1  <O>11       0.1355
  30 F2        7.2630    -1.0012    -1.5041  F       1  <O>11      -0.2047
  31 C20       2.9067    -6.2764    -4.9631  C.ar    1  <O>11      -0.0229
  32 H1        3.3392    -9.2907    -5.1550  H       1  <O>11       0.1425
  33 H2        3.3420   -10.0924    -3.5807  H       1  <O>11       0.1425
  34 H3        2.0891    -9.5062    -7.4433  H       1  <O>11       0.1737
  35 H4        4.2720    -3.3235    -4.0193  H       1  <O>11       0.1731
  36 H5        6.8211    -3.2651    -3.9826  H       1  <O>11       0.1731
  37 H6       -1.0275   -11.7615    -3.0324  H       1  <O>11       0.0647
  38 H7       -2.2132   -11.1207    -5.0562  H       1  <O>11       0.0619
  39 H8       -1.0552    -9.8628    -6.7825  H       1  <O>11       0.0637
  40 H9       -0.4048    -6.7422    -4.6279  H       1  <O>11       0.0637
  41 H10       0.0473    -5.7120    -2.4764  H       1  <O>11       0.0618
  42 H11       2.3079    -5.0374    -1.8967  H       1  <O>11       0.0625
  43 H12       8.7789    -5.2448    -1.6690  H       1  <O>11       0.0626
  44 H13      11.0274    -4.5686    -1.0565  H       1  <O>11       0.0618
  45 H14      11.5240    -2.2272    -0.6354  H       1  <O>11       0.0618
  46 H15       9.7640    -0.5634    -0.8497  H       1  <O>11       0.0646
  47 H16       3.6819    -6.4316    -5.6264  H       1  <O>11       0.0645
@<TRIPOS>BOND
     1     1     2    1
     2     2     3   ar
     3     3     4    1
     4     3     5   ar
     5     5     6   ar
     6     6     7   ar
     7     7     8   ar
     8     2     8   ar
     9     8     9    1
    10     9    10    1
    11    10    11    2
    12    10    12    2
    13    10    13    1
    14    13    14   ar
    15    14    15   ar
    16    15    16   ar
    17    16    17   ar
    18    17    18    1
    19    18    19    2
    20    18    20   am
    21    20    21    1
    22    21    22   am
    23    22    23    2
    24    22    24    1
    25    24    25   ar
    26    25    26   ar
    27    26    27   ar
    28    27    28   ar
    29    28    29   ar
    30    24    29   ar
    31    29    30    1
    32    17    31   ar
    33    13    31   ar
    34     1    32    1
    35     1    33    1
    36     9    34    1
    37    20    35    1
    38    21    36    1
    39     5    37    1
    40     6    38    1
    41     7    39    1
    42    14    40    1
    43    15    41    1
    44    16    42    1
    45    25    43    1
    46    26    44    1
    47    27    45    1
    48    28    46    1
    49    31    47    1
@<TRIPOS>MOLECULE
mol88_1_14
 47 49 0 0 0
SMALL
USER_CHARGES
****
VDW energy = 152.44
@<TRIPOS>ATOM
   1 N1        2.8495    -9.8143    -4.4295  N.pl3   1  <O>11      -0.3543
   2 C1        1.4617   -10.1611    -4.6036  C.ar    1  <O>11       0.0829
   3 C2        0.8050   -10.8783    -3.6012  C.ar    1  <O>11       0.1458
   4 F1        1.4699   -11.2386    -2.4576  F       1  <O>11      -0.2035
   5 C3       -0.5391   -11.2290    -3.7692  C.ar    1  <O>11      -0.0245
   6 C4       -1.2224   -10.8607    -4.9311  C.ar    1  <O>11      -0.0571
   7 C5       -0.5527   -10.1366    -5.9237  C.ar    1  <O>11      -0.0374
   8 C6        0.7874    -9.7806    -5.7650  C.ar    1  <O>11       0.0714
   9 N2        1.4750    -9.0290    -6.7840  N.pl3   1  <O>11      -0.2144
  10 S1        1.2705    -7.3930    -6.8835  S.O2    1  <O>11       0.0724
  11 O1       -0.2936    -7.0566    -7.3352  O.2     1  <O>11      -0.1500
  12 O2        2.3169    -6.7719    -8.0144  O.2     1  <O>11      -0.1500
  13 C7        1.6006    -6.6592    -5.3074  C.ar    1  <O>11       0.1092
  14 C8        0.5567    -6.4548    -4.3872  C.ar    1  <O>11      -0.0350
  15 C9        0.8177    -5.8629    -3.1462  C.ar    1  <O>11      -0.0592
  16 C10       2.1161    -5.4757    -2.8111  C.ar    1  <O>11      -0.0495
  17 C11       3.1561    -5.6861    -3.7236  C.ar    1  <O>11       0.0400
  18 C12       4.5013    -5.2828    -3.3708  C.2     1  <O>11       0.2602
  19 O3        5.2686    -6.0887    -2.8680  O.2     1  <O>11      -0.2687
  20 N3        4.9127    -3.9969    -3.6000  N.am    1  <O>11      -0.2301
  21 N4        6.1895    -3.6139    -3.2652  N.am    1  <O>11      -0.2300
  22 C13       7.2634    -4.2424    -3.8364  C.2     1  <O>11       0.2629
  23 O4        7.0852    -5.1426    -4.6430  O.2     1  <O>11      -0.2686
  24 C14       8.6176    -3.8395    -3.4803  C.ar    1  <O>11       0.0733
  25 C15       9.3277    -2.9402    -4.2954  C.ar    1  <O>11      -0.0468
  26 C16      10.6314    -2.5605    -3.9604  C.ar    1  <O>11      -0.0609
  27 C17      11.2373    -3.0721    -2.8117  C.ar    1  <O>11      -0.0590
  28 C18      10.5278    -3.9622    -1.9938  C.ar    1  <O>11      -0.0257
  29 C19       9.2253    -4.3446    -2.3178  C.ar    1  <O>11       0.1355
  30 F2        8.5287    -5.2101    -1.5158  F       1  <O>11      -0.2047
  31 C20       2.9067    -6.2764    -4.9631  C.ar    1  <O>11      -0.0229
  32 H1        3.3392    -9.2907    -5.1550  H       1  <O>11       0.1425
  33 H2        3.3420   -10.0924    -3.5807  H       1  <O>11       0.1425
  34 H3        2.0891    -9.5062    -7.4433  H       1  <O>11       0.1737
  35 H4        4.2720    -3.3235    -4.0193  H       1  <O>11       0.1731
  36 H5        6.3366    -2.8650    -2.5923  H       1  <O>11       0.1731
  37 H6       -1.0275   -11.7615    -3.0324  H       1  <O>11       0.0647
  38 H7       -2.2132   -11.1207    -5.0562  H       1  <O>11       0.0619
  39 H8       -1.0552    -9.8628    -6.7825  H       1  <O>11       0.0637
  40 H9       -0.4048    -6.7422    -4.6279  H       1  <O>11       0.0637
  41 H10       0.0473    -5.7120    -2.4764  H       1  <O>11       0.0618
  42 H11       2.3079    -5.0374    -1.8967  H       1  <O>11       0.0625
  43 H12       8.8845    -2.5583    -5.1455  H       1  <O>11       0.0626
  44 H13      11.1466    -1.9006    -4.5639  H       1  <O>11       0.0618
  45 H14      12.2011    -2.7968    -2.5662  H       1  <O>11       0.0618
  46 H15      10.9735    -4.3390    -1.1427  H       1  <O>11       0.0646
  47 H16       3.6819    -6.4316    -5.6264  H       1  <O>11       0.0645
@<TRIPOS>BOND
     1     1     2    1
     2     2     3   ar
     3     3     4    1
     4     3     5   ar
     5     5     6   ar
     6     6     7   ar
     7     7     8   ar
     8     2     8   ar
     9     8     9    1
    10     9    10    1
    11    10    11    2
    12    10    12    2
    13    10    13    1
    14    13    14   ar
    15    14    15   ar
    16    15    16   ar
    17    16    17   ar
    18    17    18    1
    19    18    19    2
    20    18    20   am
    21    20    21    1
    22    21    22   am
    23    22    23    2
    24    22    24    1
    25    24    25   ar
    26    25    26   ar
    27    26    27   ar
    28    27    28   ar
    29    28    29   ar
    30    24    29   ar
    31    29    30    1
    32    17    31   ar
    33    13    31   ar
    34     1    32    1
    35     1    33    1
    36     9    34    1
    37    20    35    1
    38    21    36    1
    39     5    37    1
    40     6    38    1
    41     7    39    1
    42    14    40    1
    43    15    41    1
    44    16    42    1
    45    25    43    1
    46    26    44    1
    47    27    45    1
    48    28    46    1
    49    31    47    1
@<TRIPOS>MOLECULE
mol88_1_15
 47 49 0 0 0
SMALL
USER_CHARGES
****
VDW energy = 153.20
@<TRIPOS>ATOM
   1 N1        2.8495    -9.8143    -4.4295  N.pl3   1  <O>11      -0.3543
   2 C1        1.4617   -10.1611    -4.6036  C.ar    1  <O>11       0.0829
   3 C2        0.8050   -10.8783    -3.6012  C.ar    1  <O>11       0.1458
   4 F1        1.4699   -11.2386    -2.4576  F       1  <O>11      -0.2035
   5 C3       -0.5391   -11.2290    -3.7692  C.ar    1  <O>11      -0.0245
   6 C4       -1.2224   -10.8607    -4.9311  C.ar    1  <O>11      -0.0571
   7 C5       -0.5527   -10.1366    -5.9237  C.ar    1  <O>11      -0.0374
   8 C6        0.7874    -9.7806    -5.7650  C.ar    1  <O>11       0.0714
   9 N2        1.4750    -9.0290    -6.7840  N.pl3   1  <O>11      -0.2144
  10 S1        1.2705    -7.3930    -6.8835  S.O2    1  <O>11       0.0724
  11 O1       -0.2936    -7.0566    -7.3352  O.2     1  <O>11      -0.1500
  12 O2        2.3169    -6.7719    -8.0144  O.2     1  <O>11      -0.1500
  13 C7        1.6006    -6.6592    -5.3074  C.ar    1  <O>11       0.1092
  14 C8        0.5567    -6.4548    -4.3872  C.ar    1  <O>11      -0.0350
  15 C9        0.8177    -5.8629    -3.1462  C.ar    1  <O>11      -0.0592
  16 C10       2.1161    -5.4757    -2.8111  C.ar    1  <O>11      -0.0495
  17 C11       3.1561    -5.6861    -3.7236  C.ar    1  <O>11       0.0400
  18 C12       4.5013    -5.2828    -3.3708  C.2     1  <O>11       0.2602
  19 O3        4.8934    -4.1589    -3.6434  O.2     1  <O>11      -0.2687
  20 N3        5.3344    -6.1624    -2.7326  N.am    1  <O>11      -0.2301
  21 N4        6.6113    -5.7799    -2.3976  N.am    1  <O>11      -0.2300
  22 C13       7.4873    -5.3921    -3.3758  C.2     1  <O>11       0.2629
  23 O4        7.1326    -5.3864    -4.5450  O.2     1  <O>11      -0.2686
  24 C14       8.8422    -4.9891    -3.0225  C.ar    1  <O>11       0.0733
  25 C15       9.1617    -3.6277    -2.8746  C.ar    1  <O>11      -0.0468
  26 C16      10.4642    -3.2387    -2.5456  C.ar    1  <O>11      -0.0609
  27 C17      11.4577    -4.2017    -2.3607  C.ar    1  <O>11      -0.0590
  28 C18      11.1389    -5.5595    -2.4999  C.ar    1  <O>11      -0.0257
  29 C19       9.8414    -5.9578    -2.8247  C.ar    1  <O>11       0.1355
  30 F2        9.5274    -7.2851    -2.9551  F       1  <O>11      -0.2047
  31 C20       2.9067    -6.2764    -4.9631  C.ar    1  <O>11      -0.0229
  32 H1        3.3392    -9.2907    -5.1550  H       1  <O>11       0.1425
  33 H2        3.3420   -10.0924    -3.5807  H       1  <O>11       0.1425
  34 H3        2.0891    -9.5062    -7.4433  H       1  <O>11       0.1737
  35 H4        5.0075    -7.1012    -2.5054  H       1  <O>11       0.1731
  36 H5        6.9059    -5.7864    -1.4237  H       1  <O>11       0.1731
  37 H6       -1.0275   -11.7615    -3.0324  H       1  <O>11       0.0647
  38 H7       -2.2132   -11.1207    -5.0562  H       1  <O>11       0.0619
  39 H8       -1.0552    -9.8628    -6.7825  H       1  <O>11       0.0637
  40 H9       -0.4048    -6.7422    -4.6279  H       1  <O>11       0.0637
  41 H10       0.0473    -5.7120    -2.4764  H       1  <O>11       0.0618
  42 H11       2.3079    -5.0374    -1.8967  H       1  <O>11       0.0625
  43 H12       8.4309    -2.9115    -3.0094  H       1  <O>11       0.0626
  44 H13      10.6912    -2.2376    -2.4394  H       1  <O>11       0.0618
  45 H14      12.4204    -3.9158    -2.1232  H       1  <O>11       0.0618
  46 H15      11.8719    -6.2725    -2.3607  H       1  <O>11       0.0646
  47 H16       3.6819    -6.4316    -5.6264  H       1  <O>11       0.0645
@<TRIPOS>BOND
     1     1     2    1
     2     2     3   ar
     3     3     4    1
     4     3     5   ar
     5     5     6   ar
     6     6     7   ar
     7     7     8   ar
     8     2     8   ar
     9     8     9    1
    10     9    10    1
    11    10    11    2
    12    10    12    2
    13    10    13    1
    14    13    14   ar
    15    14    15   ar
    16    15    16   ar
    17    16    17   ar
    18    17    18    1
    19    18    19    2
    20    18    20   am
    21    20    21    1
    22    21    22   am
    23    22    23    2
    24    22    24    1
    25    24    25   ar
    26    25    26   ar
    27    26    27   ar
    28    27    28   ar
    29    28    29   ar
    30    24    29   ar
    31    29    30    1
    32    17    31   ar
    33    13    31   ar
    34     1    32    1
    35     1    33    1
    36     9    34    1
    37    20    35    1
    38    21    36    1
    39     5    37    1
    40     6    38    1
    41     7    39    1
    42    14    40    1
    43    15    41    1
    44    16    42    1
    45    25    43    1
    46    26    44    1
    47    27    45    1
    48    28    46    1
    49    31    47    1
@<TRIPOS>MOLECULE
mol88_1_16
 47 49 0 0 0
SMALL
USER_CHARGES
****
VDW energy = 153.69
@<TRIPOS>ATOM
   1 N1        2.8495    -9.8143    -4.4295  N.pl3   1  <O>11      -0.3543
   2 C1        1.4617   -10.1611    -4.6036  C.ar    1  <O>11       0.0829
   3 C2        0.8050   -10.8783    -3.6012  C.ar    1  <O>11       0.1458
   4 F1        1.4699   -11.2386    -2.4576  F       1  <O>11      -0.2035
   5 C3       -0.5391   -11.2290    -3.7692  C.ar    1  <O>11      -0.0245
   6 C4       -1.2224   -10.8607    -4.9311  C.ar    1  <O>11      -0.0571
   7 C5       -0.5527   -10.1366    -5.9237  C.ar    1  <O>11      -0.0374
   8 C6        0.7874    -9.7806    -5.7650  C.ar    1  <O>11       0.0714
   9 N2        1.4750    -9.0290    -6.7840  N.pl3   1  <O>11      -0.2144
  10 S1        1.2705    -7.3930    -6.8835  S.O2    1  <O>11       0.0724
  11 O1       -0.2936    -7.0566    -7.3352  O.2     1  <O>11      -0.1500
  12 O2        2.3169    -6.7719    -8.0144  O.2     1  <O>11      -0.1500
  13 C7        1.6006    -6.6592    -5.3074  C.ar    1  <O>11       0.1092
  14 C8        0.5567    -6.4548    -4.3872  C.ar    1  <O>11      -0.0350
  15 C9        0.8177    -5.8629    -3.1462  C.ar    1  <O>11      -0.0592
  16 C10       2.1161    -5.4757    -2.8111  C.ar    1  <O>11      -0.0495
  17 C11       3.1561    -5.6861    -3.7236  C.ar    1  <O>11       0.0400
  18 C12       4.5013    -5.2828    -3.3708  C.2     1  <O>11       0.2602
  19 O3        5.2686    -6.0887    -2.8680  O.2     1  <O>11      -0.2687
  20 N3        4.9127    -3.9969    -3.6000  N.am    1  <O>11      -0.2301
  21 N4        4.0489    -3.0893    -4.1647  N.am    1  <O>11      -0.2300
  22 C13       3.5249    -3.3263    -5.4073  C.2     1  <O>11       0.2629
  23 O4        3.8258    -4.3444    -6.0121  O.2     1  <O>11      -0.2686
  24 C14       2.6112    -2.3637    -6.0085  C.ar    1  <O>11       0.0733
  25 C15       3.1069    -1.3196    -6.8095  C.ar    1  <O>11      -0.0468
  26 C16       2.2320    -0.3888    -7.3789  C.ar    1  <O>11      -0.0609
  27 C17       0.8578    -0.4908    -7.1561  C.ar    1  <O>11      -0.0590
  28 C18       0.3615    -1.5358    -6.3645  C.ar    1  <O>11      -0.0257
  29 C19       1.2261    -2.4715    -5.7947  C.ar    1  <O>11       0.1355
  30 F2        0.7415    -3.4967    -5.0257  F       1  <O>11      -0.2047
  31 C20       2.9067    -6.2764    -4.9631  C.ar    1  <O>11      -0.0229
  32 H1        3.3392    -9.2907    -5.1550  H       1  <O>11       0.1425
  33 H2        3.3420   -10.0924    -3.5807  H       1  <O>11       0.1425
  34 H3        2.0891    -9.5062    -7.4433  H       1  <O>11       0.1737
  35 H4        5.8599    -3.7125    -3.3513  H       1  <O>11       0.1731
  36 H5        3.8002    -2.2412    -3.6606  H       1  <O>11       0.1731
  37 H6       -1.0275   -11.7615    -3.0324  H       1  <O>11       0.0647
  38 H7       -2.2132   -11.1207    -5.0562  H       1  <O>11       0.0619
  39 H8       -1.0552    -9.8628    -6.7825  H       1  <O>11       0.0637
  40 H9       -0.4048    -6.7422    -4.6279  H       1  <O>11       0.0637
  41 H10       0.0473    -5.7120    -2.4764  H       1  <O>11       0.0618
  42 H11       2.3079    -5.0374    -1.8967  H       1  <O>11       0.0625
  43 H12       4.1219    -1.2397    -6.9782  H       1  <O>11       0.0626
  44 H13       2.6033     0.3752    -7.9651  H       1  <O>11       0.0618
  45 H14       0.2116     0.1984    -7.5712  H       1  <O>11       0.0618
  46 H15      -0.6545    -1.6140    -6.2013  H       1  <O>11       0.0646
  47 H16       3.6819    -6.4316    -5.6264  H       1  <O>11       0.0645
@<TRIPOS>BOND
     1     1     2    1
     2     2     3   ar
     3     3     4    1
     4     3     5   ar
     5     5     6   ar
     6     6     7   ar
     7     7     8   ar
     8     2     8   ar
     9     8     9    1
    10     9    10    1
    11    10    11    2
    12    10    12    2
    13    10    13    1
    14    13    14   ar
    15    14    15   ar
    16    15    16   ar
    17    16    17   ar
    18    17    18    1
    19    18    19    2
    20    18    20   am
    21    20    21    1
    22    21    22   am
    23    22    23    2
    24    22    24    1
    25    24    25   ar
    26    25    26   ar
    27    26    27   ar
    28    27    28   ar
    29    28    29   ar
    30    24    29   ar
    31    29    30    1
    32    17    31   ar
    33    13    31   ar
    34     1    32    1
    35     1    33    1
    36     9    34    1
    37    20    35    1
    38    21    36    1
    39     5    37    1
    40     6    38    1
    41     7    39    1
    42    14    40    1
    43    15    41    1
    44    16    42    1
    45    25    43    1
    46    26    44    1
    47    27    45    1
    48    28    46    1
    49    31    47    1
@<TRIPOS>MOLECULE
mol88_1_17
 47 49 0 0 0
SMALL
USER_CHARGES
****
VDW energy = 153.89
@<TRIPOS>ATOM
   1 N1        2.8495    -9.8143    -4.4295  N.pl3   1  <O>11      -0.3543
   2 C1        1.4617   -10.1611    -4.6036  C.ar    1  <O>11       0.0829
   3 C2        0.8050   -10.8783    -3.6012  C.ar    1  <O>11       0.1458
   4 F1        1.4699   -11.2386    -2.4576  F       1  <O>11      -0.2035
   5 C3       -0.5391   -11.2290    -3.7692  C.ar    1  <O>11      -0.0245
   6 C4       -1.2224   -10.8607    -4.9311  C.ar    1  <O>11      -0.0571
   7 C5       -0.5527   -10.1366    -5.9237  C.ar    1  <O>11      -0.0374
   8 C6        0.7874    -9.7806    -5.7650  C.ar    1  <O>11       0.0714
   9 N2        1.4750    -9.0290    -6.7840  N.pl3   1  <O>11      -0.2144
  10 S1        1.2705    -7.3930    -6.8835  S.O2    1  <O>11       0.0724
  11 O1       -0.2936    -7.0566    -7.3352  O.2     1  <O>11      -0.1500
  12 O2        2.3169    -6.7719    -8.0144  O.2     1  <O>11      -0.1500
  13 C7        1.6006    -6.6592    -5.3074  C.ar    1  <O>11       0.1092
  14 C8        0.5567    -6.4548    -4.3872  C.ar    1  <O>11      -0.0350
  15 C9        0.8177    -5.8629    -3.1462  C.ar    1  <O>11      -0.0592
  16 C10       2.1161    -5.4757    -2.8111  C.ar    1  <O>11      -0.0495
  17 C11       3.1561    -5.6861    -3.7236  C.ar    1  <O>11       0.0400
  18 C12       4.5013    -5.2828    -3.3708  C.2     1  <O>11       0.2602
  19 O3        5.2686    -6.0887    -2.8680  O.2     1  <O>11      -0.2687
  20 N3        4.9127    -3.9969    -3.6000  N.am    1  <O>11      -0.2301
  21 N4        4.0489    -3.0893    -4.1647  N.am    1  <O>11      -0.2300
  22 C13       3.5249    -3.3263    -5.4073  C.2     1  <O>11       0.2629
  23 O4        3.8258    -4.3444    -6.0121  O.2     1  <O>11      -0.2686
  24 C14       2.6112    -2.3637    -6.0085  C.ar    1  <O>11       0.0733
  25 C15       1.2208    -2.5539    -5.9195  C.ar    1  <O>11      -0.0468
  26 C16       0.3427    -1.6362    -6.5050  C.ar    1  <O>11      -0.0609
  27 C17       0.8419    -0.5224    -7.1824  C.ar    1  <O>11      -0.0590
  28 C18       2.2274    -0.3271    -7.2649  C.ar    1  <O>11      -0.0257
  29 C19       3.1117    -1.2354    -6.6812  C.ar    1  <O>11       0.1355
  30 F2        4.4662    -1.0423    -6.7562  F       1  <O>11      -0.2047
  31 C20       2.9067    -6.2764    -4.9631  C.ar    1  <O>11      -0.0229
  32 H1        3.3392    -9.2907    -5.1550  H       1  <O>11       0.1425
  33 H2        3.3420   -10.0924    -3.5807  H       1  <O>11       0.1425
  34 H3        2.0891    -9.5062    -7.4433  H       1  <O>11       0.1737
  35 H4        5.8599    -3.7125    -3.3513  H       1  <O>11       0.1731
  36 H5        3.8002    -2.2412    -3.6606  H       1  <O>11       0.1731
  37 H6       -1.0275   -11.7615    -3.0324  H       1  <O>11       0.0647
  38 H7       -2.2132   -11.1207    -5.0562  H       1  <O>11       0.0619
  39 H8       -1.0552    -9.8628    -6.7825  H       1  <O>11       0.0637
  40 H9       -0.4048    -6.7422    -4.6279  H       1  <O>11       0.0637
  41 H10       0.0473    -5.7120    -2.4764  H       1  <O>11       0.0618
  42 H11       2.3079    -5.0374    -1.8967  H       1  <O>11       0.0625
  43 H12       0.8462    -3.3752    -5.4193  H       1  <O>11       0.0626
  44 H13      -0.6765    -1.7828    -6.4361  H       1  <O>11       0.0618
  45 H14       0.1952     0.1527    -7.6194  H       1  <O>11       0.0618
  46 H15       2.5977     0.4974    -7.7630  H       1  <O>11       0.0646
  47 H16       3.6819    -6.4316    -5.6264  H       1  <O>11       0.0645
@<TRIPOS>BOND
     1     1     2    1
     2     2     3   ar
     3     3     4    1
     4     3     5   ar
     5     5     6   ar
     6     6     7   ar
     7     7     8   ar
     8     2     8   ar
     9     8     9    1
    10     9    10    1
    11    10    11    2
    12    10    12    2
    13    10    13    1
    14    13    14   ar
    15    14    15   ar
    16    15    16   ar
    17    16    17   ar
    18    17    18    1
    19    18    19    2
    20    18    20   am
    21    20    21    1
    22    21    22   am
    23    22    23    2
    24    22    24    1
    25    24    25   ar
    26    25    26   ar
    27    26    27   ar
    28    27    28   ar
    29    28    29   ar
    30    24    29   ar
    31    29    30    1
    32    17    31   ar
    33    13    31   ar
    34     1    32    1
    35     1    33    1
    36     9    34    1
    37    20    35    1
    38    21    36    1
    39     5    37    1
    40     6    38    1
    41     7    39    1
    42    14    40    1
    43    15    41    1
    44    16    42    1
    45    25    43    1
    46    26    44    1
    47    27    45    1
    48    28    46    1
    49    31    47    1
@<TRIPOS>MOLECULE
mol88_1_18
 47 49 0 0 0
SMALL
USER_CHARGES
****
VDW energy = 153.91
@<TRIPOS>ATOM
   1 N1        2.8495    -9.8143    -4.4295  N.pl3   1  <O>11      -0.3543
   2 C1        1.4617   -10.1611    -4.6036  C.ar    1  <O>11       0.0829
   3 C2        0.8050   -10.8783    -3.6012  C.ar    1  <O>11       0.1458
   4 F1        1.4699   -11.2386    -2.4576  F       1  <O>11      -0.2035
   5 C3       -0.5391   -11.2290    -3.7692  C.ar    1  <O>11      -0.0245
   6 C4       -1.2224   -10.8607    -4.9311  C.ar    1  <O>11      -0.0571
   7 C5       -0.5527   -10.1366    -5.9237  C.ar    1  <O>11      -0.0374
   8 C6        0.7874    -9.7806    -5.7650  C.ar    1  <O>11       0.0714
   9 N2        1.4750    -9.0290    -6.7840  N.pl3   1  <O>11      -0.2144
  10 S1        1.2705    -7.3930    -6.8835  S.O2    1  <O>11       0.0724
  11 O1       -0.2936    -7.0566    -7.3352  O.2     1  <O>11      -0.1500
  12 O2        2.3169    -6.7719    -8.0144  O.2     1  <O>11      -0.1500
  13 C7        1.6006    -6.6592    -5.3074  C.ar    1  <O>11       0.1092
  14 C8        0.5567    -6.4548    -4.3872  C.ar    1  <O>11      -0.0350
  15 C9        0.8177    -5.8629    -3.1462  C.ar    1  <O>11      -0.0592
  16 C10       2.1161    -5.4757    -2.8111  C.ar    1  <O>11      -0.0495
  17 C11       3.1561    -5.6861    -3.7236  C.ar    1  <O>11       0.0400
  18 C12       4.5013    -5.2828    -3.3708  C.2     1  <O>11       0.2602
  19 O3        5.4500    -5.9902    -3.6721  O.2     1  <O>11      -0.2687
  20 N3        4.7096    -4.1084    -2.6980  N.am    1  <O>11      -0.2301
  21 N4        5.9863    -3.7254    -2.3630  N.am    1  <O>11      -0.2300
  22 C13       6.7496    -4.5245    -1.5547  C.2     1  <O>11       0.2629
  23 O4        6.2949    -5.5771    -1.1327  O.2     1  <O>11      -0.2686
  24 C14       8.1023    -4.1185    -1.1964  C.ar    1  <O>11       0.0733
  25 C15       9.2057    -4.6172    -1.9113  C.ar    1  <O>11      -0.0468
  26 C16      10.5053    -4.2364    -1.5619  C.ar    1  <O>11      -0.0609
  27 C17      10.7161    -3.3560    -0.4994  C.ar    1  <O>11      -0.0590
  28 C18       9.6167    -2.8516     0.2090  C.ar    1  <O>11      -0.0257
  29 C19       8.3159    -3.2230    -0.1341  C.ar    1  <O>11       0.1355
  30 F2        7.2403    -2.7259     0.5539  F       1  <O>11      -0.2047
  31 C20       2.9067    -6.2764    -4.9631  C.ar    1  <O>11      -0.0229
  32 H1        3.3392    -9.2907    -5.1550  H       1  <O>11       0.1425
  33 H2        3.3420   -10.0924    -3.5807  H       1  <O>11       0.1425
  34 H3        2.0891    -9.5062    -7.4433  H       1  <O>11       0.1737
  35 H4        3.9175    -3.5178    -2.4457  H       1  <O>11       0.1731
  36 H5        6.3634    -2.8480    -2.7140  H       1  <O>11       0.1731
  37 H6       -1.0275   -11.7615    -3.0324  H       1  <O>11       0.0647
  38 H7       -2.2132   -11.1207    -5.0562  H       1  <O>11       0.0619
  39 H8       -1.0552    -9.8628    -6.7825  H       1  <O>11       0.0637
  40 H9       -0.4048    -6.7422    -4.6279  H       1  <O>11       0.0637
  41 H10       0.0473    -5.7120    -2.4764  H       1  <O>11       0.0618
  42 H11       2.3079    -5.0374    -1.8967  H       1  <O>11       0.0625
  43 H12       9.0557    -5.2679    -2.6982  H       1  <O>11       0.0626
  44 H13      11.3102    -4.6072    -2.0908  H       1  <O>11       0.0618
  45 H14      11.6747    -3.0783    -0.2372  H       1  <O>11       0.0618
  46 H15       9.7710    -2.1984     0.9929  H       1  <O>11       0.0646
  47 H16       3.6819    -6.4316    -5.6264  H       1  <O>11       0.0645
@<TRIPOS>BOND
     1     1     2    1
     2     2     3   ar
     3     3     4    1
     4     3     5   ar
     5     5     6   ar
     6     6     7   ar
     7     7     8   ar
     8     2     8   ar
     9     8     9    1
    10     9    10    1
    11    10    11    2
    12    10    12    2
    13    10    13    1
    14    13    14   ar
    15    14    15   ar
    16    15    16   ar
    17    16    17   ar
    18    17    18    1
    19    18    19    2
    20    18    20   am
    21    20    21    1
    22    21    22   am
    23    22    23    2
    24    22    24    1
    25    24    25   ar
    26    25    26   ar
    27    26    27   ar
    28    27    28   ar
    29    28    29   ar
    30    24    29   ar
    31    29    30    1
    32    17    31   ar
    33    13    31   ar
    34     1    32    1
    35     1    33    1
    36     9    34    1
    37    20    35    1
    38    21    36    1
    39     5    37    1
    40     6    38    1
    41     7    39    1
    42    14    40    1
    43    15    41    1
    44    16    42    1
    45    25    43    1
    46    26    44    1
    47    27    45    1
    48    28    46    1
    49    31    47    1
@<TRIPOS>MOLECULE
mol88_1_19
 47 49 0 0 0
SMALL
USER_CHARGES
****
VDW energy = 155.39
@<TRIPOS>ATOM
   1 N1        2.8495    -9.8143    -4.4295  N.pl3   1  <O>11      -0.3543
   2 C1        1.4617   -10.1611    -4.6036  C.ar    1  <O>11       0.0829
   3 C2        0.8050   -10.8783    -3.6012  C.ar    1  <O>11       0.1458
   4 F1        1.4699   -11.2386    -2.4576  F       1  <O>11      -0.2035
   5 C3       -0.5391   -11.2290    -3.7692  C.ar    1  <O>11      -0.0245
   6 C4       -1.2224   -10.8607    -4.9311  C.ar    1  <O>11      -0.0571
   7 C5       -0.5527   -10.1366    -5.9237  C.ar    1  <O>11      -0.0374
   8 C6        0.7874    -9.7806    -5.7650  C.ar    1  <O>11       0.0714
   9 N2        1.4750    -9.0290    -6.7840  N.pl3   1  <O>11      -0.2144
  10 S1        1.2705    -7.3930    -6.8835  S.O2    1  <O>11       0.0724
  11 O1       -0.2936    -7.0566    -7.3352  O.2     1  <O>11      -0.1500
  12 O2        2.3169    -6.7719    -8.0144  O.2     1  <O>11      -0.1500
  13 C7        1.6006    -6.6592    -5.3074  C.ar    1  <O>11       0.1092
  14 C8        0.5567    -6.4548    -4.3872  C.ar    1  <O>11      -0.0350
  15 C9        0.8177    -5.8629    -3.1462  C.ar    1  <O>11      -0.0592
  16 C10       2.1161    -5.4757    -2.8111  C.ar    1  <O>11      -0.0495
  17 C11       3.1561    -5.6861    -3.7236  C.ar    1  <O>11       0.0400
  18 C12       4.5013    -5.2828    -3.3708  C.2     1  <O>11       0.2602
  19 O3        5.2686    -6.0887    -2.8680  O.2     1  <O>11      -0.2687
  20 N3        4.9127    -3.9969    -3.6000  N.am    1  <O>11      -0.2301
  21 N4        4.0489    -3.0893    -4.1647  N.am    1  <O>11      -0.2300
  22 C13       3.5249    -3.3263    -5.4073  C.2     1  <O>11       0.2629
  23 O4        3.8258    -4.3444    -6.0121  O.2     1  <O>11      -0.2686
  24 C14       2.6112    -2.3637    -6.0085  C.ar    1  <O>11       0.0733
  25 C15       1.4898    -2.8063    -6.7324  C.ar    1  <O>11      -0.0468
  26 C16       0.6176    -1.8836    -7.3188  C.ar    1  <O>11      -0.0609
  27 C17       0.8545    -0.5141    -7.1884  C.ar    1  <O>11      -0.0590
  28 C18       1.9674    -0.0714    -6.4602  C.ar    1  <O>11      -0.0257
  29 C19       2.8417    -0.9841    -5.8686  C.ar    1  <O>11       0.1355
  30 F2        3.9266    -0.5523    -5.1516  F       1  <O>11      -0.2047
  31 C20       2.9067    -6.2764    -4.9631  C.ar    1  <O>11      -0.0229
  32 H1        3.3392    -9.2907    -5.1550  H       1  <O>11       0.1425
  33 H2        3.3420   -10.0924    -3.5807  H       1  <O>11       0.1425
  34 H3        2.0891    -9.5062    -7.4433  H       1  <O>11       0.1737
  35 H4        5.8599    -3.7125    -3.3513  H       1  <O>11       0.1731
  36 H5        3.8002    -2.2412    -3.6606  H       1  <O>11       0.1731
  37 H6       -1.0275   -11.7615    -3.0324  H       1  <O>11       0.0647
  38 H7       -2.2132   -11.1207    -5.0562  H       1  <O>11       0.0619
  39 H8       -1.0552    -9.8628    -6.7825  H       1  <O>11       0.0637
  40 H9       -0.4048    -6.7422    -4.6279  H       1  <O>11       0.0637
  41 H10       0.0473    -5.7120    -2.4764  H       1  <O>11       0.0618
  42 H11       2.3079    -5.0374    -1.8967  H       1  <O>11       0.0625
  43 H12       1.3094    -3.8176    -6.8315  H       1  <O>11       0.0626
  44 H13      -0.2030    -2.2160    -7.8492  H       1  <O>11       0.0618
  45 H14       0.2147     0.1677    -7.6250  H       1  <O>11       0.0618
  46 H15       2.1421     0.9408    -6.3606  H       1  <O>11       0.0646
  47 H16       3.6819    -6.4316    -5.6264  H       1  <O>11       0.0645
@<TRIPOS>BOND
     1     1     2    1
     2     2     3   ar
     3     3     4    1
     4     3     5   ar
     5     5     6   ar
     6     6     7   ar
     7     7     8   ar
     8     2     8   ar
     9     8     9    1
    10     9    10    1
    11    10    11    2
    12    10    12    2
    13    10    13    1
    14    13    14   ar
    15    14    15   ar
    16    15    16   ar
    17    16    17   ar
    18    17    18    1
    19    18    19    2
    20    18    20   am
    21    20    21    1
    22    21    22   am
    23    22    23    2
    24    22    24    1
    25    24    25   ar
    26    25    26   ar
    27    26    27   ar
    28    27    28   ar
    29    28    29   ar
    30    24    29   ar
    31    29    30    1
    32    17    31   ar
    33    13    31   ar
    34     1    32    1
    35     1    33    1
    36     9    34    1
    37    20    35    1
    38    21    36    1
    39     5    37    1
    40     6    38    1
    41     7    39    1
    42    14    40    1
    43    15    41    1
    44    16    42    1
    45    25    43    1
    46    26    44    1
    47    27    45    1
    48    28    46    1
    49    31    47    1
@<TRIPOS>MOLECULE
mol88_1_20
 47 49 0 0 0
SMALL
USER_CHARGES
****
VDW energy = 155.51
@<TRIPOS>ATOM
   1 N1        2.8495    -9.8143    -4.4295  N.pl3   1  <O>11      -0.3543
   2 C1        1.4617   -10.1611    -4.6036  C.ar    1  <O>11       0.0829
   3 C2        0.8050   -10.8783    -3.6012  C.ar    1  <O>11       0.1458
   4 F1        1.4699   -11.2386    -2.4576  F       1  <O>11      -0.2035
   5 C3       -0.5391   -11.2290    -3.7692  C.ar    1  <O>11      -0.0245
   6 C4       -1.2224   -10.8607    -4.9311  C.ar    1  <O>11      -0.0571
   7 C5       -0.5527   -10.1366    -5.9237  C.ar    1  <O>11      -0.0374
   8 C6        0.7874    -9.7806    -5.7650  C.ar    1  <O>11       0.0714
   9 N2        1.4750    -9.0290    -6.7840  N.pl3   1  <O>11      -0.2144
  10 S1        1.2705    -7.3930    -6.8835  S.O2    1  <O>11       0.0724
  11 O1        2.1786    -6.7966    -8.1417  O.2     1  <O>11      -0.1500
  12 O2        1.7638    -6.6858    -5.4636  O.2     1  <O>11      -0.1500
  13 C7       -0.4381    -7.0270    -7.1633  C.ar    1  <O>11       0.1092
  14 C8       -0.9289    -6.8891    -8.4742  C.ar    1  <O>11      -0.0350
  15 C9       -2.2778    -6.5872    -8.6929  C.ar    1  <O>11      -0.0592
  16 C10      -3.1463    -6.4256    -7.6124  C.ar    1  <O>11      -0.0495
  17 C11      -2.6597    -6.5703    -6.3083  C.ar    1  <O>11       0.0400
  18 C12      -3.5651    -6.4018    -5.1909  C.2     1  <O>11       0.2602
  19 O3       -4.1194    -7.3738    -4.7019  O.2     1  <O>11      -0.2687
  20 N3       -3.8008    -5.1520    -4.6833  N.am    1  <O>11      -0.2301
  21 N4       -3.1781    -4.0578    -5.2344  N.am    1  <O>11      -0.2300
  22 C13      -1.8110    -3.9836    -5.2465  C.2     1  <O>11       0.2629
  23 O4       -1.1466    -4.8903    -4.7677  O.2     1  <O>11      -0.2686
  24 C14      -1.1494    -2.8228    -5.8277  C.ar    1  <O>11       0.0733
  25 C15      -0.6738    -2.8656    -7.1504  C.ar    1  <O>11      -0.0468
  26 C16      -0.0294    -1.7558    -7.7063  C.ar    1  <O>11      -0.0609
  27 C17       0.1456    -0.5953    -6.9505  C.ar    1  <O>11      -0.0590
  28 C18      -0.3352    -0.5483    -5.6347  C.ar    1  <O>11      -0.0257
  29 C19      -0.9825    -1.6493    -5.0721  C.ar    1  <O>11       0.1355
  30 F2       -1.4581    -1.6023    -3.7879  F       1  <O>11      -0.2047
  31 C20      -1.3168    -6.8723    -6.0793  C.ar    1  <O>11      -0.0229
  32 H1        3.3392    -9.2907    -5.1550  H       1  <O>11       0.1425
  33 H2        3.3420   -10.0924    -3.5807  H       1  <O>11       0.1425
  34 H3        2.0891    -9.5062    -7.4433  H       1  <O>11       0.1737
  35 H4       -4.4386    -5.0330    -3.8966  H       1  <O>11       0.1731
  36 H5       -3.7325    -3.3027    -5.6316  H       1  <O>11       0.1731
  37 H6       -1.0275   -11.7615    -3.0324  H       1  <O>11       0.0647
  38 H7       -2.2132   -11.1207    -5.0562  H       1  <O>11       0.0619
  39 H8       -1.0552    -9.8628    -6.7825  H       1  <O>11       0.0637
  40 H9       -0.2923    -7.0110    -9.2772  H       1  <O>11       0.0637
  41 H10      -2.6317    -6.4837    -9.6569  H       1  <O>11       0.0618
  42 H11      -4.1405    -6.2010    -7.7741  H       1  <O>11       0.0625
  43 H12      -0.8010    -3.7207    -7.7140  H       1  <O>11       0.0626
  44 H13       0.3176    -1.7949    -8.6775  H       1  <O>11       0.0618
  45 H14       0.6256     0.2224    -7.3576  H       1  <O>11       0.0618
  46 H15      -0.2091     0.3100    -5.0757  H       1  <O>11       0.0646
  47 H16      -0.9697    -6.9819    -5.1137  H       1  <O>11       0.0645
@<TRIPOS>BOND
     1     1     2    1
     2     2     3   ar
     3     3     4    1
     4     3     5   ar
     5     5     6   ar
     6     6     7   ar
     7     7     8   ar
     8     2     8   ar
     9     8     9    1
    10     9    10    1
    11    10    11    2
    12    10    12    2
    13    10    13    1
    14    13    14   ar
    15    14    15   ar
    16    15    16   ar
    17    16    17   ar
    18    17    18    1
    19    18    19    2
    20    18    20   am
    21    20    21    1
    22    21    22   am
    23    22    23    2
    24    22    24    1
    25    24    25   ar
    26    25    26   ar
    27    26    27   ar
    28    27    28   ar
    29    28    29   ar
    30    24    29   ar
    31    29    30    1
    32    17    31   ar
    33    13    31   ar
    34     1    32    1
    35     1    33    1
    36     9    34    1
    37    20    35    1
    38    21    36    1
    39     5    37    1
    40     6    38    1
    41     7    39    1
    42    14    40    1
    43    15    41    1
    44    16    42    1
    45    25    43    1
    46    26    44    1
    47    27    45    1
    48    28    46    1
    49    31    47    1
@<TRIPOS>MOLECULE
mol88_1_21
 47 49 0 0 0
SMALL
USER_CHARGES
****
VDW energy = 156.69
@<TRIPOS>ATOM
   1 N1        2.8495    -9.8143    -4.4295  N.pl3   1  <O>11      -0.3543
   2 C1        1.4617   -10.1611    -4.6036  C.ar    1  <O>11       0.0829
   3 C2        0.8050   -10.8783    -3.6012  C.ar    1  <O>11       0.1458
   4 F1        1.4699   -11.2386    -2.4576  F       1  <O>11      -0.2035
   5 C3       -0.5391   -11.2290    -3.7692  C.ar    1  <O>11      -0.0245
   6 C4       -1.2224   -10.8607    -4.9311  C.ar    1  <O>11      -0.0571
   7 C5       -0.5527   -10.1366    -5.9237  C.ar    1  <O>11      -0.0374
   8 C6        0.7874    -9.7806    -5.7650  C.ar    1  <O>11       0.0714
   9 N2        1.4750    -9.0290    -6.7840  N.pl3   1  <O>11      -0.2144
  10 S1        1.9945    -7.4931    -6.4688  S.O2    1  <O>11       0.0724
  11 O1        2.7488    -6.8760    -7.8156  O.2     1  <O>11      -0.1500
  12 O2        3.0666    -7.5205    -5.2001  O.2     1  <O>11      -0.1500
  13 C7        0.6091    -6.4750    -6.0495  C.ar    1  <O>11       0.1092
  14 C8       -0.0633    -5.7458    -7.0468  C.ar    1  <O>11      -0.0350
  15 C9       -1.1508    -4.9315    -6.7112  C.ar    1  <O>11      -0.0592
  16 C10      -1.5788    -4.8409    -5.3859  C.ar    1  <O>11      -0.0495
  17 C11      -0.9147    -5.5724    -4.3948  C.ar    1  <O>11       0.0400
  18 C12      -1.3630    -5.4750    -3.0213  C.2     1  <O>11       0.2602
  19 O3       -2.1564    -6.2907    -2.5784  O.2     1  <O>11      -0.2687
  20 N3       -0.8980    -4.4671    -2.2194  N.am    1  <O>11      -0.2301
  21 N4       -1.3234    -4.3745    -0.9158  N.am    1  <O>11      -0.2300
  22 C13      -0.9541    -3.3005    -0.1511  C.2     1  <O>11       0.2629
  23 O4       -0.2474    -2.4258    -0.6288  O.2     1  <O>11      -0.2686
  24 C14      -1.4018    -3.2023     1.2320  C.ar    1  <O>11       0.0733
  25 C15      -1.7982    -1.9621     1.7631  C.ar    1  <O>11      -0.0468
  26 C16      -2.2184    -1.8645     3.0935  C.ar    1  <O>11      -0.0609
  27 C17      -2.2481    -3.0003     3.9044  C.ar    1  <O>11      -0.0590
  28 C18      -1.8610    -4.2386     3.3741  C.ar    1  <O>11      -0.0257
  29 C19      -1.4433    -4.3469     2.0468  C.ar    1  <O>11       0.1355
  30 F2       -1.0705    -5.5581     1.5257  F       1  <O>11      -0.2047
  31 C20       0.1701    -6.3881    -4.7189  C.ar    1  <O>11      -0.0229
  32 H1        3.3392    -9.2907    -5.1550  H       1  <O>11       0.1425
  33 H2        3.3420   -10.0924    -3.5807  H       1  <O>11       0.1425
  34 H3        1.6424    -9.4451    -7.6996  H       1  <O>11       0.1737
  35 H4       -0.2359    -3.7854    -2.5891  H       1  <O>11       0.1731
  36 H5       -1.9108    -5.1043    -0.5187  H       1  <O>11       0.1731
  37 H6       -1.0275   -11.7615    -3.0324  H       1  <O>11       0.0647
  38 H7       -2.2132   -11.1207    -5.0562  H       1  <O>11       0.0619
  39 H8       -1.0552    -9.8628    -6.7825  H       1  <O>11       0.0637
  40 H9        0.2464    -5.8115    -8.0291  H       1  <O>11       0.0637
  41 H10      -1.6382    -4.3959    -7.4466  H       1  <O>11       0.0618
  42 H11      -2.3796    -4.2387    -5.1385  H       1  <O>11       0.0625
  43 H12      -1.7789    -1.1192     1.1679  H       1  <O>11       0.0626
  44 H13      -2.5071    -0.9506     3.4765  H       1  <O>11       0.0618
  45 H14      -2.5528    -2.9287     4.8877  H       1  <O>11       0.0618
  46 H15      -1.8852    -5.0797     3.9717  H       1  <O>11       0.0646
  47 H16       0.6493    -6.9272    -3.9809  H       1  <O>11       0.0645
@<TRIPOS>BOND
     1     1     2    1
     2     2     3   ar
     3     3     4    1
     4     3     5   ar
     5     5     6   ar
     6     6     7   ar
     7     7     8   ar
     8     2     8   ar
     9     8     9    1
    10     9    10    1
    11    10    11    2
    12    10    12    2
    13    10    13    1
    14    13    14   ar
    15    14    15   ar
    16    15    16   ar
    17    16    17   ar
    18    17    18    1
    19    18    19    2
    20    18    20   am
    21    20    21    1
    22    21    22   am
    23    22    23    2
    24    22    24    1
    25    24    25   ar
    26    25    26   ar
    27    26    27   ar
    28    27    28   ar
    29    28    29   ar
    30    24    29   ar
    31    29    30    1
    32    17    31   ar
    33    13    31   ar
    34     1    32    1
    35     1    33    1
    36     9    34    1
    37    20    35    1
    38    21    36    1
    39     5    37    1
    40     6    38    1
    41     7    39    1
    42    14    40    1
    43    15    41    1
    44    16    42    1
    45    25    43    1
    46    26    44    1
    47    27    45    1
    48    28    46    1
    49    31    47    1
@<TRIPOS>MOLECULE
mol88_1_22
 47 49 0 0 0
SMALL
USER_CHARGES
****
VDW energy = 158.35
@<TRIPOS>ATOM
   1 N1        2.8495    -9.8143    -4.4295  N.pl3   1  <O>11      -0.3543
   2 C1        1.4617   -10.1611    -4.6036  C.ar    1  <O>11       0.0829
   3 C2        0.8050   -10.8783    -3.6012  C.ar    1  <O>11       0.1458
   4 F1        1.4699   -11.2386    -2.4576  F       1  <O>11      -0.2035
   5 C3       -0.5391   -11.2290    -3.7692  C.ar    1  <O>11      -0.0245
   6 C4       -1.2224   -10.8607    -4.9311  C.ar    1  <O>11      -0.0571
   7 C5       -0.5527   -10.1366    -5.9237  C.ar    1  <O>11      -0.0374
   8 C6        0.7874    -9.7806    -5.7650  C.ar    1  <O>11       0.0714
   9 N2        1.4750    -9.0290    -6.7840  N.pl3   1  <O>11      -0.2144
  10 S1        1.2705    -7.3930    -6.8835  S.O2    1  <O>11       0.0724
  11 O1        1.7617    -6.6857    -5.4616  O.2     1  <O>11      -0.1500
  12 O2       -0.3339    -7.0503    -7.1446  O.2     1  <O>11      -0.1500
  13 C7        2.2359    -6.7572    -8.2234  C.ar    1  <O>11       0.1092
  14 C8        3.5472    -6.3007    -7.9991  C.ar    1  <O>11      -0.0350
  15 C9        4.3046    -5.7866    -9.0577  C.ar    1  <O>11      -0.0592
  16 C10       3.7660    -5.7277   -10.3440  C.ar    1  <O>11      -0.0495
  17 C11       2.4640    -6.1890   -10.5686  C.ar    1  <O>11       0.0400
  18 C12       1.9101    -6.1258   -11.9050  C.2     1  <O>11       0.2602
  19 O3        1.9900    -7.0933   -12.6457  O.2     1  <O>11      -0.2687
  20 N3        1.2977    -4.9804   -12.3387  N.am    1  <O>11      -0.2301
  21 N4        1.2088    -3.8909   -11.5057  N.am    1  <O>11      -0.2300
  22 C13       0.5494    -3.9965   -10.3104  C.2     1  <O>11       0.2629
  23 O4        0.0412    -5.0592    -9.9860  O.2     1  <O>11      -0.2686
  24 C14       0.4518    -2.8416    -9.4275  C.ar    1  <O>11       0.0733
  25 C15       1.3548    -2.6856    -8.3608  C.ar    1  <O>11      -0.0468
  26 C16       1.2560    -1.5829    -7.5063  C.ar    1  <O>11      -0.0609
  27 C17       0.2586    -0.6272    -7.7075  C.ar    1  <O>11      -0.0590
  28 C18      -0.6371    -0.7771    -8.7752  C.ar    1  <O>11      -0.0257
  29 C19      -0.5446    -1.8722    -9.6354  C.ar    1  <O>11       0.1355
  30 F2       -1.4160    -2.0165   -10.6829  F       1  <O>11      -0.2047
  31 C20       1.7008    -6.7044    -9.5203  C.ar    1  <O>11      -0.0229
  32 H1        3.3392    -9.2907    -5.1550  H       1  <O>11       0.1425
  33 H2        3.3420   -10.0924    -3.5807  H       1  <O>11       0.1425
  34 H3        2.0891    -9.5062    -7.4433  H       1  <O>11       0.1737
  35 H4        0.9078    -4.9355   -13.2799  H       1  <O>11       0.1731
  36 H5        1.6312    -3.0061   -11.7776  H       1  <O>11       0.1731
  37 H6       -1.0275   -11.7615    -3.0324  H       1  <O>11       0.0647
  38 H7       -2.2132   -11.1207    -5.0562  H       1  <O>11       0.0619
  39 H8       -1.0552    -9.8628    -6.7825  H       1  <O>11       0.0637
  40 H9        3.9522    -6.3450    -7.0509  H       1  <O>11       0.0637
  41 H10       5.2650    -5.4497    -8.8867  H       1  <O>11       0.0618
  42 H11       4.3241    -5.3466   -11.1240  H       1  <O>11       0.0625
  43 H12       2.0945    -3.3888    -8.2078  H       1  <O>11       0.0626
  44 H13       1.9219    -1.4756    -6.7252  H       1  <O>11       0.0618
  45 H14       0.1813     0.1841    -7.0745  H       1  <O>11       0.0618
  46 H15      -1.3732    -0.0698    -8.9268  H       1  <O>11       0.0646
  47 H16       0.7437    -7.0466    -9.6981  H       1  <O>11       0.0645
@<TRIPOS>BOND
     1     1     2    1
     2     2     3   ar
     3     3     4    1
     4     3     5   ar
     5     5     6   ar
     6     6     7   ar
     7     7     8   ar
     8     2     8   ar
     9     8     9    1
    10     9    10    1
    11    10    11    2
    12    10    12    2
    13    10    13    1
    14    13    14   ar
    15    14    15   ar
    16    15    16   ar
    17    16    17   ar
    18    17    18    1
    19    18    19    2
    20    18    20   am
    21    20    21    1
    22    21    22   am
    23    22    23    2
    24    22    24    1
    25    24    25   ar
    26    25    26   ar
    27    26    27   ar
    28    27    28   ar
    29    28    29   ar
    30    24    29   ar
    31    29    30    1
    32    17    31   ar
    33    13    31   ar
    34     1    32    1
    35     1    33    1
    36     9    34    1
    37    20    35    1
    38    21    36    1
    39     5    37    1
    40     6    38    1
    41     7    39    1
    42    14    40    1
    43    15    41    1
    44    16    42    1
    45    25    43    1
    46    26    44    1
    47    27    45    1
    48    28    46    1
    49    31    47    1
@<TRIPOS>MOLECULE
mol88_1_23
 47 49 0 0 0
SMALL
USER_CHARGES
****
VDW energy = 158.80
@<TRIPOS>ATOM
   1 N1        2.8495    -9.8143    -4.4295  N.pl3   1  <O>11      -0.3543
   2 C1        1.4617   -10.1611    -4.6036  C.ar    1  <O>11       0.0829
   3 C2        0.8050   -10.8783    -3.6012  C.ar    1  <O>11       0.1458
   4 F1        1.4699   -11.2386    -2.4576  F       1  <O>11      -0.2035
   5 C3       -0.5391   -11.2290    -3.7692  C.ar    1  <O>11      -0.0245
   6 C4       -1.2224   -10.8607    -4.9311  C.ar    1  <O>11      -0.0571
   7 C5       -0.5527   -10.1366    -5.9237  C.ar    1  <O>11      -0.0374
   8 C6        0.7874    -9.7806    -5.7650  C.ar    1  <O>11       0.0714
   9 N2        1.4750    -9.0290    -6.7840  N.pl3   1  <O>11      -0.2144
  10 S1        1.2705    -7.3930    -6.8835  S.O2    1  <O>11       0.0724
  11 O1       -0.2936    -7.0566    -7.3352  O.2     1  <O>11      -0.1500
  12 O2        2.3169    -6.7719    -8.0144  O.2     1  <O>11      -0.1500
  13 C7        1.6006    -6.6592    -5.3074  C.ar    1  <O>11       0.1092
  14 C8        2.8653    -6.8025    -4.7088  C.ar    1  <O>11      -0.0350
  15 C9        3.1205    -6.2321    -3.4566  C.ar    1  <O>11      -0.0592
  16 C10       2.1236    -5.5131    -2.7953  C.ar    1  <O>11      -0.0495
  17 C11       0.8677    -5.3640    -3.3943  C.ar    1  <O>11       0.0400
  18 C12      -0.1629    -4.6168    -2.7040  C.2     1  <O>11       0.2602
  19 O3       -0.3155    -3.4279    -2.9372  O.2     1  <O>11      -0.2687
  20 N3       -0.9656    -5.2434    -1.7884  N.am    1  <O>11      -0.2301
  21 N4       -1.9438    -4.5345    -1.1331  N.am    1  <O>11      -0.2300
  22 C13      -2.9405    -3.9248    -1.8471  C.2     1  <O>11       0.2629
  23 O4       -2.9590    -4.0122    -3.0656  O.2     1  <O>11      -0.2686
  24 C14      -3.9766    -3.1705    -1.1540  C.ar    1  <O>11       0.0733
  25 C15      -5.2156    -3.7686    -0.8636  C.ar    1  <O>11      -0.0468
  26 C16      -6.2149    -3.0426    -0.2076  C.ar    1  <O>11      -0.0609
  27 C17      -5.9879    -1.7166     0.1650  C.ar    1  <O>11      -0.0590
  28 C18      -4.7505    -1.1216    -0.1164  C.ar    1  <O>11      -0.0257
  29 C19      -3.7459    -1.8387    -0.7677  C.ar    1  <O>11       0.1355
  30 F2       -2.5337    -1.2599    -1.0380  F       1  <O>11      -0.2047
  31 C20       0.6033    -5.9279    -4.6430  C.ar    1  <O>11      -0.0229
  32 H1        3.3392    -9.2907    -5.1550  H       1  <O>11       0.1425
  33 H2        3.3420   -10.0924    -3.5807  H       1  <O>11       0.1425
  34 H3        2.0891    -9.5062    -7.4433  H       1  <O>11       0.1737
  35 H4       -0.8380    -6.2360    -1.5930  H       1  <O>11       0.1731
  36 H5       -1.9265    -4.4613    -0.1184  H       1  <O>11       0.1731
  37 H6       -1.0275   -11.7615    -3.0324  H       1  <O>11       0.0647
  38 H7       -2.2132   -11.1207    -5.0562  H       1  <O>11       0.0619
  39 H8       -1.0552    -9.8628    -6.7825  H       1  <O>11       0.0637
  40 H9        3.6075    -7.3301    -5.1946  H       1  <O>11       0.0637
  41 H10       4.0492    -6.3434    -3.0206  H       1  <O>11       0.0618
  42 H11       2.3115    -5.0942    -1.8710  H       1  <O>11       0.0625
  43 H12      -5.3887    -4.7489    -1.1362  H       1  <O>11       0.0626
  44 H13      -7.1220    -3.4882     0.0015  H       1  <O>11       0.0618
  45 H14      -6.7262    -1.1781     0.6444  H       1  <O>11       0.0618
  46 H15      -4.5803    -0.1422     0.1610  H       1  <O>11       0.0646
  47 H16      -0.3247    -5.8073    -5.0778  H       1  <O>11       0.0645
@<TRIPOS>BOND
     1     1     2    1
     2     2     3   ar
     3     3     4    1
     4     3     5   ar
     5     5     6   ar
     6     6     7   ar
     7     7     8   ar
     8     2     8   ar
     9     8     9    1
    10     9    10    1
    11    10    11    2
    12    10    12    2
    13    10    13    1
    14    13    14   ar
    15    14    15   ar
    16    15    16   ar
    17    16    17   ar
    18    17    18    1
    19    18    19    2
    20    18    20   am
    21    20    21    1
    22    21    22   am
    23    22    23    2
    24    22    24    1
    25    24    25   ar
    26    25    26   ar
    27    26    27   ar
    28    27    28   ar
    29    28    29   ar
    30    24    29   ar
    31    29    30    1
    32    17    31   ar
    33    13    31   ar
    34     1    32    1
    35     1    33    1
    36     9    34    1
    37    20    35    1
    38    21    36    1
    39     5    37    1
    40     6    38    1
    41     7    39    1
    42    14    40    1
    43    15    41    1
    44    16    42    1
    45    25    43    1
    46    26    44    1
    47    27    45    1
    48    28    46    1
    49    31    47    1
@<TRIPOS>MOLECULE
mol88_1_24
 47 49 0 0 0
SMALL
USER_CHARGES
****
VDW energy = 160.00
@<TRIPOS>ATOM
   1 N1        2.8495    -9.8143    -4.4295  N.pl3   1  <O>11      -0.3543
   2 C1        1.4617   -10.1611    -4.6036  C.ar    1  <O>11       0.0829
   3 C2        0.8050   -10.8783    -3.6012  C.ar    1  <O>11       0.1458
   4 F1        1.4699   -11.2386    -2.4576  F       1  <O>11      -0.2035
   5 C3       -0.5391   -11.2290    -3.7692  C.ar    1  <O>11      -0.0245
   6 C4       -1.2224   -10.8607    -4.9311  C.ar    1  <O>11      -0.0571
   7 C5       -0.5527   -10.1366    -5.9237  C.ar    1  <O>11      -0.0374
   8 C6        0.7874    -9.7806    -5.7650  C.ar    1  <O>11       0.0714
   9 N2        1.4750    -9.0290    -6.7840  N.pl3   1  <O>11      -0.2144
  10 S1        1.2705    -7.3930    -6.8835  S.O2    1  <O>11       0.0724
  11 O1       -0.2936    -7.0566    -7.3352  O.2     1  <O>11      -0.1500
  12 O2        2.3169    -6.7719    -8.0144  O.2     1  <O>11      -0.1500
  13 C7        1.6006    -6.6592    -5.3074  C.ar    1  <O>11       0.1092
  14 C8        0.5567    -6.4548    -4.3872  C.ar    1  <O>11      -0.0350
  15 C9        0.8177    -5.8629    -3.1462  C.ar    1  <O>11      -0.0592
  16 C10       2.1161    -5.4757    -2.8111  C.ar    1  <O>11      -0.0495
  17 C11       3.1561    -5.6861    -3.7236  C.ar    1  <O>11       0.0400
  18 C12       4.5013    -5.2828    -3.3708  C.2     1  <O>11       0.2602
  19 O3        5.2686    -6.0887    -2.8680  O.2     1  <O>11      -0.2687
  20 N3        4.9127    -3.9969    -3.6000  N.am    1  <O>11      -0.2301
  21 N4        6.1895    -3.6139    -3.2652  N.am    1  <O>11      -0.2300
  22 C13       7.2634    -4.2424    -3.8364  C.2     1  <O>11       0.2629
  23 O4        8.3985    -3.9007    -3.5404  O.2     1  <O>11      -0.2686
  24 C14       7.0523    -5.3164    -4.7981  C.ar    1  <O>11       0.0733
  25 C15       7.8765    -6.4556    -4.7818  C.ar    1  <O>11      -0.0468
  26 C16       7.6818    -7.4826    -5.7109  C.ar    1  <O>11      -0.0609
  27 C17       6.6650    -7.3838    -6.6623  C.ar    1  <O>11      -0.0590
  28 C18       5.8375    -6.2526    -6.6746  C.ar    1  <O>11      -0.0257
  29 C19       6.0217    -5.2239    -5.7495  C.ar    1  <O>11       0.1355
  30 F2        5.2095    -4.1204    -5.7570  F       1  <O>11      -0.2047
  31 C20       2.9067    -6.2764    -4.9631  C.ar    1  <O>11      -0.0229
  32 H1        3.3392    -9.2907    -5.1550  H       1  <O>11       0.1425
  33 H2        3.3420   -10.0924    -3.5807  H       1  <O>11       0.1425
  34 H3        2.0891    -9.5062    -7.4433  H       1  <O>11       0.1737
  35 H4        4.2720    -3.3235    -4.0193  H       1  <O>11       0.1731
  36 H5        6.3366    -2.8650    -2.5923  H       1  <O>11       0.1731
  37 H6       -1.0275   -11.7615    -3.0324  H       1  <O>11       0.0647
  38 H7       -2.2132   -11.1207    -5.0562  H       1  <O>11       0.0619
  39 H8       -1.0552    -9.8628    -6.7825  H       1  <O>11       0.0637
  40 H9       -0.4048    -6.7422    -4.6279  H       1  <O>11       0.0637
  41 H10       0.0473    -5.7120    -2.4764  H       1  <O>11       0.0618
  42 H11       2.3079    -5.0374    -1.8967  H       1  <O>11       0.0625
  43 H12       8.6294    -6.5343    -4.0803  H       1  <O>11       0.0626
  44 H13       8.2911    -8.3154    -5.6932  H       1  <O>11       0.0618
  45 H14       6.5236    -8.1384    -7.3518  H       1  <O>11       0.0618
  46 H15       5.0836    -6.1795    -7.3756  H       1  <O>11       0.0646
  47 H16       3.6819    -6.4316    -5.6264  H       1  <O>11       0.0645
@<TRIPOS>BOND
     1     1     2    1
     2     2     3   ar
     3     3     4    1
     4     3     5   ar
     5     5     6   ar
     6     6     7   ar
     7     7     8   ar
     8     2     8   ar
     9     8     9    1
    10     9    10    1
    11    10    11    2
    12    10    12    2
    13    10    13    1
    14    13    14   ar
    15    14    15   ar
    16    15    16   ar
    17    16    17   ar
    18    17    18    1
    19    18    19    2
    20    18    20   am
    21    20    21    1
    22    21    22   am
    23    22    23    2
    24    22    24    1
    25    24    25   ar
    26    25    26   ar
    27    26    27   ar
    28    27    28   ar
    29    28    29   ar
    30    24    29   ar
    31    29    30    1
    32    17    31   ar
    33    13    31   ar
    34     1    32    1
    35     1    33    1
    36     9    34    1
    37    20    35    1
    38    21    36    1
    39     5    37    1
    40     6    38    1
    41     7    39    1
    42    14    40    1
    43    15    41    1
    44    16    42    1
    45    25    43    1
    46    26    44    1
    47    27    45    1
    48    28    46    1
    49    31    47    1
@<TRIPOS>MOLECULE
mol88_1_25
 47 49 0 0 0
SMALL
USER_CHARGES
****
VDW energy = 160.58
@<TRIPOS>ATOM
   1 N1        2.8495    -9.8143    -4.4295  N.pl3   1  <O>11      -0.3543
   2 C1        1.4617   -10.1611    -4.6036  C.ar    1  <O>11       0.0829
   3 C2        0.8050   -10.8783    -3.6012  C.ar    1  <O>11       0.1458
   4 F1        1.4699   -11.2386    -2.4576  F       1  <O>11      -0.2035
   5 C3       -0.5391   -11.2290    -3.7692  C.ar    1  <O>11      -0.0245
   6 C4       -1.2224   -10.8607    -4.9311  C.ar    1  <O>11      -0.0571
   7 C5       -0.5527   -10.1366    -5.9237  C.ar    1  <O>11      -0.0374
   8 C6        0.7874    -9.7806    -5.7650  C.ar    1  <O>11       0.0714
   9 N2        1.4750    -9.0290    -6.7840  N.pl3   1  <O>11      -0.2144
  10 S1        1.2705    -7.3930    -6.8835  S.O2    1  <O>11       0.0724
  11 O1       -0.2936    -7.0566    -7.3352  O.2     1  <O>11      -0.1500
  12 O2        2.3169    -6.7719    -8.0144  O.2     1  <O>11      -0.1500
  13 C7        1.6006    -6.6592    -5.3074  C.ar    1  <O>11       0.1092
  14 C8        0.5567    -6.4548    -4.3872  C.ar    1  <O>11      -0.0350
  15 C9        0.8177    -5.8629    -3.1462  C.ar    1  <O>11      -0.0592
  16 C10       2.1161    -5.4757    -2.8111  C.ar    1  <O>11      -0.0495
  17 C11       3.1561    -5.6861    -3.7236  C.ar    1  <O>11       0.0400
  18 C12       4.5013    -5.2828    -3.3708  C.2     1  <O>11       0.2602
  19 O3        4.7191    -4.7639    -2.2871  O.2     1  <O>11      -0.2687
  20 N3        5.5293    -5.4821    -4.2533  N.am    1  <O>11      -0.2301
  21 N4        6.8062    -5.0994    -3.9187  N.am    1  <O>11      -0.2300
  22 C13       7.0743    -3.7869    -3.6359  C.2     1  <O>11       0.2629
  23 O4        6.1780    -2.9578    -3.6811  O.2     1  <O>11      -0.2686
  24 C14       8.4281    -3.3792    -3.2839  C.ar    1  <O>11       0.0733
  25 C15       8.7991    -3.2405    -1.9346  C.ar    1  <O>11      -0.0468
  26 C16      10.0952    -2.8393    -1.5953  C.ar    1  <O>11      -0.0609
  27 C17      11.0315    -2.5740    -2.5961  C.ar    1  <O>11      -0.0590
  28 C18      10.6656    -2.7197    -3.9412  C.ar    1  <O>11      -0.0257
  29 C19       9.3757    -3.1227    -4.2899  C.ar    1  <O>11       0.1355
  30 F2        9.0188    -3.2711    -5.6044  F       1  <O>11      -0.2047
  31 C20       2.9067    -6.2764    -4.9631  C.ar    1  <O>11      -0.0229
  32 H1        3.3392    -9.2907    -5.1550  H       1  <O>11       0.1425
  33 H2        3.3420   -10.0924    -3.5807  H       1  <O>11       0.1425
  34 H3        2.0891    -9.5062    -7.4433  H       1  <O>11       0.1737
  35 H4        5.3476    -5.9148    -5.1586  H       1  <O>11       0.1731
  36 H5        7.5520    -5.7906    -3.8827  H       1  <O>11       0.1731
  37 H6       -1.0275   -11.7615    -3.0324  H       1  <O>11       0.0647
  38 H7       -2.2132   -11.1207    -5.0562  H       1  <O>11       0.0619
  39 H8       -1.0552    -9.8628    -6.7825  H       1  <O>11       0.0637
  40 H9       -0.4048    -6.7422    -4.6279  H       1  <O>11       0.0637
  41 H10       0.0473    -5.7120    -2.4764  H       1  <O>11       0.0618
  42 H11       2.3079    -5.0374    -1.8967  H       1  <O>11       0.0625
  43 H12       8.1111    -3.4359    -1.1905  H       1  <O>11       0.0626
  44 H13      10.3599    -2.7390    -0.6028  H       1  <O>11       0.0618
  45 H14      11.9866    -2.2727    -2.3472  H       1  <O>11       0.0618
  46 H15      11.3576    -2.5266    -4.6821  H       1  <O>11       0.0646
  47 H16       3.6819    -6.4316    -5.6264  H       1  <O>11       0.0645
@<TRIPOS>BOND
     1     1     2    1
     2     2     3   ar
     3     3     4    1
     4     3     5   ar
     5     5     6   ar
     6     6     7   ar
     7     7     8   ar
     8     2     8   ar
     9     8     9    1
    10     9    10    1
    11    10    11    2
    12    10    12    2
    13    10    13    1
    14    13    14   ar
    15    14    15   ar
    16    15    16   ar
    17    16    17   ar
    18    17    18    1
    19    18    19    2
    20    18    20   am
    21    20    21    1
    22    21    22   am
    23    22    23    2
    24    22    24    1
    25    24    25   ar
    26    25    26   ar
    27    26    27   ar
    28    27    28   ar
    29    28    29   ar
    30    24    29   ar
    31    29    30    1
    32    17    31   ar
    33    13    31   ar
    34     1    32    1
    35     1    33    1
    36     9    34    1
    37    20    35    1
    38    21    36    1
    39     5    37    1
    40     6    38    1
    41     7    39    1
    42    14    40    1
    43    15    41    1
    44    16    42    1
    45    25    43    1
    46    26    44    1
    47    27    45    1
    48    28    46    1
    49    31    47    1
@<TRIPOS>MOLECULE
mol88_1_26
 47 49 0 0 0
SMALL
USER_CHARGES
****
VDW energy = 162.78
@<TRIPOS>ATOM
   1 N1        2.8495    -9.8143    -4.4295  N.pl3   1  <O>11      -0.3543
   2 C1        1.4617   -10.1611    -4.6036  C.ar    1  <O>11       0.0829
   3 C2        0.8050   -10.8783    -3.6012  C.ar    1  <O>11       0.1458
   4 F1        1.4699   -11.2386    -2.4576  F       1  <O>11      -0.2035
   5 C3       -0.5391   -11.2290    -3.7692  C.ar    1  <O>11      -0.0245
   6 C4       -1.2224   -10.8607    -4.9311  C.ar    1  <O>11      -0.0571
   7 C5       -0.5527   -10.1366    -5.9237  C.ar    1  <O>11      -0.0374
   8 C6        0.7874    -9.7806    -5.7650  C.ar    1  <O>11       0.0714
   9 N2        1.4750    -9.0290    -6.7840  N.pl3   1  <O>11      -0.2144
  10 S1        1.2705    -7.3930    -6.8835  S.O2    1  <O>11       0.0724
  11 O1       -0.2936    -7.0566    -7.3352  O.2     1  <O>11      -0.1500
  12 O2        2.3169    -6.7719    -8.0144  O.2     1  <O>11      -0.1500
  13 C7        1.6006    -6.6592    -5.3074  C.ar    1  <O>11       0.1092
  14 C8        0.5567    -6.4548    -4.3872  C.ar    1  <O>11      -0.0350
  15 C9        0.8177    -5.8629    -3.1462  C.ar    1  <O>11      -0.0592
  16 C10       2.1161    -5.4757    -2.8111  C.ar    1  <O>11      -0.0495
  17 C11       3.1561    -5.6861    -3.7236  C.ar    1  <O>11       0.0400
  18 C12       4.5013    -5.2828    -3.3708  C.2     1  <O>11       0.2602
  19 O3        5.2686    -6.0887    -2.8680  O.2     1  <O>11      -0.2687
  20 N3        4.9127    -3.9969    -3.6000  N.am    1  <O>11      -0.2301
  21 N4        6.1895    -3.6139    -3.2652  N.am    1  <O>11      -0.2300
  22 C13       6.5619    -2.3015    -3.3816  C.2     1  <O>11       0.2629
  23 O4        7.6963    -1.9605    -3.0821  O.2     1  <O>11      -0.2686
  24 C14       5.6052    -1.3122    -3.8601  C.ar    1  <O>11       0.0733
  25 C15       6.0167    -0.2939    -4.7382  C.ar    1  <O>11      -0.0468
  26 C16       5.1018     0.6624    -5.1902  C.ar    1  <O>11      -0.0609
  27 C17       3.7708     0.6119    -4.7723  C.ar    1  <O>11      -0.0590
  28 C18       3.3574    -0.4073    -3.9034  C.ar    1  <O>11      -0.0257
  29 C19       4.2620    -1.3682    -3.4495  C.ar    1  <O>11       0.1355
  30 F2        3.8575    -2.3684    -2.6048  F       1  <O>11      -0.2047
  31 C20       2.9067    -6.2764    -4.9631  C.ar    1  <O>11      -0.0229
  32 H1        3.3392    -9.2907    -5.1550  H       1  <O>11       0.1425
  33 H2        3.3420   -10.0924    -3.5807  H       1  <O>11       0.1425
  34 H3        2.0891    -9.5062    -7.4433  H       1  <O>11       0.1737
  35 H4        4.2720    -3.3235    -4.0193  H       1  <O>11       0.1731
  36 H5        6.8579    -4.3053    -2.9328  H       1  <O>11       0.1731
  37 H6       -1.0275   -11.7615    -3.0324  H       1  <O>11       0.0647
  38 H7       -2.2132   -11.1207    -5.0562  H       1  <O>11       0.0619
  39 H8       -1.0552    -9.8628    -6.7825  H       1  <O>11       0.0637
  40 H9       -0.4048    -6.7422    -4.6279  H       1  <O>11       0.0637
  41 H10       0.0473    -5.7120    -2.4764  H       1  <O>11       0.0618
  42 H11       2.3079    -5.0374    -1.8967  H       1  <O>11       0.0625
  43 H12       6.9993    -0.2521    -5.0510  H       1  <O>11       0.0626
  44 H13       5.4113     1.4072    -5.8340  H       1  <O>11       0.0618
  45 H14       3.0959     1.3200    -5.1008  H       1  <O>11       0.0618
  46 H15       2.3731    -0.4475    -3.5959  H       1  <O>11       0.0646
  47 H16       3.6819    -6.4316    -5.6264  H       1  <O>11       0.0645
@<TRIPOS>BOND
     1     1     2    1
     2     2     3   ar
     3     3     4    1
     4     3     5   ar
     5     5     6   ar
     6     6     7   ar
     7     7     8   ar
     8     2     8   ar
     9     8     9    1
    10     9    10    1
    11    10    11    2
    12    10    12    2
    13    10    13    1
    14    13    14   ar
    15    14    15   ar
    16    15    16   ar
    17    16    17   ar
    18    17    18    1
    19    18    19    2
    20    18    20   am
    21    20    21    1
    22    21    22   am
    23    22    23    2
    24    22    24    1
    25    24    25   ar
    26    25    26   ar
    27    26    27   ar
    28    27    28   ar
    29    28    29   ar
    30    24    29   ar
    31    29    30    1
    32    17    31   ar
    33    13    31   ar
    34     1    32    1
    35     1    33    1
    36     9    34    1
    37    20    35    1
    38    21    36    1
    39     5    37    1
    40     6    38    1
    41     7    39    1
    42    14    40    1
    43    15    41    1
    44    16    42    1
    45    25    43    1
    46    26    44    1
    47    27    45    1
    48    28    46    1
    49    31    47    1
@<TRIPOS>MOLECULE
mol88_1_27
 47 49 0 0 0
SMALL
USER_CHARGES
****
VDW energy = 167.34
@<TRIPOS>ATOM
   1 N1        2.8495    -9.8143    -4.4295  N.pl3   1  <O>11      -0.3543
   2 C1        1.4617   -10.1611    -4.6036  C.ar    1  <O>11       0.0829
   3 C2        0.8050   -10.8783    -3.6012  C.ar    1  <O>11       0.1458
   4 F1        1.4699   -11.2386    -2.4576  F       1  <O>11      -0.2035
   5 C3       -0.5391   -11.2290    -3.7692  C.ar    1  <O>11      -0.0245
   6 C4       -1.2224   -10.8607    -4.9311  C.ar    1  <O>11      -0.0571
   7 C5       -0.5527   -10.1366    -5.9237  C.ar    1  <O>11      -0.0374
   8 C6        0.7874    -9.7806    -5.7650  C.ar    1  <O>11       0.0714
   9 N2        1.4750    -9.0290    -6.7840  N.pl3   1  <O>11      -0.2144
  10 S1        1.2705    -7.3930    -6.8835  S.O2    1  <O>11       0.0724
  11 O1        2.1786    -6.7966    -8.1417  O.2     1  <O>11      -0.1500
  12 O2        1.7638    -6.6858    -5.4636  O.2     1  <O>11      -0.1500
  13 C7       -0.4381    -7.0270    -7.1633  C.ar    1  <O>11       0.1092
  14 C8       -0.9289    -6.8891    -8.4742  C.ar    1  <O>11      -0.0350
  15 C9       -2.2778    -6.5872    -8.6929  C.ar    1  <O>11      -0.0592
  16 C10      -3.1463    -6.4256    -7.6124  C.ar    1  <O>11      -0.0495
  17 C11      -2.6597    -6.5703    -6.3083  C.ar    1  <O>11       0.0400
  18 C12      -3.5651    -6.4018    -5.1909  C.2     1  <O>11       0.2602
  19 O3       -4.1194    -7.3738    -4.7019  O.2     1  <O>11      -0.2687
  20 N3       -3.8008    -5.1520    -4.6833  N.am    1  <O>11      -0.2301
  21 N4       -3.1781    -4.0578    -5.2344  N.am    1  <O>11      -0.2300
  22 C13      -3.3797    -3.7488    -6.5529  C.2     1  <O>11       0.2629
  23 O4       -4.1131    -4.4459    -7.2376  O.2     1  <O>11      -0.2686
  24 C14      -2.7179    -2.5907    -7.1393  C.ar    1  <O>11       0.0733
  25 C15      -3.3987    -1.3654    -7.2509  C.ar    1  <O>11      -0.0468
  26 C16      -2.7683    -0.2558    -7.8229  C.ar    1  <O>11      -0.0609
  27 C17      -1.4558    -0.3572    -8.2872  C.ar    1  <O>11      -0.0590
  28 C18      -0.7731    -1.5757    -8.1693  C.ar    1  <O>11      -0.0257
  29 C19      -1.3923    -2.6877    -7.5970  C.ar    1  <O>11       0.1355
  30 F2       -0.7238    -3.8776    -7.4758  F       1  <O>11      -0.2047
  31 C20      -1.3168    -6.8723    -6.0793  C.ar    1  <O>11      -0.0229
  32 H1        3.3392    -9.2907    -5.1550  H       1  <O>11       0.1425
  33 H2        3.3420   -10.0924    -3.5807  H       1  <O>11       0.1425
  34 H3        2.0891    -9.5062    -7.4433  H       1  <O>11       0.1737
  35 H4       -4.4386    -5.0330    -3.8966  H       1  <O>11       0.1731
  36 H5       -2.5664    -3.4788    -4.6635  H       1  <O>11       0.1731
  37 H6       -1.0275   -11.7615    -3.0324  H       1  <O>11       0.0647
  38 H7       -2.2132   -11.1207    -5.0562  H       1  <O>11       0.0619
  39 H8       -1.0552    -9.8628    -6.7825  H       1  <O>11       0.0637
  40 H9       -0.2923    -7.0110    -9.2772  H       1  <O>11       0.0637
  41 H10      -2.6317    -6.4837    -9.6569  H       1  <O>11       0.0618
  42 H11      -4.1405    -6.2010    -7.7741  H       1  <O>11       0.0625
  43 H12      -4.3690    -1.2845    -6.9087  H       1  <O>11       0.0626
  44 H13      -3.2747     0.6400    -7.9020  H       1  <O>11       0.0618
  45 H14      -0.9913     0.4593    -8.7143  H       1  <O>11       0.0618
  46 H15       0.1983    -1.6513    -8.5095  H       1  <O>11       0.0646
  47 H16      -0.9697    -6.9819    -5.1137  H       1  <O>11       0.0645
@<TRIPOS>BOND
     1     1     2    1
     2     2     3   ar
     3     3     4    1
     4     3     5   ar
     5     5     6   ar
     6     6     7   ar
     7     7     8   ar
     8     2     8   ar
     9     8     9    1
    10     9    10    1
    11    10    11    2
    12    10    12    2
    13    10    13    1
    14    13    14   ar
    15    14    15   ar
    16    15    16   ar
    17    16    17   ar
    18    17    18    1
    19    18    19    2
    20    18    20   am
    21    20    21    1
    22    21    22   am
    23    22    23    2
    24    22    24    1
    25    24    25   ar
    26    25    26   ar
    27    26    27   ar
    28    27    28   ar
    29    28    29   ar
    30    24    29   ar
    31    29    30    1
    32    17    31   ar
    33    13    31   ar
    34     1    32    1
    35     1    33    1
    36     9    34    1
    37    20    35    1
    38    21    36    1
    39     5    37    1
    40     6    38    1
    41     7    39    1
    42    14    40    1
    43    15    41    1
    44    16    42    1
    45    25    43    1
    46    26    44    1
    47    27    45    1
    48    28    46    1
    49    31    47    1
@<TRIPOS>MOLECULE
mol88_1_28
 47 49 0 0 0
SMALL
USER_CHARGES
****
VDW energy = 170.59
@<TRIPOS>ATOM
   1 N1        2.8495    -9.8143    -4.4295  N.pl3   1  <O>11      -0.3543
   2 C1        1.4617   -10.1611    -4.6036  C.ar    1  <O>11       0.0829
   3 C2        0.8050   -10.8783    -3.6012  C.ar    1  <O>11       0.1458
   4 F1        1.4699   -11.2386    -2.4576  F       1  <O>11      -0.2035
   5 C3       -0.5391   -11.2290    -3.7692  C.ar    1  <O>11      -0.0245
   6 C4       -1.2224   -10.8607    -4.9311  C.ar    1  <O>11      -0.0571
   7 C5       -0.5527   -10.1366    -5.9237  C.ar    1  <O>11      -0.0374
   8 C6        0.7874    -9.7806    -5.7650  C.ar    1  <O>11       0.0714
   9 N2        1.4750    -9.0290    -6.7840  N.pl3   1  <O>11      -0.2144
  10 S1        1.2705    -7.3930    -6.8835  S.O2    1  <O>11       0.0724
  11 O1       -0.2936    -7.0566    -7.3352  O.2     1  <O>11      -0.1500
  12 O2        2.3169    -6.7719    -8.0144  O.2     1  <O>11      -0.1500
  13 C7        1.6006    -6.6592    -5.3074  C.ar    1  <O>11       0.1092
  14 C8        0.5567    -6.4548    -4.3872  C.ar    1  <O>11      -0.0350
  15 C9        0.8177    -5.8629    -3.1462  C.ar    1  <O>11      -0.0592
  16 C10       2.1161    -5.4757    -2.8111  C.ar    1  <O>11      -0.0495
  17 C11       3.1561    -5.6861    -3.7236  C.ar    1  <O>11       0.0400
  18 C12       4.5013    -5.2828    -3.3708  C.2     1  <O>11       0.2602
  19 O3        4.7191    -4.7639    -2.2871  O.2     1  <O>11      -0.2687
  20 N3        5.5293    -5.4821    -4.2533  N.am    1  <O>11      -0.2301
  21 N4        6.8062    -5.0994    -3.9187  N.am    1  <O>11      -0.2300
  22 C13       7.0743    -3.7869    -3.6359  C.2     1  <O>11       0.2629
  23 O4        6.1780    -2.9578    -3.6811  O.2     1  <O>11      -0.2686
  24 C14       8.4281    -3.3792    -3.2839  C.ar    1  <O>11       0.0733
  25 C15       9.4647    -4.3281    -3.2344  C.ar    1  <O>11      -0.0468
  26 C16      10.7625    -3.9400    -2.8866  C.ar    1  <O>11      -0.0609
  27 C17      11.0383    -2.6049    -2.5865  C.ar    1  <O>11      -0.0590
  28 C18      10.0078    -1.6565    -2.6432  C.ar    1  <O>11      -0.0257
  29 C19       8.7102    -2.0333    -2.9924  C.ar    1  <O>11       0.1355
  30 F2        7.7034    -1.1059    -3.0540  F       1  <O>11      -0.2047
  31 C20       2.9067    -6.2764    -4.9631  C.ar    1  <O>11      -0.0229
  32 H1        3.3392    -9.2907    -5.1550  H       1  <O>11       0.1425
  33 H2        3.3420   -10.0924    -3.5807  H       1  <O>11       0.1425
  34 H3        2.0891    -9.5062    -7.4433  H       1  <O>11       0.1737
  35 H4        5.3476    -5.9148    -5.1586  H       1  <O>11       0.1731
  36 H5        7.5520    -5.7906    -3.8827  H       1  <O>11       0.1731
  37 H6       -1.0275   -11.7615    -3.0324  H       1  <O>11       0.0647
  38 H7       -2.2132   -11.1207    -5.0562  H       1  <O>11       0.0619
  39 H8       -1.0552    -9.8628    -6.7825  H       1  <O>11       0.0637
  40 H9       -0.4048    -6.7422    -4.6279  H       1  <O>11       0.0637
  41 H10       0.0473    -5.7120    -2.4764  H       1  <O>11       0.0618
  42 H11       2.3079    -5.0374    -1.8967  H       1  <O>11       0.0625
  43 H12       9.2666    -5.3164    -3.4560  H       1  <O>11       0.0626
  44 H13      11.5180    -4.6423    -2.8518  H       1  <O>11       0.0618
  45 H14      11.9944    -2.3182    -2.3245  H       1  <O>11       0.0618
  46 H15      10.2109    -0.6687    -2.4243  H       1  <O>11       0.0646
  47 H16       3.6819    -6.4316    -5.6264  H       1  <O>11       0.0645
@<TRIPOS>BOND
     1     1     2    1
     2     2     3   ar
     3     3     4    1
     4     3     5   ar
     5     5     6   ar
     6     6     7   ar
     7     7     8   ar
     8     2     8   ar
     9     8     9    1
    10     9    10    1
    11    10    11    2
    12    10    12    2
    13    10    13    1
    14    13    14   ar
    15    14    15   ar
    16    15    16   ar
    17    16    17   ar
    18    17    18    1
    19    18    19    2
    20    18    20   am
    21    20    21    1
    22    21    22   am
    23    22    23    2
    24    22    24    1
    25    24    25   ar
    26    25    26   ar
    27    26    27   ar
    28    27    28   ar
    29    28    29   ar
    30    24    29   ar
    31    29    30    1
    32    17    31   ar
    33    13    31   ar
    34     1    32    1
    35     1    33    1
    36     9    34    1
    37    20    35    1
    38    21    36    1
    39     5    37    1
    40     6    38    1
    41     7    39    1
    42    14    40    1
    43    15    41    1
    44    16    42    1
    45    25    43    1
    46    26    44    1
    47    27    45    1
    48    28    46    1
    49    31    47    1
@<TRIPOS>MOLECULE
mol88_1_29
 47 49 0 0 0
SMALL
USER_CHARGES
****
VDW energy = 171.72
@<TRIPOS>ATOM
   1 N1        2.8495    -9.8143    -4.4295  N.pl3   1  <O>11      -0.3543
   2 C1        1.4617   -10.1611    -4.6036  C.ar    1  <O>11       0.0829
   3 C2        0.8050   -10.8783    -3.6012  C.ar    1  <O>11       0.1458
   4 F1        1.4699   -11.2386    -2.4576  F       1  <O>11      -0.2035
   5 C3       -0.5391   -11.2290    -3.7692  C.ar    1  <O>11      -0.0245
   6 C4       -1.2224   -10.8607    -4.9311  C.ar    1  <O>11      -0.0571
   7 C5       -0.5527   -10.1366    -5.9237  C.ar    1  <O>11      -0.0374
   8 C6        0.7874    -9.7806    -5.7650  C.ar    1  <O>11       0.0714
   9 N2        1.4750    -9.0290    -6.7840  N.pl3   1  <O>11      -0.2144
  10 S1        1.2705    -7.3930    -6.8835  S.O2    1  <O>11       0.0724
  11 O1       -0.2936    -7.0566    -7.3352  O.2     1  <O>11      -0.1500
  12 O2        2.3169    -6.7719    -8.0144  O.2     1  <O>11      -0.1500
  13 C7        1.6006    -6.6592    -5.3074  C.ar    1  <O>11       0.1092
  14 C8        0.5567    -6.4548    -4.3872  C.ar    1  <O>11      -0.0350
  15 C9        0.8177    -5.8629    -3.1462  C.ar    1  <O>11      -0.0592
  16 C10       2.1161    -5.4757    -2.8111  C.ar    1  <O>11      -0.0495
  17 C11       3.1561    -5.6861    -3.7236  C.ar    1  <O>11       0.0400
  18 C12       4.5013    -5.2828    -3.3708  C.2     1  <O>11       0.2602
  19 O3        5.2259    -4.7717    -4.2105  O.2     1  <O>11      -0.2687
  20 N3        4.9615    -5.4757    -2.0956  N.am    1  <O>11      -0.2301
  21 N4        6.2383    -5.0930    -1.7605  N.am    1  <O>11      -0.2300
  22 C13       6.7395    -5.3949    -0.5227  C.2     1  <O>11       0.2629
  23 O4        7.8752    -5.0565    -0.2254  O.2     1  <O>11      -0.2686
  24 C14       5.9196    -6.1212     0.4382  C.ar    1  <O>11       0.0733
  25 C15       6.4926    -7.1142     1.2525  C.ar    1  <O>11      -0.0468
  26 C16       5.7049    -7.8193     2.1680  C.ar    1  <O>11      -0.0609
  27 C17       4.3416    -7.5408     2.2804  C.ar    1  <O>11      -0.0590
  28 C18       3.7707    -6.5456     1.4752  C.ar    1  <O>11      -0.0257
  29 C19       4.5491    -5.8342     0.5610  C.ar    1  <O>11       0.1355
  30 F2        3.9931    -4.8571    -0.2224  F       1  <O>11      -0.2047
  31 C20       2.9067    -6.2764    -4.9631  C.ar    1  <O>11      -0.0229
  32 H1        3.3392    -9.2907    -5.1550  H       1  <O>11       0.1425
  33 H2        3.3420   -10.0924    -3.5807  H       1  <O>11       0.1425
  34 H3        2.0891    -9.5062    -7.4433  H       1  <O>11       0.1737
  35 H4        4.3569    -5.9030    -1.3944  H       1  <O>11       0.1731
  36 H5        6.8100    -4.5844    -2.4311  H       1  <O>11       0.1731
  37 H6       -1.0275   -11.7615    -3.0324  H       1  <O>11       0.0647
  38 H7       -2.2132   -11.1207    -5.0562  H       1  <O>11       0.0619
  39 H8       -1.0552    -9.8628    -6.7825  H       1  <O>11       0.0637
  40 H9       -0.4048    -6.7422    -4.6279  H       1  <O>11       0.0637
  41 H10       0.0473    -5.7120    -2.4764  H       1  <O>11       0.0618
  42 H11       2.3079    -5.0374    -1.8967  H       1  <O>11       0.0625
  43 H12       7.5001    -7.3238     1.1741  H       1  <O>11       0.0626
  44 H13       6.1323    -8.5472     2.7617  H       1  <O>11       0.0618
  45 H14       3.7582    -8.0640     2.9517  H       1  <O>11       0.0618
  46 H15       2.7636    -6.3367     1.5592  H       1  <O>11       0.0646
  47 H16       3.6819    -6.4316    -5.6264  H       1  <O>11       0.0645
@<TRIPOS>BOND
     1     1     2    1
     2     2     3   ar
     3     3     4    1
     4     3     5   ar
     5     5     6   ar
     6     6     7   ar
     7     7     8   ar
     8     2     8   ar
     9     8     9    1
    10     9    10    1
    11    10    11    2
    12    10    12    2
    13    10    13    1
    14    13    14   ar
    15    14    15   ar
    16    15    16   ar
    17    16    17   ar
    18    17    18    1
    19    18    19    2
    20    18    20   am
    21    20    21    1
    22    21    22   am
    23    22    23    2
    24    22    24    1
    25    24    25   ar
    26    25    26   ar
    27    26    27   ar
    28    27    28   ar
    29    28    29   ar
    30    24    29   ar
    31    29    30    1
    32    17    31   ar
    33    13    31   ar
    34     1    32    1
    35     1    33    1
    36     9    34    1
    37    20    35    1
    38    21    36    1
    39     5    37    1
    40     6    38    1
    41     7    39    1
    42    14    40    1
    43    15    41    1
    44    16    42    1
    45    25    43    1
    46    26    44    1
    47    27    45    1
    48    28    46    1
    49    31    47    1
@<TRIPOS>MOLECULE
mol88_1_30
 47 49 0 0 0
SMALL
USER_CHARGES
****
VDW energy = 189.32
@<TRIPOS>ATOM
   1 N1        2.8495    -9.8143    -4.4295  N.pl3   1  <O>11      -0.3543
   2 C1        1.4617   -10.1611    -4.6036  C.ar    1  <O>11       0.0829
   3 C2        0.8050   -10.8783    -3.6012  C.ar    1  <O>11       0.1458
   4 F1        1.4699   -11.2386    -2.4576  F       1  <O>11      -0.2035
   5 C3       -0.5391   -11.2290    -3.7692  C.ar    1  <O>11      -0.0245
   6 C4       -1.2224   -10.8607    -4.9311  C.ar    1  <O>11      -0.0571
   7 C5       -0.5527   -10.1366    -5.9237  C.ar    1  <O>11      -0.0374
   8 C6        0.7874    -9.7806    -5.7650  C.ar    1  <O>11       0.0714
   9 N2        1.4750    -9.0290    -6.7840  N.pl3   1  <O>11      -0.2144
  10 S1        1.9945    -7.4931    -6.4688  S.O2    1  <O>11       0.0724
  11 O1        0.6810    -6.4951    -6.2635  O.2     1  <O>11      -0.1500
  12 O2        2.9093    -6.9455    -7.7427  O.2     1  <O>11      -0.1500
  13 C7        2.9735    -7.4912    -4.9946  C.ar    1  <O>11       0.1092
  14 C8        2.3747    -7.2479    -3.7454  C.ar    1  <O>11      -0.0350
  15 C9        3.1528    -7.2345    -2.5823  C.ar    1  <O>11      -0.0592
  16 C10       4.5271    -7.4670    -2.6530  C.ar    1  <O>11      -0.0495
  17 C11       5.1217    -7.7167    -3.8950  C.ar    1  <O>11       0.0400
  18 C12       6.5480    -7.9576    -3.9627  C.2     1  <O>11       0.2602
  19 O3        6.9763    -9.1008    -3.9374  O.2     1  <O>11      -0.2687
  20 N3        7.4167    -6.9030    -4.0538  N.am    1  <O>11      -0.2301
  21 N4        8.7704    -7.1314    -4.1181  N.am    1  <O>11      -0.2300
  22 C13       9.6436    -6.0772    -4.0871  C.2     1  <O>11       0.2629
  23 O4        9.2181    -4.9351    -4.0020  O.2     1  <O>11      -0.2686
  24 C14      11.0789    -6.3176    -4.1581  C.ar    1  <O>11       0.0733
  25 C15      11.9644    -5.5642    -3.3671  C.ar    1  <O>11      -0.0468
  26 C16      13.3432    -5.7867    -3.4418  C.ar    1  <O>11      -0.0609
  27 C17      13.8504    -6.7609    -4.3033  C.ar    1  <O>11      -0.0590
  28 C18      12.9684    -7.5182    -5.0863  C.ar    1  <O>11      -0.0257
  29 C19      11.5908    -7.3060    -5.0165  C.ar    1  <O>11       0.1355
  30 F2       10.7273    -8.0498    -5.7772  F       1  <O>11      -0.2047
  31 C20       4.3548    -7.7334    -5.0606  C.ar    1  <O>11      -0.0229
  32 H1        3.3392    -9.2907    -5.1550  H       1  <O>11       0.1425
  33 H2        3.3420   -10.0924    -3.5807  H       1  <O>11       0.1425
  34 H3        1.6424    -9.4451    -7.6996  H       1  <O>11       0.1737
  35 H4        7.0593    -5.9481    -4.0743  H       1  <O>11       0.1731
  36 H5        9.1235    -8.0829    -4.1904  H       1  <O>11       0.1731
  37 H6       -1.0275   -11.7615    -3.0324  H       1  <O>11       0.0647
  38 H7       -2.2132   -11.1207    -5.0562  H       1  <O>11       0.0619
  39 H8       -1.0552    -9.8628    -6.7825  H       1  <O>11       0.0637
  40 H9        1.3583    -7.0788    -3.6864  H       1  <O>11       0.0637
  41 H10       2.7086    -7.0519    -1.6688  H       1  <O>11       0.0618
  42 H11       5.1009    -7.4550    -1.7952  H       1  <O>11       0.0625
  43 H12      11.5949    -4.8431    -2.7279  H       1  <O>11       0.0626
  44 H13      13.9870    -5.2294    -2.8586  H       1  <O>11       0.0618
  45 H14      14.8679    -6.9224    -4.3632  H       1  <O>11       0.0618
  46 H15      13.3419    -8.2407    -5.7216  H       1  <O>11       0.0646
  47 H16       4.8027    -7.9237    -5.9706  H       1  <O>11       0.0645
@<TRIPOS>BOND
     1     1     2    1
     2     2     3   ar
     3     3     4    1
     4     3     5   ar
     5     5     6   ar
     6     6     7   ar
     7     7     8   ar
     8     2     8   ar
     9     8     9    1
    10     9    10    1
    11    10    11    2
    12    10    12    2
    13    10    13    1
    14    13    14   ar
    15    14    15   ar
    16    15    16   ar
    17    16    17   ar
    18    17    18    1
    19    18    19    2
    20    18    20   am
    21    20    21    1
    22    21    22   am
    23    22    23    2
    24    22    24    1
    25    24    25   ar
    26    25    26   ar
    27    26    27   ar
    28    27    28   ar
    29    28    29   ar
    30    24    29   ar
    31    29    30    1
    32    17    31   ar
    33    13    31   ar
    34     1    32    1
    35     1    33    1
    36     9    34    1
    37    20    35    1
    38    21    36    1
    39     5    37    1
    40     6    38    1
    41     7    39    1
    42    14    40    1
    43    15    41    1
    44    16    42    1
    45    25    43    1
    46    26    44    1
    47    27    45    1
    48    28    46    1
    49    31    47    1
@<TRIPOS>MOLECULE
mol88_2_1
 47 49 0 0 0
SMALL
USER_CHARGES
****
VDW energy = 140.77
@<TRIPOS>ATOM
   1 N1        2.8495    -9.8143    -4.4295  N.pl3   1  <O>11      -0.3543
   2 C1        1.4617   -10.1611    -4.6036  C.ar    1  <O>11       0.0829
   3 C2        0.8050   -10.8783    -3.6012  C.ar    1  <O>11       0.1458
   4 F1        1.4699   -11.2386    -2.4576  F       1  <O>11      -0.2035
   5 C3       -0.5391   -11.2290    -3.7692  C.ar    1  <O>11      -0.0245
   6 C4       -1.2224   -10.8607    -4.9311  C.ar    1  <O>11      -0.0571
   7 C5       -0.5527   -10.1366    -5.9237  C.ar    1  <O>11      -0.0374
   8 C6        0.7874    -9.7806    -5.7650  C.ar    1  <O>11       0.0714
   9 N2        1.4750    -9.0290    -6.7840  N.pl3   1  <O>11      -0.2144
  10 S1        1.2513    -7.3966    -6.8991  S.O2    1  <O>11       0.0724
  11 O1       -0.1883    -7.0876    -7.6708  O.2     1  <O>11      -0.1500
  12 O2        2.4981    -6.7266    -7.7687  O.2     1  <O>11      -0.1500
  13 C7        1.2154    -6.6892    -5.2773  C.ar    1  <O>11       0.1092
  14 C8       -0.0101    -6.4709    -4.6260  C.ar    1  <O>11      -0.0350
  15 C9       -0.0384    -5.9010    -3.3494  C.ar    1  <O>11      -0.0592
  16 C10       1.1518    -5.5474    -2.7102  C.ar    1  <O>11      -0.0495
  17 C11       2.3725    -5.7701    -3.3565  C.ar    1  <O>11       0.0400
  18 C12       3.6052    -5.4031    -2.6907  C.2     1  <O>11       0.2602
  19 O3        4.0334    -4.2630    -2.7820  O.2     1  <O>11      -0.2687
  20 N3        4.2893    -6.3352    -1.9565  N.am    1  <O>11      -0.2301
  21 N4        5.4585    -5.9879    -1.3236  N.am    1  <O>11      -0.2300
  22 C13       6.1627    -6.9291    -0.6238  C.2     1  <O>11       0.2629
  23 O4        5.7525    -8.0788    -0.5606  O.2     1  <O>11      -0.2686
  24 C14       7.4021    -6.5622     0.0496  C.ar    1  <O>11       0.0733
  25 C15       7.3929    -6.2087     1.4091  C.ar    1  <O>11      -0.0468
  26 C16       8.5833    -5.8456     2.0511  C.ar    1  <O>11      -0.0609
  27 C17       9.7887    -5.8377     1.3448  C.ar    1  <O>11      -0.0590
  28 C18       9.7979    -6.1996    -0.0061  C.ar    1  <O>11      -0.0257
  29 C19       8.6179    -6.5625    -0.6565  C.ar    1  <O>11       0.1355
  30 F2        8.6268    -6.9225    -1.9795  F       1  <O>11      -0.2047
  31 C20       2.4117    -6.3417    -4.6293  C.ar    1  <O>11      -0.0229
  32 H1        3.3392    -9.2907    -5.1550  H       1  <O>11       0.1425
  33 H2        3.3420   -10.0924    -3.5807  H       1  <O>11       0.1425
  34 H3        2.1010    -9.5040    -7.4337  H       1  <O>11       0.1737
  35 H4        3.9313    -7.2881    -1.8789  H       1  <O>11       0.1731
  36 H5        5.8008    -5.0285    -1.3742  H       1  <O>11       0.1731
  37 H6       -1.0275   -11.7615    -3.0324  H       1  <O>11       0.0647
  38 H7       -2.2132   -11.1207    -5.0562  H       1  <O>11       0.0619
  39 H8       -1.0552    -9.8628    -6.7825  H       1  <O>11       0.0637
  40 H9       -0.8932    -6.7322    -5.0917  H       1  <O>11       0.0637
  41 H10      -0.9423    -5.7411    -2.8778  H       1  <O>11       0.0618
  42 H11       1.1311    -5.1252    -1.7688  H       1  <O>11       0.0625
  43 H12       6.5059    -6.2167     1.9366  H       1  <O>11       0.0626
  44 H13       8.5701    -5.5829     3.0490  H       1  <O>11       0.0618
  45 H14      10.6658    -5.5669     1.8163  H       1  <O>11       0.0618
  46 H15      10.6881    -6.1982    -0.5282  H       1  <O>11       0.0646
  47 H16       3.3183    -6.5086    -5.0933  H       1  <O>11       0.0645
@<TRIPOS>BOND
     1     1     2    1
     2     2     3   ar
     3     3     4    1
     4     3     5   ar
     5     5     6   ar
     6     6     7   ar
     7     7     8   ar
     8     2     8   ar
     9     8     9    1
    10     9    10    1
    11    10    11    2
    12    10    12    2
    13    10    13    1
    14    13    14   ar
    15    14    15   ar
    16    15    16   ar
    17    16    17   ar
    18    17    18    1
    19    18    19    2
    20    18    20   am
    21    20    21    1
    22    21    22   am
    23    22    23    2
    24    22    24    1
    25    24    25   ar
    26    25    26   ar
    27    26    27   ar
    28    27    28   ar
    29    28    29   ar
    30    24    29   ar
    31    29    30    1
    32    17    31   ar
    33    13    31   ar
    34     1    32    1
    35     1    33    1
    36     9    34    1
    37    20    35    1
    38    21    36    1
    39     5    37    1
    40     6    38    1
    41     7    39    1
    42    14    40    1
    43    15    41    1
    44    16    42    1
    45    25    43    1
    46    26    44    1
    47    27    45    1
    48    28    46    1
    49    31    47    1
@<TRIPOS>MOLECULE
mol88_2_2
 47 49 0 0 0
SMALL
USER_CHARGES
****
VDW energy = 145.74
@<TRIPOS>ATOM
   1 N1        2.8495    -9.8143    -4.4295  N.pl3   1  <O>11      -0.3543
   2 C1        1.4617   -10.1611    -4.6036  C.ar    1  <O>11       0.0829
   3 C2        0.8050   -10.8783    -3.6012  C.ar    1  <O>11       0.1458
   4 F1        1.4699   -11.2386    -2.4576  F       1  <O>11      -0.2035
   5 C3       -0.5391   -11.2290    -3.7692  C.ar    1  <O>11      -0.0245
   6 C4       -1.2224   -10.8607    -4.9311  C.ar    1  <O>11      -0.0571
   7 C5       -0.5527   -10.1366    -5.9237  C.ar    1  <O>11      -0.0374
   8 C6        0.7874    -9.7806    -5.7650  C.ar    1  <O>11       0.0714
   9 N2        1.4750    -9.0290    -6.7840  N.pl3   1  <O>11      -0.2144
  10 S1        1.2513    -7.3966    -6.8991  S.O2    1  <O>11       0.0724
  11 O1        1.7207    -6.6715    -5.4787  O.2     1  <O>11      -0.1500
  12 O2       -0.3547    -7.0759    -7.1775  O.2     1  <O>11      -0.1500
  13 C7        2.2210    -6.7599    -8.2355  C.ar    1  <O>11       0.1092
  14 C8        3.4985    -6.2275    -7.9938  C.ar    1  <O>11      -0.0350
  15 C9        4.2594    -5.7138    -9.0485  C.ar    1  <O>11      -0.0592
  16 C10       3.7568    -5.7291   -10.3513  C.ar    1  <O>11      -0.0495
  17 C11       2.4870    -6.2645   -10.5928  C.ar    1  <O>11       0.0400
  18 C12       1.9689    -6.2798   -11.9452  C.2     1  <O>11       0.2602
  19 O3        1.3829    -5.3033   -12.3864  O.2     1  <O>11      -0.2687
  20 N3        2.1386    -7.3894   -12.7298  N.am    1  <O>11      -0.2301
  21 N4        1.6482    -7.4046   -14.0134  N.am    1  <O>11      -0.2300
  22 C13       1.7823    -8.5275   -14.7831  C.2     1  <O>11       0.2629
  23 O4        2.3384    -9.5173   -14.3303  O.2     1  <O>11      -0.2686
  24 C14       1.2643    -8.5449   -16.1454  C.ar    1  <O>11       0.0733
  25 C15       2.1075    -8.2469   -17.2287  C.ar    1  <O>11      -0.0468
  26 C16       1.6048    -8.2531   -18.5357  C.ar    1  <O>11      -0.0609
  27 C17       0.2626    -8.5612   -18.7711  C.ar    1  <O>11      -0.0590
  28 C18      -0.5732    -8.8676   -17.6924  C.ar    1  <O>11      -0.0257
  29 C19      -0.0837    -8.8637   -16.3858  C.ar    1  <O>11       0.1355
  30 F2       -0.9012    -9.1692   -15.3282  F       1  <O>11      -0.2047
  31 C20       1.7210    -6.7830    -9.5474  C.ar    1  <O>11      -0.0229
  32 H1        3.3392    -9.2907    -5.1550  H       1  <O>11       0.1425
  33 H2        3.3420   -10.0924    -3.5807  H       1  <O>11       0.1425
  34 H3        2.1010    -9.5040    -7.4337  H       1  <O>11       0.1737
  35 H4        2.6293    -8.2055   -12.3619  H       1  <O>11       0.1731
  36 H5        1.1855    -6.5787   -14.3928  H       1  <O>11       0.1731
  37 H6       -1.0275   -11.7615    -3.0324  H       1  <O>11       0.0647
  38 H7       -2.2132   -11.1207    -5.0562  H       1  <O>11       0.0619
  39 H8       -1.0552    -9.8628    -6.7825  H       1  <O>11       0.0637
  40 H9        3.8769    -6.2154    -7.0337  H       1  <O>11       0.0637
  41 H10       5.1960    -5.3219    -8.8634  H       1  <O>11       0.0618
  42 H11       4.3174    -5.3485   -11.1296  H       1  <O>11       0.0625
  43 H12       3.1007    -8.0225   -17.0608  H       1  <O>11       0.0626
  44 H13       2.2278    -8.0294   -19.3274  H       1  <O>11       0.0618
  45 H14      -0.1094    -8.5626   -19.7337  H       1  <O>11       0.0618
  46 H15      -1.5640    -9.0993   -17.8650  H       1  <O>11       0.0646
  47 H16       0.7890    -7.1827    -9.7384  H       1  <O>11       0.0645
@<TRIPOS>BOND
     1     1     2    1
     2     2     3   ar
     3     3     4    1
     4     3     5   ar
     5     5     6   ar
     6     6     7   ar
     7     7     8   ar
     8     2     8   ar
     9     8     9    1
    10     9    10    1
    11    10    11    2
    12    10    12    2
    13    10    13    1
    14    13    14   ar
    15    14    15   ar
    16    15    16   ar
    17    16    17   ar
    18    17    18    1
    19    18    19    2
    20    18    20   am
    21    20    21    1
    22    21    22   am
    23    22    23    2
    24    22    24    1
    25    24    25   ar
    26    25    26   ar
    27    26    27   ar
    28    27    28   ar
    29    28    29   ar
    30    24    29   ar
    31    29    30    1
    32    17    31   ar
    33    13    31   ar
    34     1    32    1
    35     1    33    1
    36     9    34    1
    37    20    35    1
    38    21    36    1
    39     5    37    1
    40     6    38    1
    41     7    39    1
    42    14    40    1
    43    15    41    1
    44    16    42    1
    45    25    43    1
    46    26    44    1
    47    27    45    1
    48    28    46    1
    49    31    47    1
@<TRIPOS>MOLECULE
mol88_2_3
 47 49 0 0 0
SMALL
USER_CHARGES
****
VDW energy = 148.60
@<TRIPOS>ATOM
   1 N1        2.8495    -9.8143    -4.4295  N.pl3   1  <O>11      -0.3543
   2 C1        1.4617   -10.1611    -4.6036  C.ar    1  <O>11       0.0829
   3 C2        0.8050   -10.8783    -3.6012  C.ar    1  <O>11       0.1458
   4 F1        1.4699   -11.2386    -2.4576  F       1  <O>11      -0.2035
   5 C3       -0.5391   -11.2290    -3.7692  C.ar    1  <O>11      -0.0245
   6 C4       -1.2224   -10.8607    -4.9311  C.ar    1  <O>11      -0.0571
   7 C5       -0.5527   -10.1366    -5.9237  C.ar    1  <O>11      -0.0374
   8 C6        0.7874    -9.7806    -5.7650  C.ar    1  <O>11       0.0714
   9 N2        1.4750    -9.0290    -6.7840  N.pl3   1  <O>11      -0.2144
  10 S1        1.2513    -7.3966    -6.8991  S.O2    1  <O>11       0.0724
  11 O1        1.7207    -6.6715    -5.4787  O.2     1  <O>11      -0.1500
  12 O2       -0.3547    -7.0759    -7.1775  O.2     1  <O>11      -0.1500
  13 C7        2.2210    -6.7599    -8.2355  C.ar    1  <O>11       0.1092
  14 C8        3.4985    -6.2275    -7.9938  C.ar    1  <O>11      -0.0350
  15 C9        4.2594    -5.7138    -9.0485  C.ar    1  <O>11      -0.0592
  16 C10       3.7568    -5.7291   -10.3513  C.ar    1  <O>11      -0.0495
  17 C11       2.4870    -6.2645   -10.5928  C.ar    1  <O>11       0.0400
  18 C12       1.9689    -6.2798   -11.9452  C.2     1  <O>11       0.2602
  19 O3        0.7918    -6.0278   -12.1518  O.2     1  <O>11      -0.2687
  20 N3        2.8005    -6.5747   -12.9926  N.am    1  <O>11      -0.2301
  21 N4        2.3102    -6.5885   -14.2762  N.am    1  <O>11      -0.2300
  22 C13       3.1314    -6.9225   -15.3181  C.2     1  <O>11       0.2629
  23 O4        4.3012    -7.2083   -15.1083  O.2     1  <O>11      -0.2686
  24 C14       2.6136    -6.9360   -16.6804  C.ar    1  <O>11       0.0733
  25 C15       2.7660    -5.8115   -17.5084  C.ar    1  <O>11      -0.0468
  26 C16       2.2576    -5.8227   -18.8131  C.ar    1  <O>11      -0.0609
  27 C17       1.6002    -6.9546   -19.3017  C.ar    1  <O>11      -0.0590
  28 C18       1.4581    -8.0770   -18.4796  C.ar    1  <O>11      -0.0257
  29 C19       1.9599    -8.0771   -17.1776  C.ar    1  <O>11       0.1355
  30 F2        1.8256    -9.1791   -16.3728  F       1  <O>11      -0.2047
  31 C20       1.7210    -6.7830    -9.5474  C.ar    1  <O>11      -0.0229
  32 H1        3.3392    -9.2907    -5.1550  H       1  <O>11       0.1425
  33 H2        3.3420   -10.0924    -3.5807  H       1  <O>11       0.1425
  34 H3        2.1010    -9.5040    -7.4337  H       1  <O>11       0.1737
  35 H4        3.7848    -6.7842   -12.8206  H       1  <O>11       0.1731
  36 H5        1.3348    -6.3486   -14.4526  H       1  <O>11       0.1731
  37 H6       -1.0275   -11.7615    -3.0324  H       1  <O>11       0.0647
  38 H7       -2.2132   -11.1207    -5.0562  H       1  <O>11       0.0619
  39 H8       -1.0552    -9.8628    -6.7825  H       1  <O>11       0.0637
  40 H9        3.8769    -6.2154    -7.0337  H       1  <O>11       0.0637
  41 H10       5.1960    -5.3219    -8.8634  H       1  <O>11       0.0618
  42 H11       4.3174    -5.3485   -11.1296  H       1  <O>11       0.0625
  43 H12       3.2543    -4.9743   -17.1539  H       1  <O>11       0.0626
  44 H13       2.3690    -4.9923   -19.4157  H       1  <O>11       0.0618
  45 H14       1.2223    -6.9622   -20.2619  H       1  <O>11       0.0618
  46 H15       0.9763    -8.9154   -18.8404  H       1  <O>11       0.0646
  47 H16       0.7890    -7.1827    -9.7384  H       1  <O>11       0.0645
@<TRIPOS>BOND
     1     1     2    1
     2     2     3   ar
     3     3     4    1
     4     3     5   ar
     5     5     6   ar
     6     6     7   ar
     7     7     8   ar
     8     2     8   ar
     9     8     9    1
    10     9    10    1
    11    10    11    2
    12    10    12    2
    13    10    13    1
    14    13    14   ar
    15    14    15   ar
    16    15    16   ar
    17    16    17   ar
    18    17    18    1
    19    18    19    2
    20    18    20   am
    21    20    21    1
    22    21    22   am
    23    22    23    2
    24    22    24    1
    25    24    25   ar
    26    25    26   ar
    27    26    27   ar
    28    27    28   ar
    29    28    29   ar
    30    24    29   ar
    31    29    30    1
    32    17    31   ar
    33    13    31   ar
    34     1    32    1
    35     1    33    1
    36     9    34    1
    37    20    35    1
    38    21    36    1
    39     5    37    1
    40     6    38    1
    41     7    39    1
    42    14    40    1
    43    15    41    1
    44    16    42    1
    45    25    43    1
    46    26    44    1
    47    27    45    1
    48    28    46    1
    49    31    47    1
@<TRIPOS>MOLECULE
mol88_2_4
 47 49 0 0 0
SMALL
USER_CHARGES
****
VDW energy = 148.89
@<TRIPOS>ATOM
   1 N1        2.8495    -9.8143    -4.4295  N.pl3   1  <O>11      -0.3543
   2 C1        1.4617   -10.1611    -4.6036  C.ar    1  <O>11       0.0829
   3 C2        0.8050   -10.8783    -3.6012  C.ar    1  <O>11       0.1458
   4 F1        1.4699   -11.2386    -2.4576  F       1  <O>11      -0.2035
   5 C3       -0.5391   -11.2290    -3.7692  C.ar    1  <O>11      -0.0245
   6 C4       -1.2224   -10.8607    -4.9311  C.ar    1  <O>11      -0.0571
   7 C5       -0.5527   -10.1366    -5.9237  C.ar    1  <O>11      -0.0374
   8 C6        0.7874    -9.7806    -5.7650  C.ar    1  <O>11       0.0714
   9 N2        1.4750    -9.0290    -6.7840  N.pl3   1  <O>11      -0.2144
  10 S1        1.2513    -7.3966    -6.8991  S.O2    1  <O>11       0.0724
  11 O1       -0.1883    -7.0876    -7.6708  O.2     1  <O>11      -0.1500
  12 O2        2.4981    -6.7266    -7.7687  O.2     1  <O>11      -0.1500
  13 C7        1.2154    -6.6892    -5.2773  C.ar    1  <O>11       0.1092
  14 C8       -0.0101    -6.4709    -4.6260  C.ar    1  <O>11      -0.0350
  15 C9       -0.0384    -5.9010    -3.3494  C.ar    1  <O>11      -0.0592
  16 C10       1.1518    -5.5474    -2.7102  C.ar    1  <O>11      -0.0495
  17 C11       2.3725    -5.7701    -3.3565  C.ar    1  <O>11       0.0400
  18 C12       3.6052    -5.4031    -2.6907  C.2     1  <O>11       0.2602
  19 O3        3.5732    -4.9065    -1.5754  O.2     1  <O>11      -0.2687
  20 N3        4.8072    -5.6156    -3.3119  N.am    1  <O>11      -0.2301
  21 N4        5.9774    -5.2687    -2.6808  N.am    1  <O>11      -0.2300
  22 C13       7.1754    -5.4437    -3.3175  C.2     1  <O>11       0.2629
  23 O4        7.2059    -5.9088    -4.4475  O.2     1  <O>11      -0.2686
  24 C14       8.4179    -5.0778    -2.6490  C.ar    1  <O>11       0.0733
  25 C15       9.1589    -6.0454    -1.9505  C.ar    1  <O>11      -0.0468
  26 C16      10.3464    -5.6891    -1.2994  C.ar    1  <O>11      -0.0609
  27 C17      10.8046    -4.3701    -1.3449  C.ar    1  <O>11      -0.0590
  28 C18      10.0710    -3.4101    -2.0493  C.ar    1  <O>11      -0.0257
  29 C19       8.8860    -3.7532    -2.7012  C.ar    1  <O>11       0.1355
  30 F2        8.1690    -2.8137    -3.3964  F       1  <O>11      -0.2047
  31 C20       2.4117    -6.3417    -4.6293  C.ar    1  <O>11      -0.0229
  32 H1        3.3392    -9.2907    -5.1550  H       1  <O>11       0.1425
  33 H2        3.3420   -10.0924    -3.5807  H       1  <O>11       0.1425
  34 H3        2.1010    -9.5040    -7.4337  H       1  <O>11       0.1737
  35 H4        4.8346    -6.0318    -4.2437  H       1  <O>11       0.1731
  36 H5        5.9533    -4.8821    -1.7373  H       1  <O>11       0.1731
  37 H6       -1.0275   -11.7615    -3.0324  H       1  <O>11       0.0647
  38 H7       -2.2132   -11.1207    -5.0562  H       1  <O>11       0.0619
  39 H8       -1.0552    -9.8628    -6.7825  H       1  <O>11       0.0637
  40 H9       -0.8932    -6.7322    -5.0917  H       1  <O>11       0.0637
  41 H10      -0.9423    -5.7411    -2.8778  H       1  <O>11       0.0618
  42 H11       1.1311    -5.1252    -1.7688  H       1  <O>11       0.0625
  43 H12       8.8271    -7.0220    -1.9169  H       1  <O>11       0.0626
  44 H13      10.8847    -6.4031    -0.7843  H       1  <O>11       0.0618
  45 H14      11.6778    -4.1061    -0.8625  H       1  <O>11       0.0618
  46 H15      10.4102    -2.4361    -2.0873  H       1  <O>11       0.0646
  47 H16       3.3183    -6.5086    -5.0933  H       1  <O>11       0.0645
@<TRIPOS>BOND
     1     1     2    1
     2     2     3   ar
     3     3     4    1
     4     3     5   ar
     5     5     6   ar
     6     6     7   ar
     7     7     8   ar
     8     2     8   ar
     9     8     9    1
    10     9    10    1
    11    10    11    2
    12    10    12    2
    13    10    13    1
    14    13    14   ar
    15    14    15   ar
    16    15    16   ar
    17    16    17   ar
    18    17    18    1
    19    18    19    2
    20    18    20   am
    21    20    21    1
    22    21    22   am
    23    22    23    2
    24    22    24    1
    25    24    25   ar
    26    25    26   ar
    27    26    27   ar
    28    27    28   ar
    29    28    29   ar
    30    24    29   ar
    31    29    30    1
    32    17    31   ar
    33    13    31   ar
    34     1    32    1
    35     1    33    1
    36     9    34    1
    37    20    35    1
    38    21    36    1
    39     5    37    1
    40     6    38    1
    41     7    39    1
    42    14    40    1
    43    15    41    1
    44    16    42    1
    45    25    43    1
    46    26    44    1
    47    27    45    1
    48    28    46    1
    49    31    47    1
@<TRIPOS>MOLECULE
mol88_2_5
 47 49 0 0 0
SMALL
USER_CHARGES
****
VDW energy = 149.57
@<TRIPOS>ATOM
   1 N1        2.8495    -9.8143    -4.4295  N.pl3   1  <O>11      -0.3543
   2 C1        1.4617   -10.1611    -4.6036  C.ar    1  <O>11       0.0829
   3 C2        0.8050   -10.8783    -3.6012  C.ar    1  <O>11       0.1458
   4 F1        1.4699   -11.2386    -2.4576  F       1  <O>11      -0.2035
   5 C3       -0.5391   -11.2290    -3.7692  C.ar    1  <O>11      -0.0245
   6 C4       -1.2224   -10.8607    -4.9311  C.ar    1  <O>11      -0.0571
   7 C5       -0.5527   -10.1366    -5.9237  C.ar    1  <O>11      -0.0374
   8 C6        0.7874    -9.7806    -5.7650  C.ar    1  <O>11       0.0714
   9 N2        1.4750    -9.0290    -6.7840  N.pl3   1  <O>11      -0.2144
  10 S1        2.2677    -9.8181    -7.9993  S.O2    1  <O>11       0.0724
  11 O1        3.7349   -10.3646    -7.4406  O.2     1  <O>11      -0.1500
  12 O2        2.5146    -8.7749    -9.2683  O.2     1  <O>11      -0.1500
  13 C7        1.2949   -11.1921    -8.5449  C.ar    1  <O>11       0.1092
  14 C8        1.5230   -12.4752    -8.0202  C.ar    1  <O>11      -0.0350
  15 C9        0.7619   -13.5625    -8.4604  C.ar    1  <O>11      -0.0592
  16 C10      -0.2335   -13.3809    -9.4229  C.ar    1  <O>11      -0.0495
  17 C11      -0.4644   -12.1021    -9.9412  C.ar    1  <O>11       0.0400
  18 C12      -1.4981   -11.9168   -10.9387  C.2     1  <O>11       0.2602
  19 O3       -2.1596   -12.8708   -11.3181  O.2     1  <O>11      -0.2687
  20 N3       -1.7347   -10.6704   -11.4545  N.am    1  <O>11      -0.2301
  21 N4       -2.7157   -10.4932   -12.4003  N.am    1  <O>11      -0.2300
  22 C13      -2.9249    -9.2559   -12.9448  C.2     1  <O>11       0.2629
  23 O4       -2.2400    -8.3074   -12.5906  O.2     1  <O>11      -0.2686
  24 C14      -3.9661    -9.0657   -13.9468  C.ar    1  <O>11       0.0733
  25 C15      -5.2428    -8.6195   -13.5671  C.ar    1  <O>11      -0.0468
  26 C16      -6.2450    -8.4485   -14.5301  C.ar    1  <O>11      -0.0609
  27 C17      -5.9798    -8.7153   -15.8757  C.ar    1  <O>11      -0.0590
  28 C18      -4.7052    -9.1497   -16.2535  C.ar    1  <O>11      -0.0257
  29 C19      -3.6991    -9.3245   -15.3027  C.ar    1  <O>11       0.1355
  30 F2       -2.4477    -9.7453   -15.6730  F       1  <O>11      -0.2047
  31 C20       0.2873   -11.0096    -9.5058  C.ar    1  <O>11      -0.0229
  32 H1        3.3392    -9.2907    -5.1550  H       1  <O>11       0.1425
  33 H2        3.3420   -10.0924    -3.5807  H       1  <O>11       0.1425
  34 H3        1.4716    -8.0098    -6.7562  H       1  <O>11       0.1737
  35 H4       -1.1828    -9.8723   -11.1369  H       1  <O>11       0.1731
  36 H5       -3.2889   -11.2835   -12.6953  H       1  <O>11       0.1731
  37 H6       -1.0275   -11.7615    -3.0324  H       1  <O>11       0.0647
  38 H7       -2.2132   -11.1207    -5.0562  H       1  <O>11       0.0619
  39 H8       -1.0552    -9.8628    -6.7825  H       1  <O>11       0.0637
  40 H9        2.2553   -12.6159    -7.3068  H       1  <O>11       0.0637
  41 H10       0.9365   -14.5028    -8.0725  H       1  <O>11       0.0618
  42 H11      -0.7942   -14.1835    -9.7492  H       1  <O>11       0.0625
  43 H12      -5.4430    -8.4172   -12.5751  H       1  <O>11       0.0626
  44 H13      -7.1823    -8.1243   -14.2451  H       1  <O>11       0.0618
  45 H14      -6.7188    -8.5927   -16.5854  H       1  <O>11       0.0618
  46 H15      -4.5065    -9.3433   -17.2475  H       1  <O>11       0.0646
  47 H16       0.1030   -10.0694    -9.8893  H       1  <O>11       0.0645
@<TRIPOS>BOND
     1     1     2    1
     2     2     3   ar
     3     3     4    1
     4     3     5   ar
     5     5     6   ar
     6     6     7   ar
     7     7     8   ar
     8     2     8   ar
     9     8     9    1
    10     9    10    1
    11    10    11    2
    12    10    12    2
    13    10    13    1
    14    13    14   ar
    15    14    15   ar
    16    15    16   ar
    17    16    17   ar
    18    17    18    1
    19    18    19    2
    20    18    20   am
    21    20    21    1
    22    21    22   am
    23    22    23    2
    24    22    24    1
    25    24    25   ar
    26    25    26   ar
    27    26    27   ar
    28    27    28   ar
    29    28    29   ar
    30    24    29   ar
    31    29    30    1
    32    17    31   ar
    33    13    31   ar
    34     1    32    1
    35     1    33    1
    36     9    34    1
    37    20    35    1
    38    21    36    1
    39     5    37    1
    40     6    38    1
    41     7    39    1
    42    14    40    1
    43    15    41    1
    44    16    42    1
    45    25    43    1
    46    26    44    1
    47    27    45    1
    48    28    46    1
    49    31    47    1
@<TRIPOS>MOLECULE
mol88_2_6
 47 49 0 0 0
SMALL
USER_CHARGES
****
VDW energy = 152.01
@<TRIPOS>ATOM
   1 N1        2.8495    -9.8143    -4.4295  N.pl3   1  <O>11      -0.3543
   2 C1        1.4617   -10.1611    -4.6036  C.ar    1  <O>11       0.0829
   3 C2        0.8050   -10.8783    -3.6012  C.ar    1  <O>11       0.1458
   4 F1        1.4699   -11.2386    -2.4576  F       1  <O>11      -0.2035
   5 C3       -0.5391   -11.2290    -3.7692  C.ar    1  <O>11      -0.0245
   6 C4       -1.2224   -10.8607    -4.9311  C.ar    1  <O>11      -0.0571
   7 C5       -0.5527   -10.1366    -5.9237  C.ar    1  <O>11      -0.0374
   8 C6        0.7874    -9.7806    -5.7650  C.ar    1  <O>11       0.0714
   9 N2        1.4750    -9.0290    -6.7840  N.pl3   1  <O>11      -0.2144
  10 S1        2.7213    -9.7188    -7.6200  S.O2    1  <O>11       0.0724
  11 O1        4.0994    -9.6817    -6.6910  O.2     1  <O>11      -0.1500
  12 O2        2.9809    -8.8725    -9.0257  O.2     1  <O>11      -0.1500
  13 C7        2.3156   -11.3972    -8.0075  C.ar    1  <O>11       0.1092
  14 C8        2.7444   -12.4415    -7.1712  C.ar    1  <O>11      -0.0350
  15 C9        2.4336   -13.7684    -7.4842  C.ar    1  <O>11      -0.0592
  16 C10       1.6914   -14.0658    -8.6292  C.ar    1  <O>11      -0.0495
  17 C11       1.2596   -13.0255    -9.4589  C.ar    1  <O>11       0.0400
  18 C12       0.4893   -13.3371   -10.6452  C.2     1  <O>11       0.2602
  19 O3        1.0595   -13.6172   -11.6883  O.2     1  <O>11      -0.2687
  20 N3       -0.8792   -13.3196   -10.5958  N.am    1  <O>11      -0.2301
  21 N4       -1.6111   -13.6160   -11.7204  N.am    1  <O>11      -0.2300
  22 C13      -2.9773   -13.5592   -11.6816  C.2     1  <O>11       0.2629
  23 O4       -3.5478   -13.2454   -10.6471  O.2     1  <O>11      -0.2686
  24 C14      -3.7553   -13.8749   -12.8730  C.ar    1  <O>11       0.0733
  25 C15      -4.2628   -15.1705   -13.0660  C.ar    1  <O>11      -0.0468
  26 C16      -5.0003   -15.4744   -14.2169  C.ar    1  <O>11      -0.0609
  27 C17      -5.2407   -14.4894   -15.1782  C.ar    1  <O>11      -0.0590
  28 C18      -4.7434   -13.1974   -14.9798  C.ar    1  <O>11      -0.0257
  29 C19      -4.0066   -12.8832   -13.8373  C.ar    1  <O>11       0.1355
  30 F2       -3.5233   -11.6154   -13.6395  F       1  <O>11      -0.2047
  31 C20       1.5615   -11.6974    -9.1533  C.ar    1  <O>11      -0.0229
  32 H1        3.3392    -9.2907    -5.1550  H       1  <O>11       0.1425
  33 H2        3.3420   -10.0924    -3.5807  H       1  <O>11       0.1425
  34 H3        1.1919    -8.0715    -6.9905  H       1  <O>11       0.1737
  35 H4       -1.3564   -13.0866    -9.7238  H       1  <O>11       0.1731
  36 H5       -1.1361   -13.8796   -12.5836  H       1  <O>11       0.1731
  37 H6       -1.0275   -11.7615    -3.0324  H       1  <O>11       0.0647
  38 H7       -2.2132   -11.1207    -5.0562  H       1  <O>11       0.0619
  39 H8       -1.0552    -9.8628    -6.7825  H       1  <O>11       0.0637
  40 H9        3.2911   -12.2285    -6.3222  H       1  <O>11       0.0637
  41 H10       2.7539   -14.5308    -6.8668  H       1  <O>11       0.0618
  42 H11       1.4634   -15.0452    -8.8614  H       1  <O>11       0.0625
  43 H12      -4.0915   -15.9008   -12.3572  H       1  <O>11       0.0626
  44 H13      -5.3673   -16.4289   -14.3555  H       1  <O>11       0.0618
  45 H14      -5.7812   -14.7136   -16.0282  H       1  <O>11       0.0618
  46 H15      -4.9236   -12.4677   -15.6869  H       1  <O>11       0.0646
  47 H16       1.2311   -10.9375    -9.7684  H       1  <O>11       0.0645
@<TRIPOS>BOND
     1     1     2    1
     2     2     3   ar
     3     3     4    1
     4     3     5   ar
     5     5     6   ar
     6     6     7   ar
     7     7     8   ar
     8     2     8   ar
     9     8     9    1
    10     9    10    1
    11    10    11    2
    12    10    12    2
    13    10    13    1
    14    13    14   ar
    15    14    15   ar
    16    15    16   ar
    17    16    17   ar
    18    17    18    1
    19    18    19    2
    20    18    20   am
    21    20    21    1
    22    21    22   am
    23    22    23    2
    24    22    24    1
    25    24    25   ar
    26    25    26   ar
    27    26    27   ar
    28    27    28   ar
    29    28    29   ar
    30    24    29   ar
    31    29    30    1
    32    17    31   ar
    33    13    31   ar
    34     1    32    1
    35     1    33    1
    36     9    34    1
    37    20    35    1
    38    21    36    1
    39     5    37    1
    40     6    38    1
    41     7    39    1
    42    14    40    1
    43    15    41    1
    44    16    42    1
    45    25    43    1
    46    26    44    1
    47    27    45    1
    48    28    46    1
    49    31    47    1
@<TRIPOS>MOLECULE
mol88_2_7
 47 49 0 0 0
SMALL
USER_CHARGES
****
VDW energy = 152.83
@<TRIPOS>ATOM
   1 N1        2.8495    -9.8143    -4.4295  N.pl3   1  <O>11      -0.3543
   2 C1        1.4617   -10.1611    -4.6036  C.ar    1  <O>11       0.0829
   3 C2        0.8050   -10.8783    -3.6012  C.ar    1  <O>11       0.1458
   4 F1        1.4699   -11.2386    -2.4576  F       1  <O>11      -0.2035
   5 C3       -0.5391   -11.2290    -3.7692  C.ar    1  <O>11      -0.0245
   6 C4       -1.2224   -10.8607    -4.9311  C.ar    1  <O>11      -0.0571
   7 C5       -0.5527   -10.1366    -5.9237  C.ar    1  <O>11      -0.0374
   8 C6        0.7874    -9.7806    -5.7650  C.ar    1  <O>11       0.0714
   9 N2        1.4750    -9.0290    -6.7840  N.pl3   1  <O>11      -0.2144
  10 S1        1.2513    -7.3966    -6.8991  S.O2    1  <O>11       0.0724
  11 O1       -0.1883    -7.0876    -7.6708  O.2     1  <O>11      -0.1500
  12 O2        2.4981    -6.7266    -7.7687  O.2     1  <O>11      -0.1500
  13 C7        1.2154    -6.6892    -5.2773  C.ar    1  <O>11       0.1092
  14 C8       -0.0101    -6.4709    -4.6260  C.ar    1  <O>11      -0.0350
  15 C9       -0.0384    -5.9010    -3.3494  C.ar    1  <O>11      -0.0592
  16 C10       1.1518    -5.5474    -2.7102  C.ar    1  <O>11      -0.0495
  17 C11       2.3725    -5.7701    -3.3565  C.ar    1  <O>11       0.0400
  18 C12       3.6052    -5.4031    -2.6907  C.2     1  <O>11       0.2602
  19 O3        4.5852    -6.1269    -2.7763  O.2     1  <O>11      -0.2687
  20 N3        3.6718    -4.2425    -1.9667  N.am    1  <O>11      -0.2301
  21 N4        4.8411    -3.8928    -1.3353  N.am    1  <O>11      -0.2300
  22 C13       4.8957    -2.7541    -0.5792  C.2     1  <O>11       0.2629
  23 O4        3.9051    -2.0471    -0.4650  O.2     1  <O>11      -0.2686
  24 C14       6.1355    -2.3807     0.0899  C.ar    1  <O>11       0.0733
  25 C15       7.2809    -3.1837    -0.0394  C.ar    1  <O>11      -0.0468
  26 C16       8.4678    -2.8290     0.6136  C.ar    1  <O>11      -0.0609
  27 C17       8.5219    -1.6712     1.3936  C.ar    1  <O>11      -0.0590
  28 C18       7.3837    -0.8674     1.5132  C.ar    1  <O>11      -0.0257
  29 C19       6.1953    -1.2112     0.8678  C.ar    1  <O>11       0.1355
  30 F2        5.0805    -0.4209     0.9802  F       1  <O>11      -0.2047
  31 C20       2.4117    -6.3417    -4.6293  C.ar    1  <O>11      -0.0229
  32 H1        3.3392    -9.2907    -5.1550  H       1  <O>11       0.1425
  33 H2        3.3420   -10.0924    -3.5807  H       1  <O>11       0.1425
  34 H3        2.1010    -9.5040    -7.4337  H       1  <O>11       0.1737
  35 H4        2.8533    -3.6365    -1.8957  H       1  <O>11       0.1731
  36 H5        5.6687    -4.4811    -1.4313  H       1  <O>11       0.1731
  37 H6       -1.0275   -11.7615    -3.0324  H       1  <O>11       0.0647
  38 H7       -2.2132   -11.1207    -5.0562  H       1  <O>11       0.0619
  39 H8       -1.0552    -9.8628    -6.7825  H       1  <O>11       0.0637
  40 H9       -0.8932    -6.7322    -5.0917  H       1  <O>11       0.0637
  41 H10      -0.9423    -5.7411    -2.8778  H       1  <O>11       0.0618
  42 H11       1.1311    -5.1252    -1.7688  H       1  <O>11       0.0625
  43 H12       7.2475    -4.0379    -0.6176  H       1  <O>11       0.0626
  44 H13       9.3050    -3.4247     0.5184  H       1  <O>11       0.0618
  45 H14       9.3953    -1.4110     1.8779  H       1  <O>11       0.0618
  46 H15       7.4232    -0.0096     2.0858  H       1  <O>11       0.0646
  47 H16       3.3183    -6.5086    -5.0933  H       1  <O>11       0.0645
@<TRIPOS>BOND
     1     1     2    1
     2     2     3   ar
     3     3     4    1
     4     3     5   ar
     5     5     6   ar
     6     6     7   ar
     7     7     8   ar
     8     2     8   ar
     9     8     9    1
    10     9    10    1
    11    10    11    2
    12    10    12    2
    13    10    13    1
    14    13    14   ar
    15    14    15   ar
    16    15    16   ar
    17    16    17   ar
    18    17    18    1
    19    18    19    2
    20    18    20   am
    21    20    21    1
    22    21    22   am
    23    22    23    2
    24    22    24    1
    25    24    25   ar
    26    25    26   ar
    27    26    27   ar
    28    27    28   ar
    29    28    29   ar
    30    24    29   ar
    31    29    30    1
    32    17    31   ar
    33    13    31   ar
    34     1    32    1
    35     1    33    1
    36     9    34    1
    37    20    35    1
    38    21    36    1
    39     5    37    1
    40     6    38    1
    41     7    39    1
    42    14    40    1
    43    15    41    1
    44    16    42    1
    45    25    43    1
    46    26    44    1
    47    27    45    1
    48    28    46    1
    49    31    47    1
@<TRIPOS>MOLECULE
mol88_2_8
 47 49 0 0 0
SMALL
USER_CHARGES
****
VDW energy = 153.93
@<TRIPOS>ATOM
   1 N1        2.8495    -9.8143    -4.4295  N.pl3   1  <O>11      -0.3543
   2 C1        1.4617   -10.1611    -4.6036  C.ar    1  <O>11       0.0829
   3 C2        0.8050   -10.8783    -3.6012  C.ar    1  <O>11       0.1458
   4 F1        1.4699   -11.2386    -2.4576  F       1  <O>11      -0.2035
   5 C3       -0.5391   -11.2290    -3.7692  C.ar    1  <O>11      -0.0245
   6 C4       -1.2224   -10.8607    -4.9311  C.ar    1  <O>11      -0.0571
   7 C5       -0.5527   -10.1366    -5.9237  C.ar    1  <O>11      -0.0374
   8 C6        0.7874    -9.7806    -5.7650  C.ar    1  <O>11       0.0714
   9 N2        1.4750    -9.0290    -6.7840  N.pl3   1  <O>11      -0.2144
  10 S1        1.2513    -7.3966    -6.8991  S.O2    1  <O>11       0.0724
  11 O1       -0.3554    -7.0760    -7.1804  O.2     1  <O>11      -0.1500
  12 O2        2.1608    -6.8001    -8.1547  O.2     1  <O>11      -0.1500
  13 C7        1.7518    -6.6235    -5.3879  C.ar    1  <O>11       0.1092
  14 C8        0.8057    -6.3423    -4.3881  C.ar    1  <O>11      -0.0350
  15 C9        1.1999    -5.7207    -3.1992  C.ar    1  <O>11      -0.0592
  16 C10       2.5381    -5.3775    -2.9948  C.ar    1  <O>11      -0.0495
  17 C11       3.4811    -5.6627    -3.9881  C.ar    1  <O>11       0.0400
  18 C12       4.8683    -5.3063    -3.7728  C.2     1  <O>11       0.2602
  19 O3        5.2616    -4.1842    -4.0516  O.2     1  <O>11      -0.2687
  20 N3        5.7383    -6.2281    -3.2540  N.am    1  <O>11      -0.2301
  21 N4        7.0544    -5.8908    -3.0485  N.am    1  <O>11      -0.2300
  22 C13       7.3728    -4.8614    -2.2057  C.2     1  <O>11       0.2629
  23 O4        6.4874    -4.2410    -1.6354  O.2     1  <O>11      -0.2686
  24 C14       8.7682    -4.5012    -1.9877  C.ar    1  <O>11       0.0733
  25 C15       9.3612    -3.4738    -2.7401  C.ar    1  <O>11      -0.0468
  26 C16      10.7052    -3.1371    -2.5369  C.ar    1  <O>11      -0.0609
  27 C17      11.4635    -3.8173    -1.5807  C.ar    1  <O>11      -0.0590
  28 C18      10.8689    -4.8331    -0.8254  C.ar    1  <O>11      -0.0257
  29 C19       9.5308    -5.1778    -1.0197  C.ar    1  <O>11       0.1355
  30 F2        8.9456    -6.1699    -0.2759  F       1  <O>11      -0.2047
  31 C20       3.0985    -6.2862    -5.1769  C.ar    1  <O>11      -0.0229
  32 H1        3.3392    -9.2907    -5.1550  H       1  <O>11       0.1425
  33 H2        3.3420   -10.0924    -3.5807  H       1  <O>11       0.1425
  34 H3        2.1010    -9.5040    -7.4337  H       1  <O>11       0.1737
  35 H4        5.4099    -7.1659    -3.0197  H       1  <O>11       0.1731
  36 H5        7.7940    -6.4067    -3.5252  H       1  <O>11       0.1731
  37 H6       -1.0275   -11.7615    -3.0324  H       1  <O>11       0.0647
  38 H7       -2.2132   -11.1207    -5.0562  H       1  <O>11       0.0619
  39 H8       -1.0552    -9.8628    -6.7825  H       1  <O>11       0.0637
  40 H9       -0.1844    -6.5956    -4.5317  H       1  <O>11       0.0637
  41 H10       0.4992    -5.5148    -2.4700  H       1  <O>11       0.0618
  42 H11       2.8289    -4.9172    -2.1182  H       1  <O>11       0.0625
  43 H12       8.8046    -2.9654    -3.4449  H       1  <O>11       0.0626
  44 H13      11.1369    -2.3841    -3.0953  H       1  <O>11       0.0618
  45 H14      12.4549    -3.5720    -1.4329  H       1  <O>11       0.0618
  46 H15      11.4265    -5.3338    -0.1159  H       1  <O>11       0.0646
  47 H16       3.8040    -6.4989    -5.8994  H       1  <O>11       0.0645
@<TRIPOS>BOND
     1     1     2    1
     2     2     3   ar
     3     3     4    1
     4     3     5   ar
     5     5     6   ar
     6     6     7   ar
     7     7     8   ar
     8     2     8   ar
     9     8     9    1
    10     9    10    1
    11    10    11    2
    12    10    12    2
    13    10    13    1
    14    13    14   ar
    15    14    15   ar
    16    15    16   ar
    17    16    17   ar
    18    17    18    1
    19    18    19    2
    20    18    20   am
    21    20    21    1
    22    21    22   am
    23    22    23    2
    24    22    24    1
    25    24    25   ar
    26    25    26   ar
    27    26    27   ar
    28    27    28   ar
    29    28    29   ar
    30    24    29   ar
    31    29    30    1
    32    17    31   ar
    33    13    31   ar
    34     1    32    1
    35     1    33    1
    36     9    34    1
    37    20    35    1
    38    21    36    1
    39     5    37    1
    40     6    38    1
    41     7    39    1
    42    14    40    1
    43    15    41    1
    44    16    42    1
    45    25    43    1
    46    26    44    1
    47    27    45    1
    48    28    46    1
    49    31    47    1
@<TRIPOS>MOLECULE
mol88_2_9
 47 49 0 0 0
SMALL
USER_CHARGES
****
VDW energy = 154.37
@<TRIPOS>ATOM
   1 N1        2.8495    -9.8143    -4.4295  N.pl3   1  <O>11      -0.3543
   2 C1        1.4617   -10.1611    -4.6036  C.ar    1  <O>11       0.0829
   3 C2        0.8050   -10.8783    -3.6012  C.ar    1  <O>11       0.1458
   4 F1        1.4699   -11.2386    -2.4576  F       1  <O>11      -0.2035
   5 C3       -0.5391   -11.2290    -3.7692  C.ar    1  <O>11      -0.0245
   6 C4       -1.2224   -10.8607    -4.9311  C.ar    1  <O>11      -0.0571
   7 C5       -0.5527   -10.1366    -5.9237  C.ar    1  <O>11      -0.0374
   8 C6        0.7874    -9.7806    -5.7650  C.ar    1  <O>11       0.0714
   9 N2        1.4750    -9.0290    -6.7840  N.pl3   1  <O>11      -0.2144
  10 S1        2.7213    -9.7188    -7.6200  S.O2    1  <O>11       0.0724
  11 O1        4.0994    -9.6817    -6.6910  O.2     1  <O>11      -0.1500
  12 O2        2.9809    -8.8725    -9.0257  O.2     1  <O>11      -0.1500
  13 C7        2.3156   -11.3972    -8.0075  C.ar    1  <O>11       0.1092
  14 C8        2.7444   -12.4415    -7.1712  C.ar    1  <O>11      -0.0350
  15 C9        2.4336   -13.7684    -7.4842  C.ar    1  <O>11      -0.0592
  16 C10       1.6914   -14.0658    -8.6292  C.ar    1  <O>11      -0.0495
  17 C11       1.2596   -13.0255    -9.4589  C.ar    1  <O>11       0.0400
  18 C12       0.4893   -13.3371   -10.6452  C.2     1  <O>11       0.2602
  19 O3        1.0595   -13.6172   -11.6883  O.2     1  <O>11      -0.2687
  20 N3       -0.8792   -13.3196   -10.5958  N.am    1  <O>11      -0.2301
  21 N4       -1.6111   -13.6160   -11.7204  N.am    1  <O>11      -0.2300
  22 C13      -2.9780   -13.5985   -11.6707  C.2     1  <O>11       0.2629
  23 O4       -3.5492   -13.3197   -10.6266  O.2     1  <O>11      -0.2686
  24 C14      -3.7560   -13.9142   -12.8622  C.ar    1  <O>11       0.0733
  25 C15      -4.9275   -14.6827   -12.7612  C.ar    1  <O>11      -0.0468
  26 C16      -5.6671   -14.9944   -13.9087  C.ar    1  <O>11      -0.0609
  27 C17      -5.2474   -14.5384   -15.1609  C.ar    1  <O>11      -0.0590
  28 C18      -4.0863   -13.7650   -15.2585  C.ar    1  <O>11      -0.0257
  29 C19      -3.3409   -13.4488   -14.1222  C.ar    1  <O>11       0.1355
  30 F2       -2.2053   -12.6861   -14.2164  F       1  <O>11      -0.2047
  31 C20       1.5615   -11.6974    -9.1533  C.ar    1  <O>11      -0.0229
  32 H1        3.3392    -9.2907    -5.1550  H       1  <O>11       0.1425
  33 H2        3.3420   -10.0924    -3.5807  H       1  <O>11       0.1425
  34 H3        1.1919    -8.0715    -6.9905  H       1  <O>11       0.1737
  35 H4       -1.3564   -13.0866    -9.7238  H       1  <O>11       0.1731
  36 H5       -1.1356   -13.8504   -12.5917  H       1  <O>11       0.1731
  37 H6       -1.0275   -11.7615    -3.0324  H       1  <O>11       0.0647
  38 H7       -2.2132   -11.1207    -5.0562  H       1  <O>11       0.0619
  39 H8       -1.0552    -9.8628    -6.7825  H       1  <O>11       0.0637
  40 H9        3.2911   -12.2285    -6.3222  H       1  <O>11       0.0637
  41 H10       2.7539   -14.5308    -6.8668  H       1  <O>11       0.0618
  42 H11       1.4634   -15.0452    -8.8614  H       1  <O>11       0.0625
  43 H12      -5.2443   -15.0187   -11.8382  H       1  <O>11       0.0626
  44 H13      -6.5249   -15.5627   -13.8292  H       1  <O>11       0.0618
  45 H14      -5.7901   -14.7707   -16.0073  H       1  <O>11       0.0618
  46 H15      -3.7771   -13.4240   -16.1822  H       1  <O>11       0.0646
  47 H16       1.2311   -10.9375    -9.7684  H       1  <O>11       0.0645
@<TRIPOS>BOND
     1     1     2    1
     2     2     3   ar
     3     3     4    1
     4     3     5   ar
     5     5     6   ar
     6     6     7   ar
     7     7     8   ar
     8     2     8   ar
     9     8     9    1
    10     9    10    1
    11    10    11    2
    12    10    12    2
    13    10    13    1
    14    13    14   ar
    15    14    15   ar
    16    15    16   ar
    17    16    17   ar
    18    17    18    1
    19    18    19    2
    20    18    20   am
    21    20    21    1
    22    21    22   am
    23    22    23    2
    24    22    24    1
    25    24    25   ar
    26    25    26   ar
    27    26    27   ar
    28    27    28   ar
    29    28    29   ar
    30    24    29   ar
    31    29    30    1
    32    17    31   ar
    33    13    31   ar
    34     1    32    1
    35     1    33    1
    36     9    34    1
    37    20    35    1
    38    21    36    1
    39     5    37    1
    40     6    38    1
    41     7    39    1
    42    14    40    1
    43    15    41    1
    44    16    42    1
    45    25    43    1
    46    26    44    1
    47    27    45    1
    48    28    46    1
    49    31    47    1
@<TRIPOS>MOLECULE
mol88_2_10
 47 49 0 0 0
SMALL
USER_CHARGES
****
VDW energy = 155.18
@<TRIPOS>ATOM
   1 N1        2.8495    -9.8143    -4.4295  N.pl3   1  <O>11      -0.3543
   2 C1        1.4617   -10.1611    -4.6036  C.ar    1  <O>11       0.0829
   3 C2        0.8050   -10.8783    -3.6012  C.ar    1  <O>11       0.1458
   4 F1        1.4699   -11.2386    -2.4576  F       1  <O>11      -0.2035
   5 C3       -0.5391   -11.2290    -3.7692  C.ar    1  <O>11      -0.0245
   6 C4       -1.2224   -10.8607    -4.9311  C.ar    1  <O>11      -0.0571
   7 C5       -0.5527   -10.1366    -5.9237  C.ar    1  <O>11      -0.0374
   8 C6        0.7874    -9.7806    -5.7650  C.ar    1  <O>11       0.0714
   9 N2        1.4750    -9.0290    -6.7840  N.pl3   1  <O>11      -0.2144
  10 S1        1.2513    -7.3966    -6.8991  S.O2    1  <O>11       0.0724
  11 O1       -0.3554    -7.0760    -7.1804  O.2     1  <O>11      -0.1500
  12 O2        2.1608    -6.8001    -8.1547  O.2     1  <O>11      -0.1500
  13 C7        1.7518    -6.6235    -5.3879  C.ar    1  <O>11       0.1092
  14 C8        0.8057    -6.3423    -4.3881  C.ar    1  <O>11      -0.0350
  15 C9        1.1999    -5.7207    -3.1992  C.ar    1  <O>11      -0.0592
  16 C10       2.5381    -5.3775    -2.9948  C.ar    1  <O>11      -0.0495
  17 C11       3.4811    -5.6627    -3.9881  C.ar    1  <O>11       0.0400
  18 C12       4.8683    -5.3063    -3.7728  C.2     1  <O>11       0.2602
  19 O3        5.2616    -4.1842    -4.0516  O.2     1  <O>11      -0.2687
  20 N3        5.7383    -6.2281    -3.2540  N.am    1  <O>11      -0.2301
  21 N4        7.0544    -5.8908    -3.0485  N.am    1  <O>11      -0.2300
  22 C13       7.8316    -5.4959    -4.1027  C.2     1  <O>11       0.2629
  23 O4        7.3564    -5.4432    -5.2277  O.2     1  <O>11      -0.2686
  24 C14       9.2283    -5.1395    -3.8869  C.ar    1  <O>11       0.0733
  25 C15      10.2415    -6.0935    -4.0781  C.ar    1  <O>11      -0.0468
  26 C16      11.5818    -5.7519    -3.8591  C.ar    1  <O>11      -0.0609
  27 C17      11.9203    -4.4583    -3.4542  C.ar    1  <O>11      -0.0590
  28 C18      10.9114    -3.5067    -3.2741  C.ar    1  <O>11      -0.0257
  29 C19       9.5724    -3.8358    -3.4885  C.ar    1  <O>11       0.1355
  30 F2        8.5831    -2.9021    -3.3172  F       1  <O>11      -0.2047
  31 C20       3.0985    -6.2862    -5.1769  C.ar    1  <O>11      -0.0229
  32 H1        3.3392    -9.2907    -5.1550  H       1  <O>11       0.1425
  33 H2        3.3420   -10.0924    -3.5807  H       1  <O>11       0.1425
  34 H3        2.1010    -9.5040    -7.4337  H       1  <O>11       0.1737
  35 H4        5.4099    -7.1659    -3.0197  H       1  <O>11       0.1731
  36 H5        7.4524    -5.9361    -2.1106  H       1  <O>11       0.1731
  37 H6       -1.0275   -11.7615    -3.0324  H       1  <O>11       0.0647
  38 H7       -2.2132   -11.1207    -5.0562  H       1  <O>11       0.0619
  39 H8       -1.0552    -9.8628    -6.7825  H       1  <O>11       0.0637
  40 H9       -0.1844    -6.5956    -4.5317  H       1  <O>11       0.0637
  41 H10       0.4992    -5.5148    -2.4700  H       1  <O>11       0.0618
  42 H11       2.8289    -4.9172    -2.1182  H       1  <O>11       0.0625
  43 H12       9.9973    -7.0494    -4.3810  H       1  <O>11       0.0626
  44 H13      12.3217    -6.4579    -3.9972  H       1  <O>11       0.0618
  45 H14      12.9075    -4.2068    -3.2893  H       1  <O>11       0.0618
  46 H15      11.1601    -2.5496    -2.9789  H       1  <O>11       0.0646
  47 H16       3.8040    -6.4989    -5.8994  H       1  <O>11       0.0645
@<TRIPOS>BOND
     1     1     2    1
     2     2     3   ar
     3     3     4    1
     4     3     5   ar
     5     5     6   ar
     6     6     7   ar
     7     7     8   ar
     8     2     8   ar
     9     8     9    1
    10     9    10    1
    11    10    11    2
    12    10    12    2
    13    10    13    1
    14    13    14   ar
    15    14    15   ar
    16    15    16   ar
    17    16    17   ar
    18    17    18    1
    19    18    19    2
    20    18    20   am
    21    20    21    1
    22    21    22   am
    23    22    23    2
    24    22    24    1
    25    24    25   ar
    26    25    26   ar
    27    26    27   ar
    28    27    28   ar
    29    28    29   ar
    30    24    29   ar
    31    29    30    1
    32    17    31   ar
    33    13    31   ar
    34     1    32    1
    35     1    33    1
    36     9    34    1
    37    20    35    1
    38    21    36    1
    39     5    37    1
    40     6    38    1
    41     7    39    1
    42    14    40    1
    43    15    41    1
    44    16    42    1
    45    25    43    1
    46    26    44    1
    47    27    45    1
    48    28    46    1
    49    31    47    1
@<TRIPOS>MOLECULE
mol88_2_11
 47 49 0 0 0
SMALL
USER_CHARGES
****
VDW energy = 158.03
@<TRIPOS>ATOM
   1 N1        2.8495    -9.8143    -4.4295  N.pl3   1  <O>11      -0.3543
   2 C1        1.4617   -10.1611    -4.6036  C.ar    1  <O>11       0.0829
   3 C2        0.8050   -10.8783    -3.6012  C.ar    1  <O>11       0.1458
   4 F1        1.4699   -11.2386    -2.4576  F       1  <O>11      -0.2035
   5 C3       -0.5391   -11.2290    -3.7692  C.ar    1  <O>11      -0.0245
   6 C4       -1.2224   -10.8607    -4.9311  C.ar    1  <O>11      -0.0571
   7 C5       -0.5527   -10.1366    -5.9237  C.ar    1  <O>11      -0.0374
   8 C6        0.7874    -9.7806    -5.7650  C.ar    1  <O>11       0.0714
   9 N2        1.4750    -9.0290    -6.7840  N.pl3   1  <O>11      -0.2144
  10 S1        1.2513    -7.3966    -6.8991  S.O2    1  <O>11       0.0724
  11 O1        1.7207    -6.6715    -5.4787  O.2     1  <O>11      -0.1500
  12 O2       -0.3547    -7.0759    -7.1775  O.2     1  <O>11      -0.1500
  13 C7        2.2210    -6.7599    -8.2355  C.ar    1  <O>11       0.1092
  14 C8        3.4985    -6.2275    -7.9938  C.ar    1  <O>11      -0.0350
  15 C9        4.2594    -5.7138    -9.0485  C.ar    1  <O>11      -0.0592
  16 C10       3.7568    -5.7291   -10.3513  C.ar    1  <O>11      -0.0495
  17 C11       2.4870    -6.2645   -10.5928  C.ar    1  <O>11       0.0400
  18 C12       1.9689    -6.2798   -11.9452  C.2     1  <O>11       0.2602
  19 O3        1.3829    -5.3033   -12.3864  O.2     1  <O>11      -0.2687
  20 N3        2.1386    -7.3894   -12.7298  N.am    1  <O>11      -0.2301
  21 N4        1.6482    -7.4046   -14.0134  N.am    1  <O>11      -0.2300
  22 C13       2.0866    -6.4824   -14.9237  C.2     1  <O>11       0.2629
  23 O4        2.9140    -5.6444   -14.5962  O.2     1  <O>11      -0.2686
  24 C14       1.5663    -6.4960   -16.2851  C.ar    1  <O>11       0.0733
  25 C15       0.4872    -5.6697   -16.6402  C.ar    1  <O>11      -0.0468
  26 C16      -0.0184    -5.6928   -17.9459  C.ar    1  <O>11      -0.0609
  27 C17       0.5508    -6.5339   -18.9053  C.ar    1  <O>11      -0.0590
  28 C18       1.6316    -7.3486   -18.5529  C.ar    1  <O>11      -0.0257
  29 C19       2.1433    -7.3346   -17.2548  C.ar    1  <O>11       0.1355
  30 F2        3.2062    -8.1290   -16.9098  F       1  <O>11      -0.2047
  31 C20       1.7210    -6.7830    -9.5474  C.ar    1  <O>11      -0.0229
  32 H1        3.3392    -9.2907    -5.1550  H       1  <O>11       0.1425
  33 H2        3.3420   -10.0924    -3.5807  H       1  <O>11       0.1425
  34 H3        2.1010    -9.5040    -7.4337  H       1  <O>11       0.1737
  35 H4        2.6293    -8.2055   -12.3619  H       1  <O>11       0.1731
  36 H5        0.9565    -8.1023   -14.2872  H       1  <O>11       0.1731
  37 H6       -1.0275   -11.7615    -3.0324  H       1  <O>11       0.0647
  38 H7       -2.2132   -11.1207    -5.0562  H       1  <O>11       0.0619
  39 H8       -1.0552    -9.8628    -6.7825  H       1  <O>11       0.0637
  40 H9        3.8769    -6.2154    -7.0337  H       1  <O>11       0.0637
  41 H10       5.1960    -5.3219    -8.8634  H       1  <O>11       0.0618
  42 H11       4.3174    -5.3485   -11.1296  H       1  <O>11       0.0625
  43 H12       0.0655    -5.0435   -15.9366  H       1  <O>11       0.0626
  44 H13      -0.8139    -5.0866   -18.2003  H       1  <O>11       0.0618
  45 H14       0.1766    -6.5540   -19.8668  H       1  <O>11       0.0618
  46 H15       2.0558    -7.9675   -19.2614  H       1  <O>11       0.0646
  47 H16       0.7890    -7.1827    -9.7384  H       1  <O>11       0.0645
@<TRIPOS>BOND
     1     1     2    1
     2     2     3   ar
     3     3     4    1
     4     3     5   ar
     5     5     6   ar
     6     6     7   ar
     7     7     8   ar
     8     2     8   ar
     9     8     9    1
    10     9    10    1
    11    10    11    2
    12    10    12    2
    13    10    13    1
    14    13    14   ar
    15    14    15   ar
    16    15    16   ar
    17    16    17   ar
    18    17    18    1
    19    18    19    2
    20    18    20   am
    21    20    21    1
    22    21    22   am
    23    22    23    2
    24    22    24    1
    25    24    25   ar
    26    25    26   ar
    27    26    27   ar
    28    27    28   ar
    29    28    29   ar
    30    24    29   ar
    31    29    30    1
    32    17    31   ar
    33    13    31   ar
    34     1    32    1
    35     1    33    1
    36     9    34    1
    37    20    35    1
    38    21    36    1
    39     5    37    1
    40     6    38    1
    41     7    39    1
    42    14    40    1
    43    15    41    1
    44    16    42    1
    45    25    43    1
    46    26    44    1
    47    27    45    1
    48    28    46    1
    49    31    47    1
@<TRIPOS>MOLECULE
mol88_2_12
 47 49 0 0 0
SMALL
USER_CHARGES
****
VDW energy = 158.27
@<TRIPOS>ATOM
   1 N1        2.8495    -9.8143    -4.4295  N.pl3   1  <O>11      -0.3543
   2 C1        1.4617   -10.1611    -4.6036  C.ar    1  <O>11       0.0829
   3 C2        0.8050   -10.8783    -3.6012  C.ar    1  <O>11       0.1458
   4 F1        1.4699   -11.2386    -2.4576  F       1  <O>11      -0.2035
   5 C3       -0.5391   -11.2290    -3.7692  C.ar    1  <O>11      -0.0245
   6 C4       -1.2224   -10.8607    -4.9311  C.ar    1  <O>11      -0.0571
   7 C5       -0.5527   -10.1366    -5.9237  C.ar    1  <O>11      -0.0374
   8 C6        0.7874    -9.7806    -5.7650  C.ar    1  <O>11       0.0714
   9 N2        1.4750    -9.0290    -6.7840  N.pl3   1  <O>11      -0.2144
  10 S1        1.2513    -7.3966    -6.8991  S.O2    1  <O>11       0.0724
  11 O1       -0.1883    -7.0876    -7.6708  O.2     1  <O>11      -0.1500
  12 O2        2.4981    -6.7266    -7.7687  O.2     1  <O>11      -0.1500
  13 C7        1.2154    -6.6892    -5.2773  C.ar    1  <O>11       0.1092
  14 C8       -0.0101    -6.4709    -4.6260  C.ar    1  <O>11      -0.0350
  15 C9       -0.0384    -5.9010    -3.3494  C.ar    1  <O>11      -0.0592
  16 C10       1.1518    -5.5474    -2.7102  C.ar    1  <O>11      -0.0495
  17 C11       2.3725    -5.7701    -3.3565  C.ar    1  <O>11       0.0400
  18 C12       3.6052    -5.4031    -2.6907  C.2     1  <O>11       0.2602
  19 O3        3.5732    -4.9065    -1.5754  O.2     1  <O>11      -0.2687
  20 N3        4.8072    -5.6156    -3.3119  N.am    1  <O>11      -0.2301
  21 N4        5.9774    -5.2687    -2.6808  N.am    1  <O>11      -0.2300
  22 C13       7.1754    -5.4437    -3.3175  C.2     1  <O>11       0.2629
  23 O4        7.2059    -5.9088    -4.4475  O.2     1  <O>11      -0.2686
  24 C14       8.4179    -5.0778    -2.6490  C.ar    1  <O>11       0.0733
  25 C15       8.3939    -4.5475    -1.3485  C.ar    1  <O>11      -0.0468
  26 C16       9.5881    -4.1860    -0.7126  C.ar    1  <O>11      -0.0609
  27 C17      10.8115    -4.3557    -1.3656  C.ar    1  <O>11      -0.0590
  28 C18      10.8345    -4.8933    -2.6565  C.ar    1  <O>11      -0.0257
  29 C19       9.6510    -5.2563    -3.3004  C.ar    1  <O>11       0.1355
  30 F2        9.6730    -5.7883    -4.5639  F       1  <O>11      -0.2047
  31 C20       2.4117    -6.3417    -4.6293  C.ar    1  <O>11      -0.0229
  32 H1        3.3392    -9.2907    -5.1550  H       1  <O>11       0.1425
  33 H2        3.3420   -10.0924    -3.5807  H       1  <O>11       0.1425
  34 H3        2.1010    -9.5040    -7.4337  H       1  <O>11       0.1737
  35 H4        4.8346    -6.0318    -4.2437  H       1  <O>11       0.1731
  36 H5        5.9533    -4.8821    -1.7373  H       1  <O>11       0.1731
  37 H6       -1.0275   -11.7615    -3.0324  H       1  <O>11       0.0647
  38 H7       -2.2132   -11.1207    -5.0562  H       1  <O>11       0.0619
  39 H8       -1.0552    -9.8628    -6.7825  H       1  <O>11       0.0637
  40 H9       -0.8932    -6.7322    -5.0917  H       1  <O>11       0.0637
  41 H10      -0.9423    -5.7411    -2.8778  H       1  <O>11       0.0618
  42 H11       1.1311    -5.1252    -1.7688  H       1  <O>11       0.0625
  43 H12       7.4933    -4.4237    -0.8600  H       1  <O>11       0.0626
  44 H13       9.5643    -3.7931     0.2414  H       1  <O>11       0.0618
  45 H14      11.6916    -4.0864    -0.8989  H       1  <O>11       0.0618
  46 H15      11.7376    -5.0230    -3.1387  H       1  <O>11       0.0646
  47 H16       3.3183    -6.5086    -5.0933  H       1  <O>11       0.0645
@<TRIPOS>BOND
     1     1     2    1
     2     2     3   ar
     3     3     4    1
     4     3     5   ar
     5     5     6   ar
     6     6     7   ar
     7     7     8   ar
     8     2     8   ar
     9     8     9    1
    10     9    10    1
    11    10    11    2
    12    10    12    2
    13    10    13    1
    14    13    14   ar
    15    14    15   ar
    16    15    16   ar
    17    16    17   ar
    18    17    18    1
    19    18    19    2
    20    18    20   am
    21    20    21    1
    22    21    22   am
    23    22    23    2
    24    22    24    1
    25    24    25   ar
    26    25    26   ar
    27    26    27   ar
    28    27    28   ar
    29    28    29   ar
    30    24    29   ar
    31    29    30    1
    32    17    31   ar
    33    13    31   ar
    34     1    32    1
    35     1    33    1
    36     9    34    1
    37    20    35    1
    38    21    36    1
    39     5    37    1
    40     6    38    1
    41     7    39    1
    42    14    40    1
    43    15    41    1
    44    16    42    1
    45    25    43    1
    46    26    44    1
    47    27    45    1
    48    28    46    1
    49    31    47    1
@<TRIPOS>MOLECULE
mol88_2_13
 47 49 0 0 0
SMALL
USER_CHARGES
****
VDW energy = 159.65
@<TRIPOS>ATOM
   1 N1        2.8495    -9.8143    -4.4295  N.pl3   1  <O>11      -0.3543
   2 C1        1.4617   -10.1611    -4.6036  C.ar    1  <O>11       0.0829
   3 C2        0.8050   -10.8783    -3.6012  C.ar    1  <O>11       0.1458
   4 F1        1.4699   -11.2386    -2.4576  F       1  <O>11      -0.2035
   5 C3       -0.5391   -11.2290    -3.7692  C.ar    1  <O>11      -0.0245
   6 C4       -1.2224   -10.8607    -4.9311  C.ar    1  <O>11      -0.0571
   7 C5       -0.5527   -10.1366    -5.9237  C.ar    1  <O>11      -0.0374
   8 C6        0.7874    -9.7806    -5.7650  C.ar    1  <O>11       0.0714
   9 N2        1.4750    -9.0290    -6.7840  N.pl3   1  <O>11      -0.2144
  10 S1        1.9945    -7.4931    -6.4688  S.O2    1  <O>11       0.0724
  11 O1        3.0652    -7.5203    -5.1975  O.2     1  <O>11      -0.1500
  12 O2        0.6936    -6.5386    -6.0738  O.2     1  <O>11      -0.1500
  13 C7        2.7966    -6.8347    -7.9023  C.ar    1  <O>11       0.1092
  14 C8        4.1928    -6.9180    -8.0346  C.ar    1  <O>11      -0.0350
  15 C9        4.8271    -6.3871    -9.1620  C.ar    1  <O>11      -0.0592
  16 C10       4.0772    -5.7726   -10.1671  C.ar    1  <O>11      -0.0495
  17 C11       2.6864    -5.6947   -10.0380  C.ar    1  <O>11       0.0400
  18 C12       1.9113    -5.0576   -11.0825  C.2     1  <O>11       0.2602
  19 O3        1.7447    -3.8478   -11.0687  O.2     1  <O>11      -0.2687
  20 N3        1.3673    -5.8127   -12.0873  N.am    1  <O>11      -0.2301
  21 N4        0.6326    -5.2092   -13.0794  N.am    1  <O>11      -0.2300
  22 C13       0.0555    -5.9680   -14.0605  C.2     1  <O>11       0.2629
  23 O4        0.1932    -7.1825   -14.0557  O.2     1  <O>11      -0.2686
  24 C14      -0.7227    -5.3295   -15.1145  C.ar    1  <O>11       0.0733
  25 C15      -0.1222    -5.0055   -16.3424  C.ar    1  <O>11      -0.0468
  26 C16      -0.8690    -4.3817   -17.3494  C.ar    1  <O>11      -0.0609
  27 C17      -2.2177    -4.0825   -17.1413  C.ar    1  <O>11      -0.0590
  28 C18      -2.8168    -4.4148   -15.9221  C.ar    1  <O>11      -0.0257
  29 C19      -2.0825    -5.0358   -14.9111  C.ar    1  <O>11       0.1355
  30 F2       -2.6704    -5.3668   -13.7174  F       1  <O>11      -0.2047
  31 C20       2.0433    -6.2248    -8.9183  C.ar    1  <O>11      -0.0229
  32 H1        3.3392    -9.2907    -5.1550  H       1  <O>11       0.1425
  33 H2        3.3420   -10.0924    -3.5807  H       1  <O>11       0.1425
  34 H3        1.6424    -9.4451    -7.6996  H       1  <O>11       0.1737
  35 H4        1.5072    -6.8239   -12.1001  H       1  <O>11       0.1731
  36 H5        0.5185    -4.1957   -13.0853  H       1  <O>11       0.1731
  37 H6       -1.0275   -11.7615    -3.0324  H       1  <O>11       0.0647
  38 H7       -2.2132   -11.1207    -5.0562  H       1  <O>11       0.0619
  39 H8       -1.0552    -9.8628    -6.7825  H       1  <O>11       0.0637
  40 H9        4.7526    -7.3730    -7.2967  H       1  <O>11       0.0637
  41 H10       5.8533    -6.4495    -9.2515  H       1  <O>11       0.0618
  42 H11       4.5453    -5.3791   -10.9984  H       1  <O>11       0.0625
  43 H12       0.8727    -5.2278   -16.5029  H       1  <O>11       0.0626
  44 H13      -0.4217    -4.1423   -18.2481  H       1  <O>11       0.0618
  45 H14      -2.7678    -3.6197   -17.8818  H       1  <O>11       0.0618
  46 H15      -3.8141    -4.1982   -15.7683  H       1  <O>11       0.0646
  47 H16       1.0160    -6.1687    -8.8373  H       1  <O>11       0.0645
@<TRIPOS>BOND
     1     1     2    1
     2     2     3   ar
     3     3     4    1
     4     3     5   ar
     5     5     6   ar
     6     6     7   ar
     7     7     8   ar
     8     2     8   ar
     9     8     9    1
    10     9    10    1
    11    10    11    2
    12    10    12    2
    13    10    13    1
    14    13    14   ar
    15    14    15   ar
    16    15    16   ar
    17    16    17   ar
    18    17    18    1
    19    18    19    2
    20    18    20   am
    21    20    21    1
    22    21    22   am
    23    22    23    2
    24    22    24    1
    25    24    25   ar
    26    25    26   ar
    27    26    27   ar
    28    27    28   ar
    29    28    29   ar
    30    24    29   ar
    31    29    30    1
    32    17    31   ar
    33    13    31   ar
    34     1    32    1
    35     1    33    1
    36     9    34    1
    37    20    35    1
    38    21    36    1
    39     5    37    1
    40     6    38    1
    41     7    39    1
    42    14    40    1
    43    15    41    1
    44    16    42    1
    45    25    43    1
    46    26    44    1
    47    27    45    1
    48    28    46    1
    49    31    47    1
@<TRIPOS>MOLECULE
mol88_2_14
 47 49 0 0 0
SMALL
USER_CHARGES
****
VDW energy = 159.79
@<TRIPOS>ATOM
   1 N1        2.8495    -9.8143    -4.4295  N.pl3   1  <O>11      -0.3543
   2 C1        1.4617   -10.1611    -4.6036  C.ar    1  <O>11       0.0829
   3 C2        0.8050   -10.8783    -3.6012  C.ar    1  <O>11       0.1458
   4 F1        1.4699   -11.2386    -2.4576  F       1  <O>11      -0.2035
   5 C3       -0.5391   -11.2290    -3.7692  C.ar    1  <O>11      -0.0245
   6 C4       -1.2224   -10.8607    -4.9311  C.ar    1  <O>11      -0.0571
   7 C5       -0.5527   -10.1366    -5.9237  C.ar    1  <O>11      -0.0374
   8 C6        0.7874    -9.7806    -5.7650  C.ar    1  <O>11       0.0714
   9 N2        1.4750    -9.0290    -6.7840  N.pl3   1  <O>11      -0.2144
  10 S1        1.2513    -7.3966    -6.8991  S.O2    1  <O>11       0.0724
  11 O1        2.1635    -6.7994    -8.1540  O.2     1  <O>11      -0.1500
  12 O2        1.7228    -6.6716    -5.4807  O.2     1  <O>11      -0.1500
  13 C7       -0.4591    -7.0540    -7.1973  C.ar    1  <O>11       0.1092
  14 C8       -0.9271    -6.8703    -8.5092  C.ar    1  <O>11      -0.0350
  15 C9       -2.2764    -6.5879    -8.7433  C.ar    1  <O>11      -0.0592
  16 C10      -3.1704    -6.4897    -7.6749  C.ar    1  <O>11      -0.0495
  17 C11      -2.7054    -6.6783    -6.3690  C.ar    1  <O>11       0.0400
  18 C12      -3.6351    -6.5767    -5.2631  C.2     1  <O>11       0.2602
  19 O3       -4.8124    -6.3305    -5.4749  O.2     1  <O>11      -0.2687
  20 N3       -3.1933    -6.7591    -3.9797  N.am    1  <O>11      -0.2301
  21 N4       -4.0746    -6.6637    -2.9297  N.am    1  <O>11      -0.2300
  22 C13      -3.6258    -6.8059    -1.6453  C.2     1  <O>11       0.2629
  23 O4       -2.4413    -7.0182    -1.4308  O.2     1  <O>11      -0.2686
  24 C14      -4.5594    -6.7068    -0.5305  C.ar    1  <O>11       0.0733
  25 C15      -5.9235    -6.4684    -0.7668  C.ar    1  <O>11      -0.0468
  26 C16      -6.8167    -6.3622     0.3064  C.ar    1  <O>11      -0.0609
  27 C17      -6.3578    -6.4981     1.6190  C.ar    1  <O>11      -0.0590
  28 C18      -5.0012    -6.7455     1.8522  C.ar    1  <O>11      -0.0257
  29 C19      -4.1018    -6.8525     0.7908  C.ar    1  <O>11       0.1355
  30 F2       -2.7726    -7.1003     1.0183  F       1  <O>11      -0.2047
  31 C20      -1.3611    -6.9641    -6.1249  C.ar    1  <O>11      -0.0229
  32 H1        3.3392    -9.2907    -5.1550  H       1  <O>11       0.1425
  33 H2        3.3420   -10.0924    -3.5807  H       1  <O>11       0.1425
  34 H3        2.1010    -9.5040    -7.4337  H       1  <O>11       0.1737
  35 H4       -2.2095    -6.9659    -3.8021  H       1  <O>11       0.1731
  36 H5       -5.0635    -6.4884    -3.1077  H       1  <O>11       0.1731
  37 H6       -1.0275   -11.7615    -3.0324  H       1  <O>11       0.0647
  38 H7       -2.2132   -11.1207    -5.0562  H       1  <O>11       0.0619
  39 H8       -1.0552    -9.8628    -6.7825  H       1  <O>11       0.0637
  40 H9       -0.2723    -6.9440    -9.3034  H       1  <O>11       0.0637
  41 H10      -2.6130    -6.4516    -9.7094  H       1  <O>11       0.0618
  42 H11      -4.1659    -6.2796    -7.8473  H       1  <O>11       0.0625
  43 H12      -6.2685    -6.3712    -1.7346  H       1  <O>11       0.0626
  44 H13      -7.8171    -6.1831     0.1272  H       1  <O>11       0.0618
  45 H14      -7.0149    -6.4166     2.4105  H       1  <O>11       0.0618
  46 H15      -4.6613    -6.8501     2.8210  H       1  <O>11       0.0646
  47 H16      -1.0307    -7.1092    -5.1581  H       1  <O>11       0.0645
@<TRIPOS>BOND
     1     1     2    1
     2     2     3   ar
     3     3     4    1
     4     3     5   ar
     5     5     6   ar
     6     6     7   ar
     7     7     8   ar
     8     2     8   ar
     9     8     9    1
    10     9    10    1
    11    10    11    2
    12    10    12    2
    13    10    13    1
    14    13    14   ar
    15    14    15   ar
    16    15    16   ar
    17    16    17   ar
    18    17    18    1
    19    18    19    2
    20    18    20   am
    21    20    21    1
    22    21    22   am
    23    22    23    2
    24    22    24    1
    25    24    25   ar
    26    25    26   ar
    27    26    27   ar
    28    27    28   ar
    29    28    29   ar
    30    24    29   ar
    31    29    30    1
    32    17    31   ar
    33    13    31   ar
    34     1    32    1
    35     1    33    1
    36     9    34    1
    37    20    35    1
    38    21    36    1
    39     5    37    1
    40     6    38    1
    41     7    39    1
    42    14    40    1
    43    15    41    1
    44    16    42    1
    45    25    43    1
    46    26    44    1
    47    27    45    1
    48    28    46    1
    49    31    47    1
@<TRIPOS>MOLECULE
mol88_2_15
 47 49 0 0 0
SMALL
USER_CHARGES
****
VDW energy = 160.06
@<TRIPOS>ATOM
   1 N1        2.8495    -9.8143    -4.4295  N.pl3   1  <O>11      -0.3543
   2 C1        1.4617   -10.1611    -4.6036  C.ar    1  <O>11       0.0829
   3 C2        0.8050   -10.8783    -3.6012  C.ar    1  <O>11       0.1458
   4 F1        1.4699   -11.2386    -2.4576  F       1  <O>11      -0.2035
   5 C3       -0.5391   -11.2290    -3.7692  C.ar    1  <O>11      -0.0245
   6 C4       -1.2224   -10.8607    -4.9311  C.ar    1  <O>11      -0.0571
   7 C5       -0.5527   -10.1366    -5.9237  C.ar    1  <O>11      -0.0374
   8 C6        0.7874    -9.7806    -5.7650  C.ar    1  <O>11       0.0714
   9 N2        1.4750    -9.0290    -6.7840  N.pl3   1  <O>11      -0.2144
  10 S1        1.9945    -7.4931    -6.4688  S.O2    1  <O>11       0.0724
  11 O1        3.0652    -7.5203    -5.1975  O.2     1  <O>11      -0.1500
  12 O2        0.6936    -6.5386    -6.0738  O.2     1  <O>11      -0.1500
  13 C7        2.7966    -6.8347    -7.9023  C.ar    1  <O>11       0.1092
  14 C8        3.8307    -5.8934    -7.7666  C.ar    1  <O>11      -0.0350
  15 C9        4.4560    -5.3647    -8.9000  C.ar    1  <O>11      -0.0592
  16 C10       4.0598    -5.7708   -10.1760  C.ar    1  <O>11      -0.0495
  17 C11       3.0340    -6.7125   -10.3109  C.ar    1  <O>11       0.0400
  18 C12       2.6260    -7.1323   -11.6357  C.2     1  <O>11       0.2602
  19 O3        1.7939    -6.4855   -12.2528  O.2     1  <O>11      -0.2687
  20 N3        3.1757    -8.2542   -12.1969  N.am    1  <O>11      -0.2301
  21 N4        2.7900    -8.6530   -13.4540  N.am    1  <O>11      -0.2300
  22 C13       3.3092    -9.7957   -13.9980  C.2     1  <O>11       0.2629
  23 O4        4.1164   -10.4623   -13.3669  O.2     1  <O>11      -0.2686
  24 C14       2.9026   -10.2194   -15.3320  C.ar    1  <O>11       0.0733
  25 C15       3.6743    -9.8709   -16.4528  C.ar    1  <O>11      -0.0468
  26 C16       3.2755   -10.2694   -17.7347  C.ar    1  <O>11      -0.0609
  27 C17       2.1103   -11.0208   -17.9065  C.ar    1  <O>11      -0.0590
  28 C18       1.3484   -11.3755   -16.7887  C.ar    1  <O>11      -0.0257
  29 C19       1.7355   -10.9835   -15.5067  C.ar    1  <O>11       0.1355
  30 F2        0.9919   -11.3354   -14.4097  F       1  <O>11      -0.2047
  31 C20       2.4059    -7.2490    -9.1858  C.ar    1  <O>11      -0.0229
  32 H1        3.3392    -9.2907    -5.1550  H       1  <O>11       0.1425
  33 H2        3.3420   -10.0924    -3.5807  H       1  <O>11       0.1425
  34 H3        1.6424    -9.4451    -7.6996  H       1  <O>11       0.1737
  35 H4        3.8722    -8.7947   -11.6819  H       1  <O>11       0.1731
  36 H5        2.1179    -8.0966   -13.9821  H       1  <O>11       0.1731
  37 H6       -1.0275   -11.7615    -3.0324  H       1  <O>11       0.0647
  38 H7       -2.2132   -11.1207    -5.0562  H       1  <O>11       0.0619
  39 H8       -1.0552    -9.8628    -6.7825  H       1  <O>11       0.0637
  40 H9        4.1300    -5.5908    -6.8264  H       1  <O>11       0.0637
  41 H10       5.2132    -4.6716    -8.7931  H       1  <O>11       0.0618
  42 H11       4.5201    -5.3795   -11.0127  H       1  <O>11       0.0625
  43 H12       4.5381    -9.3194   -16.3312  H       1  <O>11       0.0626
  44 H13       3.8442   -10.0072   -18.5550  H       1  <O>11       0.0618
  45 H14       1.8140   -11.3118   -18.8512  H       1  <O>11       0.0618
  46 H15       0.4895   -11.9340   -16.9135  H       1  <O>11       0.0646
  47 H16       1.6556    -7.9488    -9.2971  H       1  <O>11       0.0645
@<TRIPOS>BOND
     1     1     2    1
     2     2     3   ar
     3     3     4    1
     4     3     5   ar
     5     5     6   ar
     6     6     7   ar
     7     7     8   ar
     8     2     8   ar
     9     8     9    1
    10     9    10    1
    11    10    11    2
    12    10    12    2
    13    10    13    1
    14    13    14   ar
    15    14    15   ar
    16    15    16   ar
    17    16    17   ar
    18    17    18    1
    19    18    19    2
    20    18    20   am
    21    20    21    1
    22    21    22   am
    23    22    23    2
    24    22    24    1
    25    24    25   ar
    26    25    26   ar
    27    26    27   ar
    28    27    28   ar
    29    28    29   ar
    30    24    29   ar
    31    29    30    1
    32    17    31   ar
    33    13    31   ar
    34     1    32    1
    35     1    33    1
    36     9    34    1
    37    20    35    1
    38    21    36    1
    39     5    37    1
    40     6    38    1
    41     7    39    1
    42    14    40    1
    43    15    41    1
    44    16    42    1
    45    25    43    1
    46    26    44    1
    47    27    45    1
    48    28    46    1
    49    31    47    1
@<TRIPOS>MOLECULE
mol88_2_16
 47 49 0 0 0
SMALL
USER_CHARGES
****
VDW energy = 162.30
@<TRIPOS>ATOM
   1 N1        2.8495    -9.8143    -4.4295  N.pl3   1  <O>11      -0.3543
   2 C1        1.4617   -10.1611    -4.6036  C.ar    1  <O>11       0.0829
   3 C2        0.8050   -10.8783    -3.6012  C.ar    1  <O>11       0.1458
   4 F1        1.4699   -11.2386    -2.4576  F       1  <O>11      -0.2035
   5 C3       -0.5391   -11.2290    -3.7692  C.ar    1  <O>11      -0.0245
   6 C4       -1.2224   -10.8607    -4.9311  C.ar    1  <O>11      -0.0571
   7 C5       -0.5527   -10.1366    -5.9237  C.ar    1  <O>11      -0.0374
   8 C6        0.7874    -9.7806    -5.7650  C.ar    1  <O>11       0.0714
   9 N2        1.4750    -9.0290    -6.7840  N.pl3   1  <O>11      -0.2144
  10 S1        2.7213    -9.7188    -7.6200  S.O2    1  <O>11       0.0724
  11 O1        4.0994    -9.6817    -6.6910  O.2     1  <O>11      -0.1500
  12 O2        2.9809    -8.8725    -9.0257  O.2     1  <O>11      -0.1500
  13 C7        2.3156   -11.3972    -8.0075  C.ar    1  <O>11       0.1092
  14 C8        1.1859   -11.6913    -8.7891  C.ar    1  <O>11      -0.0350
  15 C9        0.8592   -13.0183    -9.0850  C.ar    1  <O>11      -0.0592
  16 C10       1.6556   -14.0619    -8.6086  C.ar    1  <O>11      -0.0495
  17 C11       2.7839   -13.7688    -7.8352  C.ar    1  <O>11       0.0400
  18 C12       3.6083   -14.8532    -7.3433  C.2     1  <O>11       0.2602
  19 O3        3.3241   -15.4099    -6.2941  O.2     1  <O>11      -0.2687
  20 N3        4.7057   -15.2556    -8.0571  N.am    1  <O>11      -0.2301
  21 N4        5.4881   -16.2850    -7.5919  N.am    1  <O>11      -0.2300
  22 C13       6.1044   -16.1794    -6.3751  C.2     1  <O>11       0.2629
  23 O4        6.7992   -17.0950    -5.9593  O.2     1  <O>11      -0.2686
  24 C14       5.9319   -14.9757    -5.5715  C.ar    1  <O>11       0.0733
  25 C15       4.9452   -14.9250    -4.5729  C.ar    1  <O>11      -0.0468
  26 C16       4.7737   -13.7635    -3.8097  C.ar    1  <O>11      -0.0609
  27 C17       5.5867   -12.6494    -4.0329  C.ar    1  <O>11      -0.0590
  28 C18       6.5753   -12.7049    -5.0205  C.ar    1  <O>11      -0.0257
  29 C19       6.7548   -13.8565    -5.7877  C.ar    1  <O>11       0.1355
  30 F2        7.7273   -13.9136    -6.7526  F       1  <O>11      -0.2047
  31 C20       3.1206   -12.4473    -7.5372  C.ar    1  <O>11      -0.0229
  32 H1        3.3392    -9.2907    -5.1550  H       1  <O>11       0.1425
  33 H2        3.3420   -10.0924    -3.5807  H       1  <O>11       0.1425
  34 H3        1.1919    -8.0715    -6.9905  H       1  <O>11       0.1737
  35 H4        4.9431   -14.7914    -8.9348  H       1  <O>11       0.1731
  36 H5        5.6107   -17.1272    -8.1540  H       1  <O>11       0.1731
  37 H6       -1.0275   -11.7615    -3.0324  H       1  <O>11       0.0647
  38 H7       -2.2132   -11.1207    -5.0562  H       1  <O>11       0.0619
  39 H8       -1.0552    -9.8628    -6.7825  H       1  <O>11       0.0637
  40 H9        0.5945   -10.9247    -9.1463  H       1  <O>11       0.0637
  41 H10       0.0264   -13.2273    -9.6576  H       1  <O>11       0.0618
  42 H11       1.4138   -15.0415    -8.8255  H       1  <O>11       0.0625
  43 H12       4.3446   -15.7465    -4.4012  H       1  <O>11       0.0626
  44 H13       4.0446   -13.7304    -3.0801  H       1  <O>11       0.0618
  45 H14       5.4586   -11.7920    -3.4732  H       1  <O>11       0.0618
  46 H15       7.1793   -11.8842    -5.1839  H       1  <O>11       0.0646
  47 H16       3.9596   -12.2425    -6.9723  H       1  <O>11       0.0645
@<TRIPOS>BOND
     1     1     2    1
     2     2     3   ar
     3     3     4    1
     4     3     5   ar
     5     5     6   ar
     6     6     7   ar
     7     7     8   ar
     8     2     8   ar
     9     8     9    1
    10     9    10    1
    11    10    11    2
    12    10    12    2
    13    10    13    1
    14    13    14   ar
    15    14    15   ar
    16    15    16   ar
    17    16    17   ar
    18    17    18    1
    19    18    19    2
    20    18    20   am
    21    20    21    1
    22    21    22   am
    23    22    23    2
    24    22    24    1
    25    24    25   ar
    26    25    26   ar
    27    26    27   ar
    28    27    28   ar
    29    28    29   ar
    30    24    29   ar
    31    29    30    1
    32    17    31   ar
    33    13    31   ar
    34     1    32    1
    35     1    33    1
    36     9    34    1
    37    20    35    1
    38    21    36    1
    39     5    37    1
    40     6    38    1
    41     7    39    1
    42    14    40    1
    43    15    41    1
    44    16    42    1
    45    25    43    1
    46    26    44    1
    47    27    45    1
    48    28    46    1
    49    31    47    1
@<TRIPOS>MOLECULE
mol88_2_17
 47 49 0 0 0
SMALL
USER_CHARGES
****
VDW energy = 162.45
@<TRIPOS>ATOM
   1 N1        2.8495    -9.8143    -4.4295  N.pl3   1  <O>11      -0.3543
   2 C1        1.4617   -10.1611    -4.6036  C.ar    1  <O>11       0.0829
   3 C2        0.8050   -10.8783    -3.6012  C.ar    1  <O>11       0.1458
   4 F1        1.4699   -11.2386    -2.4576  F       1  <O>11      -0.2035
   5 C3       -0.5391   -11.2290    -3.7692  C.ar    1  <O>11      -0.0245
   6 C4       -1.2224   -10.8607    -4.9311  C.ar    1  <O>11      -0.0571
   7 C5       -0.5527   -10.1366    -5.9237  C.ar    1  <O>11      -0.0374
   8 C6        0.7874    -9.7806    -5.7650  C.ar    1  <O>11       0.0714
   9 N2        1.4750    -9.0290    -6.7840  N.pl3   1  <O>11      -0.2144
  10 S1        2.7213    -9.7188    -7.6200  S.O2    1  <O>11       0.0724
  11 O1        4.0994    -9.6817    -6.6910  O.2     1  <O>11      -0.1500
  12 O2        2.9809    -8.8725    -9.0257  O.2     1  <O>11      -0.1500
  13 C7        2.3156   -11.3972    -8.0075  C.ar    1  <O>11       0.1092
  14 C8        1.1859   -11.6913    -8.7891  C.ar    1  <O>11      -0.0350
  15 C9        0.8592   -13.0183    -9.0850  C.ar    1  <O>11      -0.0592
  16 C10       1.6556   -14.0619    -8.6086  C.ar    1  <O>11      -0.0495
  17 C11       2.7839   -13.7688    -7.8352  C.ar    1  <O>11       0.0400
  18 C12       3.6083   -14.8532    -7.3433  C.2     1  <O>11       0.2602
  19 O3        3.3241   -15.4099    -6.2941  O.2     1  <O>11      -0.2687
  20 N3        4.7057   -15.2556    -8.0571  N.am    1  <O>11      -0.2301
  21 N4        5.4881   -16.2850    -7.5919  N.am    1  <O>11      -0.2300
  22 C13       4.9435   -17.5253    -7.4012  C.2     1  <O>11       0.2629
  23 O4        3.7613   -17.7187    -7.6439  O.2     1  <O>11      -0.2686
  24 C14       5.7715   -18.6180    -6.9062  C.ar    1  <O>11       0.0733
  25 C15       5.8064   -18.9160    -5.5339  C.ar    1  <O>11      -0.0468
  26 C16       6.6114   -19.9589    -5.0593  C.ar    1  <O>11      -0.0609
  27 C17       7.3809   -20.7133    -5.9484  C.ar    1  <O>11      -0.0590
  28 C18       7.3374   -20.4220    -7.3156  C.ar    1  <O>11      -0.0257
  29 C19       6.5396   -19.3847    -7.7999  C.ar    1  <O>11       0.1355
  30 F2        6.4922   -19.1018    -9.1407  F       1  <O>11      -0.2047
  31 C20       3.1206   -12.4473    -7.5372  C.ar    1  <O>11      -0.0229
  32 H1        3.3392    -9.2907    -5.1550  H       1  <O>11       0.1425
  33 H2        3.3420   -10.0924    -3.5807  H       1  <O>11       0.1425
  34 H3        1.1919    -8.0715    -6.9905  H       1  <O>11       0.1737
  35 H4        4.9431   -14.7914    -8.9348  H       1  <O>11       0.1731
  36 H5        6.4743   -16.1243    -7.3874  H       1  <O>11       0.1731
  37 H6       -1.0275   -11.7615    -3.0324  H       1  <O>11       0.0647
  38 H7       -2.2132   -11.1207    -5.0562  H       1  <O>11       0.0619
  39 H8       -1.0552    -9.8628    -6.7825  H       1  <O>11       0.0637
  40 H9        0.5945   -10.9247    -9.1463  H       1  <O>11       0.0637
  41 H10       0.0264   -13.2273    -9.6576  H       1  <O>11       0.0618
  42 H11       1.4138   -15.0415    -8.8255  H       1  <O>11       0.0625
  43 H12       5.2368   -18.3644    -4.8732  H       1  <O>11       0.0626
  44 H13       6.6362   -20.1708    -4.0496  H       1  <O>11       0.0618
  45 H14       7.9770   -21.4798    -5.5989  H       1  <O>11       0.0618
  46 H15       7.9021   -20.9809    -7.9741  H       1  <O>11       0.0646
  47 H16       3.9596   -12.2425    -6.9723  H       1  <O>11       0.0645
@<TRIPOS>BOND
     1     1     2    1
     2     2     3   ar
     3     3     4    1
     4     3     5   ar
     5     5     6   ar
     6     6     7   ar
     7     7     8   ar
     8     2     8   ar
     9     8     9    1
    10     9    10    1
    11    10    11    2
    12    10    12    2
    13    10    13    1
    14    13    14   ar
    15    14    15   ar
    16    15    16   ar
    17    16    17   ar
    18    17    18    1
    19    18    19    2
    20    18    20   am
    21    20    21    1
    22    21    22   am
    23    22    23    2
    24    22    24    1
    25    24    25   ar
    26    25    26   ar
    27    26    27   ar
    28    27    28   ar
    29    28    29   ar
    30    24    29   ar
    31    29    30    1
    32    17    31   ar
    33    13    31   ar
    34     1    32    1
    35     1    33    1
    36     9    34    1
    37    20    35    1
    38    21    36    1
    39     5    37    1
    40     6    38    1
    41     7    39    1
    42    14    40    1
    43    15    41    1
    44    16    42    1
    45    25    43    1
    46    26    44    1
    47    27    45    1
    48    28    46    1
    49    31    47    1
@<TRIPOS>MOLECULE
mol88_2_18
 47 49 0 0 0
SMALL
USER_CHARGES
****
VDW energy = 162.66
@<TRIPOS>ATOM
   1 N1        2.8495    -9.8143    -4.4295  N.pl3   1  <O>11      -0.3543
   2 C1        1.4617   -10.1611    -4.6036  C.ar    1  <O>11       0.0829
   3 C2        0.8050   -10.8783    -3.6012  C.ar    1  <O>11       0.1458
   4 F1        1.4699   -11.2386    -2.4576  F       1  <O>11      -0.2035
   5 C3       -0.5391   -11.2290    -3.7692  C.ar    1  <O>11      -0.0245
   6 C4       -1.2224   -10.8607    -4.9311  C.ar    1  <O>11      -0.0571
   7 C5       -0.5527   -10.1366    -5.9237  C.ar    1  <O>11      -0.0374
   8 C6        0.7874    -9.7806    -5.7650  C.ar    1  <O>11       0.0714
   9 N2        1.4750    -9.0290    -6.7840  N.pl3   1  <O>11      -0.2144
  10 S1        1.2513    -7.3966    -6.8991  S.O2    1  <O>11       0.0724
  11 O1        1.7207    -6.6715    -5.4787  O.2     1  <O>11      -0.1500
  12 O2       -0.3547    -7.0759    -7.1775  O.2     1  <O>11      -0.1500
  13 C7        2.2210    -6.7599    -8.2355  C.ar    1  <O>11       0.1092
  14 C8        3.4985    -6.2275    -7.9938  C.ar    1  <O>11      -0.0350
  15 C9        4.2594    -5.7138    -9.0485  C.ar    1  <O>11      -0.0592
  16 C10       3.7568    -5.7291   -10.3513  C.ar    1  <O>11      -0.0495
  17 C11       2.4870    -6.2645   -10.5928  C.ar    1  <O>11       0.0400
  18 C12       1.9689    -6.2798   -11.9452  C.2     1  <O>11       0.2602
  19 O3        2.6391    -5.8301   -12.8618  O.2     1  <O>11      -0.2687
  20 N3        0.7274    -6.8010   -12.1958  N.am    1  <O>11      -0.2301
  21 N4        0.2351    -6.8167   -13.4786  N.am    1  <O>11      -0.2300
  22 C13      -1.0210    -7.3004   -13.7229  C.2     1  <O>11       0.2629
  23 O4       -1.7058    -7.7189   -12.8010  O.2     1  <O>11      -0.2686
  24 C14      -1.5442    -7.3195   -15.0831  C.ar    1  <O>11       0.0733
  25 C15      -0.7630    -6.8457   -16.1502  C.ar    1  <O>11      -0.0468
  26 C16      -1.2721    -6.8545   -17.4547  C.ar    1  <O>11      -0.0609
  27 C17      -2.5583    -7.3396   -17.7040  C.ar    1  <O>11      -0.0590
  28 C18      -3.3310    -7.8203   -16.6421  C.ar    1  <O>11      -0.0257
  29 C19      -2.8346    -7.8158   -15.3380  C.ar    1  <O>11       0.1355
  30 F2       -3.5895    -8.2918   -14.2971  F       1  <O>11      -0.2047
  31 C20       1.7210    -6.7830    -9.5474  C.ar    1  <O>11      -0.0229
  32 H1        3.3392    -9.2907    -5.1550  H       1  <O>11       0.1425
  33 H2        3.3420   -10.0924    -3.5807  H       1  <O>11       0.1425
  34 H3        2.1010    -9.5040    -7.4337  H       1  <O>11       0.1737
  35 H4        0.1671    -7.1780   -11.4301  H       1  <O>11       0.1731
  36 H5        0.8064    -6.4693   -14.2488  H       1  <O>11       0.1731
  37 H6       -1.0275   -11.7615    -3.0324  H       1  <O>11       0.0647
  38 H7       -2.2132   -11.1207    -5.0562  H       1  <O>11       0.0619
  39 H8       -1.0552    -9.8628    -6.7825  H       1  <O>11       0.0637
  40 H9        3.8769    -6.2154    -7.0337  H       1  <O>11       0.0637
  41 H10       5.1960    -5.3219    -8.8634  H       1  <O>11       0.0618
  42 H11       4.3174    -5.3485   -11.1296  H       1  <O>11       0.0625
  43 H12       0.1892    -6.4900   -15.9722  H       1  <O>11       0.0626
  44 H13      -0.6954    -6.5015   -18.2343  H       1  <O>11       0.0618
  45 H14      -2.9354    -7.3432   -18.6646  H       1  <O>11       0.0618
  46 H15      -4.2798    -8.1828   -16.8251  H       1  <O>11       0.0646
  47 H16       0.7890    -7.1827    -9.7384  H       1  <O>11       0.0645
@<TRIPOS>BOND
     1     1     2    1
     2     2     3   ar
     3     3     4    1
     4     3     5   ar
     5     5     6   ar
     6     6     7   ar
     7     7     8   ar
     8     2     8   ar
     9     8     9    1
    10     9    10    1
    11    10    11    2
    12    10    12    2
    13    10    13    1
    14    13    14   ar
    15    14    15   ar
    16    15    16   ar
    17    16    17   ar
    18    17    18    1
    19    18    19    2
    20    18    20   am
    21    20    21    1
    22    21    22   am
    23    22    23    2
    24    22    24    1
    25    24    25   ar
    26    25    26   ar
    27    26    27   ar
    28    27    28   ar
    29    28    29   ar
    30    24    29   ar
    31    29    30    1
    32    17    31   ar
    33    13    31   ar
    34     1    32    1
    35     1    33    1
    36     9    34    1
    37    20    35    1
    38    21    36    1
    39     5    37    1
    40     6    38    1
    41     7    39    1
    42    14    40    1
    43    15    41    1
    44    16    42    1
    45    25    43    1
    46    26    44    1
    47    27    45    1
    48    28    46    1
    49    31    47    1
@<TRIPOS>MOLECULE
mol88_2_19
 47 49 0 0 0
SMALL
USER_CHARGES
****
VDW energy = 164.21
@<TRIPOS>ATOM
   1 N1        2.8495    -9.8143    -4.4295  N.pl3   1  <O>11      -0.3543
   2 C1        1.4617   -10.1611    -4.6036  C.ar    1  <O>11       0.0829
   3 C2        0.8050   -10.8783    -3.6012  C.ar    1  <O>11       0.1458
   4 F1        1.4699   -11.2386    -2.4576  F       1  <O>11      -0.2035
   5 C3       -0.5391   -11.2290    -3.7692  C.ar    1  <O>11      -0.0245
   6 C4       -1.2224   -10.8607    -4.9311  C.ar    1  <O>11      -0.0571
   7 C5       -0.5527   -10.1366    -5.9237  C.ar    1  <O>11      -0.0374
   8 C6        0.7874    -9.7806    -5.7650  C.ar    1  <O>11       0.0714
   9 N2        1.4750    -9.0290    -6.7840  N.pl3   1  <O>11      -0.2144
  10 S1        2.7213    -9.7188    -7.6200  S.O2    1  <O>11       0.0724
  11 O1        4.0994    -9.6817    -6.6910  O.2     1  <O>11      -0.1500
  12 O2        2.9809    -8.8725    -9.0257  O.2     1  <O>11      -0.1500
  13 C7        2.3156   -11.3972    -8.0075  C.ar    1  <O>11       0.1092
  14 C8        2.7444   -12.4415    -7.1712  C.ar    1  <O>11      -0.0350
  15 C9        2.4336   -13.7684    -7.4842  C.ar    1  <O>11      -0.0592
  16 C10       1.6914   -14.0658    -8.6292  C.ar    1  <O>11      -0.0495
  17 C11       1.2596   -13.0255    -9.4589  C.ar    1  <O>11       0.0400
  18 C12       0.4893   -13.3371   -10.6452  C.2     1  <O>11       0.2602
  19 O3        1.0595   -13.6172   -11.6883  O.2     1  <O>11      -0.2687
  20 N3       -0.8792   -13.3196   -10.5958  N.am    1  <O>11      -0.2301
  21 N4       -1.6111   -13.6160   -11.7204  N.am    1  <O>11      -0.2300
  22 C13      -1.4769   -14.8377   -12.3211  C.2     1  <O>11       0.2629
  23 O4       -0.7062   -15.6660   -11.8584  O.2     1  <O>11      -0.2686
  24 C14      -2.2511   -15.1532   -13.5150  C.ar    1  <O>11       0.0733
  25 C15      -1.6946   -14.9658   -14.7912  C.ar    1  <O>11      -0.0468
  26 C16      -2.4444   -15.2588   -15.9370  C.ar    1  <O>11      -0.0609
  27 C17      -3.7489   -15.7446   -15.8182  C.ar    1  <O>11      -0.0590
  28 C18      -4.2979   -15.9403   -14.5469  C.ar    1  <O>11      -0.0257
  29 C19      -3.5607   -15.6510   -13.3981  C.ar    1  <O>11       0.1355
  30 F2       -4.0963   -15.8475   -12.1513  F       1  <O>11      -0.2047
  31 C20       1.5615   -11.6974    -9.1533  C.ar    1  <O>11      -0.0229
  32 H1        3.3392    -9.2907    -5.1550  H       1  <O>11       0.1425
  33 H2        3.3420   -10.0924    -3.5807  H       1  <O>11       0.1425
  34 H3        1.1919    -8.0715    -6.9905  H       1  <O>11       0.1737
  35 H4       -1.3564   -13.0866    -9.7238  H       1  <O>11       0.1731
  36 H5       -2.2532   -12.9250   -12.1082  H       1  <O>11       0.1731
  37 H6       -1.0275   -11.7615    -3.0324  H       1  <O>11       0.0647
  38 H7       -2.2132   -11.1207    -5.0562  H       1  <O>11       0.0619
  39 H8       -1.0552    -9.8628    -6.7825  H       1  <O>11       0.0637
  40 H9        3.2911   -12.2285    -6.3222  H       1  <O>11       0.0637
  41 H10       2.7539   -14.5308    -6.8668  H       1  <O>11       0.0618
  42 H11       1.4634   -15.0452    -8.8614  H       1  <O>11       0.0625
  43 H12      -0.7301   -14.6109   -14.8846  H       1  <O>11       0.0626
  44 H13      -2.0320   -15.1154   -16.8721  H       1  <O>11       0.0618
  45 H14      -4.3032   -15.9575   -16.6622  H       1  <O>11       0.0618
  46 H15      -5.2600   -16.3029   -14.4574  H       1  <O>11       0.0646
  47 H16       1.2311   -10.9375    -9.7684  H       1  <O>11       0.0645
@<TRIPOS>BOND
     1     1     2    1
     2     2     3   ar
     3     3     4    1
     4     3     5   ar
     5     5     6   ar
     6     6     7   ar
     7     7     8   ar
     8     2     8   ar
     9     8     9    1
    10     9    10    1
    11    10    11    2
    12    10    12    2
    13    10    13    1
    14    13    14   ar
    15    14    15   ar
    16    15    16   ar
    17    16    17   ar
    18    17    18    1
    19    18    19    2
    20    18    20   am
    21    20    21    1
    22    21    22   am
    23    22    23    2
    24    22    24    1
    25    24    25   ar
    26    25    26   ar
    27    26    27   ar
    28    27    28   ar
    29    28    29   ar
    30    24    29   ar
    31    29    30    1
    32    17    31   ar
    33    13    31   ar
    34     1    32    1
    35     1    33    1
    36     9    34    1
    37    20    35    1
    38    21    36    1
    39     5    37    1
    40     6    38    1
    41     7    39    1
    42    14    40    1
    43    15    41    1
    44    16    42    1
    45    25    43    1
    46    26    44    1
    47    27    45    1
    48    28    46    1
    49    31    47    1
@<TRIPOS>MOLECULE
mol88_2_20
 47 49 0 0 0
SMALL
USER_CHARGES
****
VDW energy = 164.47
@<TRIPOS>ATOM
   1 N1        2.8495    -9.8143    -4.4295  N.pl3   1  <O>11      -0.3543
   2 C1        1.4617   -10.1611    -4.6036  C.ar    1  <O>11       0.0829
   3 C2        0.8050   -10.8783    -3.6012  C.ar    1  <O>11       0.1458
   4 F1        1.4699   -11.2386    -2.4576  F       1  <O>11      -0.2035
   5 C3       -0.5391   -11.2290    -3.7692  C.ar    1  <O>11      -0.0245
   6 C4       -1.2224   -10.8607    -4.9311  C.ar    1  <O>11      -0.0571
   7 C5       -0.5527   -10.1366    -5.9237  C.ar    1  <O>11      -0.0374
   8 C6        0.7874    -9.7806    -5.7650  C.ar    1  <O>11       0.0714
   9 N2        1.4750    -9.0290    -6.7840  N.pl3   1  <O>11      -0.2144
  10 S1        2.7213    -9.7188    -7.6200  S.O2    1  <O>11       0.0724
  11 O1        4.0994    -9.6817    -6.6910  O.2     1  <O>11      -0.1500
  12 O2        2.9809    -8.8725    -9.0257  O.2     1  <O>11      -0.1500
  13 C7        2.3156   -11.3972    -8.0075  C.ar    1  <O>11       0.1092
  14 C8        1.1859   -11.6913    -8.7891  C.ar    1  <O>11      -0.0350
  15 C9        0.8592   -13.0183    -9.0850  C.ar    1  <O>11      -0.0592
  16 C10       1.6556   -14.0619    -8.6086  C.ar    1  <O>11      -0.0495
  17 C11       2.7839   -13.7688    -7.8352  C.ar    1  <O>11       0.0400
  18 C12       3.6083   -14.8532    -7.3433  C.2     1  <O>11       0.2602
  19 O3        3.3241   -15.4099    -6.2941  O.2     1  <O>11      -0.2687
  20 N3        4.7057   -15.2556    -8.0571  N.am    1  <O>11      -0.2301
  21 N4        5.0237   -14.6305    -9.2387  N.am    1  <O>11      -0.2300
  22 C13       4.1327   -14.6365   -10.2766  C.2     1  <O>11       0.2629
  23 O4        3.0538   -15.1978   -10.1540  O.2     1  <O>11      -0.2686
  24 C14       4.4690   -13.9755   -11.5313  C.ar    1  <O>11       0.0733
  25 C15       5.0236   -14.7091   -12.5931  C.ar    1  <O>11      -0.0468
  26 C16       5.3564   -14.0697   -13.7937  C.ar    1  <O>11      -0.0609
  27 C17       5.1340   -12.6987   -13.9450  C.ar    1  <O>11      -0.0590
  28 C18       4.5724   -11.9715   -12.8906  C.ar    1  <O>11      -0.0257
  29 C19       4.2375   -12.5978   -11.6895  C.ar    1  <O>11       0.1355
  30 F2        3.6819   -11.8866   -10.6572  F       1  <O>11      -0.2047
  31 C20       3.1206   -12.4473    -7.5372  C.ar    1  <O>11      -0.0229
  32 H1        3.3392    -9.2907    -5.1550  H       1  <O>11       0.1425
  33 H2        3.3420   -10.0924    -3.5807  H       1  <O>11       0.1425
  34 H3        1.1919    -8.0715    -6.9905  H       1  <O>11       0.1737
  35 H4        5.2881   -16.0199    -7.7119  H       1  <O>11       0.1731
  36 H5        5.9244   -14.1634    -9.3427  H       1  <O>11       0.1731
  37 H6       -1.0275   -11.7615    -3.0324  H       1  <O>11       0.0647
  38 H7       -2.2132   -11.1207    -5.0562  H       1  <O>11       0.0619
  39 H8       -1.0552    -9.8628    -6.7825  H       1  <O>11       0.0637
  40 H9        0.5945   -10.9247    -9.1463  H       1  <O>11       0.0637
  41 H10       0.0264   -13.2273    -9.6576  H       1  <O>11       0.0618
  42 H11       1.4138   -15.0415    -8.8255  H       1  <O>11       0.0625
  43 H12       5.1863   -15.7228   -12.4881  H       1  <O>11       0.0626
  44 H13       5.7673   -14.6128   -14.5690  H       1  <O>11       0.0618
  45 H14       5.3822   -12.2262   -14.8282  H       1  <O>11       0.0618
  46 H15       4.4037   -10.9595   -13.0023  H       1  <O>11       0.0646
  47 H16       3.9596   -12.2425    -6.9723  H       1  <O>11       0.0645
@<TRIPOS>BOND
     1     1     2    1
     2     2     3   ar
     3     3     4    1
     4     3     5   ar
     5     5     6   ar
     6     6     7   ar
     7     7     8   ar
     8     2     8   ar
     9     8     9    1
    10     9    10    1
    11    10    11    2
    12    10    12    2
    13    10    13    1
    14    13    14   ar
    15    14    15   ar
    16    15    16   ar
    17    16    17   ar
    18    17    18    1
    19    18    19    2
    20    18    20   am
    21    20    21    1
    22    21    22   am
    23    22    23    2
    24    22    24    1
    25    24    25   ar
    26    25    26   ar
    27    26    27   ar
    28    27    28   ar
    29    28    29   ar
    30    24    29   ar
    31    29    30    1
    32    17    31   ar
    33    13    31   ar
    34     1    32    1
    35     1    33    1
    36     9    34    1
    37    20    35    1
    38    21    36    1
    39     5    37    1
    40     6    38    1
    41     7    39    1
    42    14    40    1
    43    15    41    1
    44    16    42    1
    45    25    43    1
    46    26    44    1
    47    27    45    1
    48    28    46    1
    49    31    47    1
@<TRIPOS>MOLECULE
mol88_2_21
 47 49 0 0 0
SMALL
USER_CHARGES
****
VDW energy = 164.85
@<TRIPOS>ATOM
   1 N1        2.8495    -9.8143    -4.4295  N.pl3   1  <O>11      -0.3543
   2 C1        1.4617   -10.1611    -4.6036  C.ar    1  <O>11       0.0829
   3 C2        0.8050   -10.8783    -3.6012  C.ar    1  <O>11       0.1458
   4 F1        1.4699   -11.2386    -2.4576  F       1  <O>11      -0.2035
   5 C3       -0.5391   -11.2290    -3.7692  C.ar    1  <O>11      -0.0245
   6 C4       -1.2224   -10.8607    -4.9311  C.ar    1  <O>11      -0.0571
   7 C5       -0.5527   -10.1366    -5.9237  C.ar    1  <O>11      -0.0374
   8 C6        0.7874    -9.7806    -5.7650  C.ar    1  <O>11       0.0714
   9 N2        1.4750    -9.0290    -6.7840  N.pl3   1  <O>11      -0.2144
  10 S1        2.7213    -9.7188    -7.6200  S.O2    1  <O>11       0.0724
  11 O1        4.0994    -9.6817    -6.6910  O.2     1  <O>11      -0.1500
  12 O2        2.9809    -8.8725    -9.0257  O.2     1  <O>11      -0.1500
  13 C7        2.3156   -11.3972    -8.0075  C.ar    1  <O>11       0.1092
  14 C8        1.1859   -11.6913    -8.7891  C.ar    1  <O>11      -0.0350
  15 C9        0.8592   -13.0183    -9.0850  C.ar    1  <O>11      -0.0592
  16 C10       1.6556   -14.0619    -8.6086  C.ar    1  <O>11      -0.0495
  17 C11       2.7839   -13.7688    -7.8352  C.ar    1  <O>11       0.0400
  18 C12       3.6083   -14.8532    -7.3433  C.2     1  <O>11       0.2602
  19 O3        3.3241   -15.4099    -6.2941  O.2     1  <O>11      -0.2687
  20 N3        4.7057   -15.2556    -8.0571  N.am    1  <O>11      -0.2301
  21 N4        5.4881   -16.2850    -7.5919  N.am    1  <O>11      -0.2300
  22 C13       6.1044   -16.1794    -6.3751  C.2     1  <O>11       0.2629
  23 O4        5.9599   -15.1698    -5.7014  O.2     1  <O>11      -0.2686
  24 C14       6.9360   -17.2695    -5.8809  C.ar    1  <O>11       0.0733
  25 C15       8.3259   -17.2492    -6.0834  C.ar    1  <O>11      -0.0468
  26 C16       9.1215   -18.3033    -5.6176  C.ar    1  <O>11      -0.0609
  27 C17       8.5386   -19.3793    -4.9436  C.ar    1  <O>11      -0.0590
  28 C18       7.1560   -19.3932    -4.7339  C.ar    1  <O>11      -0.0257
  29 C19       6.3530   -18.3489    -5.1942  C.ar    1  <O>11       0.1355
  30 F2        4.9981   -18.3592    -4.9843  F       1  <O>11      -0.2047
  31 C20       3.1206   -12.4473    -7.5372  C.ar    1  <O>11      -0.0229
  32 H1        3.3392    -9.2907    -5.1550  H       1  <O>11       0.1425
  33 H2        3.3420   -10.0924    -3.5807  H       1  <O>11       0.1425
  34 H3        1.1919    -8.0715    -6.9905  H       1  <O>11       0.1737
  35 H4        4.9431   -14.7914    -8.9348  H       1  <O>11       0.1731
  36 H5        5.6107   -17.1272    -8.1540  H       1  <O>11       0.1731
  37 H6       -1.0275   -11.7615    -3.0324  H       1  <O>11       0.0647
  38 H7       -2.2132   -11.1207    -5.0562  H       1  <O>11       0.0619
  39 H8       -1.0552    -9.8628    -6.7825  H       1  <O>11       0.0637
  40 H9        0.5945   -10.9247    -9.1463  H       1  <O>11       0.0637
  41 H10       0.0264   -13.2273    -9.6576  H       1  <O>11       0.0618
  42 H11       1.4138   -15.0415    -8.8255  H       1  <O>11       0.0625
  43 H12       8.7622   -16.4549    -6.5771  H       1  <O>11       0.0626
  44 H13      10.1416   -18.2851    -5.7726  H       1  <O>11       0.0618
  45 H14       9.1239   -20.1581    -4.6031  H       1  <O>11       0.0618
  46 H15       6.7243   -20.1853    -4.2326  H       1  <O>11       0.0646
  47 H16       3.9596   -12.2425    -6.9723  H       1  <O>11       0.0645
@<TRIPOS>BOND
     1     1     2    1
     2     2     3   ar
     3     3     4    1
     4     3     5   ar
     5     5     6   ar
     6     6     7   ar
     7     7     8   ar
     8     2     8   ar
     9     8     9    1
    10     9    10    1
    11    10    11    2
    12    10    12    2
    13    10    13    1
    14    13    14   ar
    15    14    15   ar
    16    15    16   ar
    17    16    17   ar
    18    17    18    1
    19    18    19    2
    20    18    20   am
    21    20    21    1
    22    21    22   am
    23    22    23    2
    24    22    24    1
    25    24    25   ar
    26    25    26   ar
    27    26    27   ar
    28    27    28   ar
    29    28    29   ar
    30    24    29   ar
    31    29    30    1
    32    17    31   ar
    33    13    31   ar
    34     1    32    1
    35     1    33    1
    36     9    34    1
    37    20    35    1
    38    21    36    1
    39     5    37    1
    40     6    38    1
    41     7    39    1
    42    14    40    1
    43    15    41    1
    44    16    42    1
    45    25    43    1
    46    26    44    1
    47    27    45    1
    48    28    46    1
    49    31    47    1
@<TRIPOS>MOLECULE
mol88_2_22
 47 49 0 0 0
SMALL
USER_CHARGES
****
VDW energy = 165.63
@<TRIPOS>ATOM
   1 N1        2.8495    -9.8143    -4.4295  N.pl3   1  <O>11      -0.3543
   2 C1        1.4617   -10.1611    -4.6036  C.ar    1  <O>11       0.0829
   3 C2        0.8050   -10.8783    -3.6012  C.ar    1  <O>11       0.1458
   4 F1        1.4699   -11.2386    -2.4576  F       1  <O>11      -0.2035
   5 C3       -0.5391   -11.2290    -3.7692  C.ar    1  <O>11      -0.0245
   6 C4       -1.2224   -10.8607    -4.9311  C.ar    1  <O>11      -0.0571
   7 C5       -0.5527   -10.1366    -5.9237  C.ar    1  <O>11      -0.0374
   8 C6        0.7874    -9.7806    -5.7650  C.ar    1  <O>11       0.0714
   9 N2        1.4750    -9.0290    -6.7840  N.pl3   1  <O>11      -0.2144
  10 S1        2.7213    -9.7188    -7.6200  S.O2    1  <O>11       0.0724
  11 O1        4.0994    -9.6817    -6.6910  O.2     1  <O>11      -0.1500
  12 O2        2.9809    -8.8725    -9.0257  O.2     1  <O>11      -0.1500
  13 C7        2.3156   -11.3972    -8.0075  C.ar    1  <O>11       0.1092
  14 C8        2.7444   -12.4415    -7.1712  C.ar    1  <O>11      -0.0350
  15 C9        2.4336   -13.7684    -7.4842  C.ar    1  <O>11      -0.0592
  16 C10       1.6914   -14.0658    -8.6292  C.ar    1  <O>11      -0.0495
  17 C11       1.2596   -13.0255    -9.4589  C.ar    1  <O>11       0.0400
  18 C12       0.4893   -13.3371   -10.6452  C.2     1  <O>11       0.2602
  19 O3        1.0595   -13.6172   -11.6883  O.2     1  <O>11      -0.2687
  20 N3       -0.8792   -13.3196   -10.5958  N.am    1  <O>11      -0.2301
  21 N4       -1.6111   -13.6160   -11.7204  N.am    1  <O>11      -0.2300
  22 C13      -1.4769   -14.8377   -12.3211  C.2     1  <O>11       0.2629
  23 O4       -0.7062   -15.6660   -11.8584  O.2     1  <O>11      -0.2686
  24 C14      -2.2511   -15.1532   -13.5150  C.ar    1  <O>11       0.0733
  25 C15      -1.6666   -15.8747   -14.5691  C.ar    1  <O>11      -0.0468
  26 C16      -2.4089   -16.1667   -15.7201  C.ar    1  <O>11      -0.0609
  27 C17      -3.7374   -15.7471   -15.8250  C.ar    1  <O>11      -0.0590
  28 C18      -4.3209   -15.0377   -14.7705  C.ar    1  <O>11      -0.0257
  29 C19      -3.5909   -14.7401   -13.6192  C.ar    1  <O>11       0.1355
  30 F2       -4.1639   -14.0493   -12.5827  F       1  <O>11      -0.2047
  31 C20       1.5615   -11.6974    -9.1533  C.ar    1  <O>11      -0.0229
  32 H1        3.3392    -9.2907    -5.1550  H       1  <O>11       0.1425
  33 H2        3.3420   -10.0924    -3.5807  H       1  <O>11       0.1425
  34 H3        1.1919    -8.0715    -6.9905  H       1  <O>11       0.1737
  35 H4       -1.3564   -13.0866    -9.7238  H       1  <O>11       0.1731
  36 H5       -2.2532   -12.9250   -12.1082  H       1  <O>11       0.1731
  37 H6       -1.0275   -11.7615    -3.0324  H       1  <O>11       0.0647
  38 H7       -2.2132   -11.1207    -5.0562  H       1  <O>11       0.0619
  39 H8       -1.0552    -9.8628    -6.7825  H       1  <O>11       0.0637
  40 H9        3.2911   -12.2285    -6.3222  H       1  <O>11       0.0637
  41 H10       2.7539   -14.5308    -6.8668  H       1  <O>11       0.0618
  42 H11       1.4634   -15.0452    -8.8614  H       1  <O>11       0.0625
  43 H12      -0.6869   -16.1905   -14.4951  H       1  <O>11       0.0626
  44 H13      -1.9733   -16.6936   -16.4931  H       1  <O>11       0.0618
  45 H14      -4.2839   -15.9590   -16.6743  H       1  <O>11       0.0618
  46 H15      -5.3034   -14.7304   -14.8448  H       1  <O>11       0.0646
  47 H16       1.2311   -10.9375    -9.7684  H       1  <O>11       0.0645
@<TRIPOS>BOND
     1     1     2    1
     2     2     3   ar
     3     3     4    1
     4     3     5   ar
     5     5     6   ar
     6     6     7   ar
     7     7     8   ar
     8     2     8   ar
     9     8     9    1
    10     9    10    1
    11    10    11    2
    12    10    12    2
    13    10    13    1
    14    13    14   ar
    15    14    15   ar
    16    15    16   ar
    17    16    17   ar
    18    17    18    1
    19    18    19    2
    20    18    20   am
    21    20    21    1
    22    21    22   am
    23    22    23    2
    24    22    24    1
    25    24    25   ar
    26    25    26   ar
    27    26    27   ar
    28    27    28   ar
    29    28    29   ar
    30    24    29   ar
    31    29    30    1
    32    17    31   ar
    33    13    31   ar
    34     1    32    1
    35     1    33    1
    36     9    34    1
    37    20    35    1
    38    21    36    1
    39     5    37    1
    40     6    38    1
    41     7    39    1
    42    14    40    1
    43    15    41    1
    44    16    42    1
    45    25    43    1
    46    26    44    1
    47    27    45    1
    48    28    46    1
    49    31    47    1
@<TRIPOS>MOLECULE
mol88_2_23
 47 49 0 0 0
SMALL
USER_CHARGES
****
VDW energy = 167.06
@<TRIPOS>ATOM
   1 N1        2.8495    -9.8143    -4.4295  N.pl3   1  <O>11      -0.3543
   2 C1        1.4617   -10.1611    -4.6036  C.ar    1  <O>11       0.0829
   3 C2        0.8050   -10.8783    -3.6012  C.ar    1  <O>11       0.1458
   4 F1        1.4699   -11.2386    -2.4576  F       1  <O>11      -0.2035
   5 C3       -0.5391   -11.2290    -3.7692  C.ar    1  <O>11      -0.0245
   6 C4       -1.2224   -10.8607    -4.9311  C.ar    1  <O>11      -0.0571
   7 C5       -0.5527   -10.1366    -5.9237  C.ar    1  <O>11      -0.0374
   8 C6        0.7874    -9.7806    -5.7650  C.ar    1  <O>11       0.0714
   9 N2        1.4750    -9.0290    -6.7840  N.pl3   1  <O>11      -0.2144
  10 S1        1.2513    -7.3966    -6.8991  S.O2    1  <O>11       0.0724
  11 O1        1.7207    -6.6715    -5.4787  O.2     1  <O>11      -0.1500
  12 O2       -0.3547    -7.0759    -7.1775  O.2     1  <O>11      -0.1500
  13 C7        2.2210    -6.7599    -8.2355  C.ar    1  <O>11       0.1092
  14 C8        3.4985    -6.2275    -7.9938  C.ar    1  <O>11      -0.0350
  15 C9        4.2594    -5.7138    -9.0485  C.ar    1  <O>11      -0.0592
  16 C10       3.7568    -5.7291   -10.3513  C.ar    1  <O>11      -0.0495
  17 C11       2.4870    -6.2645   -10.5928  C.ar    1  <O>11       0.0400
  18 C12       1.9689    -6.2798   -11.9452  C.2     1  <O>11       0.2602
  19 O3        0.7918    -6.0278   -12.1518  O.2     1  <O>11      -0.2687
  20 N3        2.8005    -6.5747   -12.9926  N.am    1  <O>11      -0.2301
  21 N4        4.1253    -6.8558   -12.7599  N.am    1  <O>11      -0.2300
  22 C13       4.9647    -7.1107   -13.8095  C.2     1  <O>11       0.2629
  23 O4        4.5372    -7.0890   -14.9545  O.2     1  <O>11      -0.2686
  24 C14       6.3698    -7.4108   -13.5645  C.ar    1  <O>11       0.0733
  25 C15       6.8054    -8.7433   -13.4757  C.ar    1  <O>11      -0.0468
  26 C16       8.1539    -9.0290   -13.2289  C.ar    1  <O>11      -0.0609
  27 C17       9.0757    -7.9905   -13.0747  C.ar    1  <O>11      -0.0590
  28 C18       8.6422    -6.6645   -13.1733  C.ar    1  <O>11      -0.0257
  29 C19       7.3010    -6.3677   -13.4182  C.ar    1  <O>11       0.1355
  30 F2        6.8762    -5.0680   -13.5203  F       1  <O>11      -0.2047
  31 C20       1.7210    -6.7830    -9.5474  C.ar    1  <O>11      -0.0229
  32 H1        3.3392    -9.2907    -5.1550  H       1  <O>11       0.1425
  33 H2        3.3420   -10.0924    -3.5807  H       1  <O>11       0.1425
  34 H3        2.1010    -9.5040    -7.4337  H       1  <O>11       0.1737
  35 H4        2.4370    -6.5859   -13.9466  H       1  <O>11       0.1731
  36 H5        4.4826    -6.8758   -11.8048  H       1  <O>11       0.1731
  37 H6       -1.0275   -11.7615    -3.0324  H       1  <O>11       0.0647
  38 H7       -2.2132   -11.1207    -5.0562  H       1  <O>11       0.0619
  39 H8       -1.0552    -9.8628    -6.7825  H       1  <O>11       0.0637
  40 H9        3.8769    -6.2154    -7.0337  H       1  <O>11       0.0637
  41 H10       5.1960    -5.3219    -8.8634  H       1  <O>11       0.0618
  42 H11       4.3174    -5.3485   -11.1296  H       1  <O>11       0.0625
  43 H12       6.1295    -9.5143   -13.5929  H       1  <O>11       0.0626
  44 H13       8.4678   -10.0097   -13.1607  H       1  <O>11       0.0618
  45 H14      10.0690    -8.2003   -12.8893  H       1  <O>11       0.0618
  46 H15       9.3226    -5.8963   -13.0636  H       1  <O>11       0.0646
  47 H16       0.7890    -7.1827    -9.7384  H       1  <O>11       0.0645
@<TRIPOS>BOND
     1     1     2    1
     2     2     3   ar
     3     3     4    1
     4     3     5   ar
     5     5     6   ar
     6     6     7   ar
     7     7     8   ar
     8     2     8   ar
     9     8     9    1
    10     9    10    1
    11    10    11    2
    12    10    12    2
    13    10    13    1
    14    13    14   ar
    15    14    15   ar
    16    15    16   ar
    17    16    17   ar
    18    17    18    1
    19    18    19    2
    20    18    20   am
    21    20    21    1
    22    21    22   am
    23    22    23    2
    24    22    24    1
    25    24    25   ar
    26    25    26   ar
    27    26    27   ar
    28    27    28   ar
    29    28    29   ar
    30    24    29   ar
    31    29    30    1
    32    17    31   ar
    33    13    31   ar
    34     1    32    1
    35     1    33    1
    36     9    34    1
    37    20    35    1
    38    21    36    1
    39     5    37    1
    40     6    38    1
    41     7    39    1
    42    14    40    1
    43    15    41    1
    44    16    42    1
    45    25    43    1
    46    26    44    1
    47    27    45    1
    48    28    46    1
    49    31    47    1
@<TRIPOS>MOLECULE
mol88_2_24
 47 49 0 0 0
SMALL
USER_CHARGES
****
VDW energy = 167.54
@<TRIPOS>ATOM
   1 N1        2.8495    -9.8143    -4.4295  N.pl3   1  <O>11      -0.3543
   2 C1        1.4617   -10.1611    -4.6036  C.ar    1  <O>11       0.0829
   3 C2        0.8050   -10.8783    -3.6012  C.ar    1  <O>11       0.1458
   4 F1        1.4699   -11.2386    -2.4576  F       1  <O>11      -0.2035
   5 C3       -0.5391   -11.2290    -3.7692  C.ar    1  <O>11      -0.0245
   6 C4       -1.2224   -10.8607    -4.9311  C.ar    1  <O>11      -0.0571
   7 C5       -0.5527   -10.1366    -5.9237  C.ar    1  <O>11      -0.0374
   8 C6        0.7874    -9.7806    -5.7650  C.ar    1  <O>11       0.0714
   9 N2        1.4750    -9.0290    -6.7840  N.pl3   1  <O>11      -0.2144
  10 S1        2.7213    -9.7188    -7.6200  S.O2    1  <O>11       0.0724
  11 O1        4.0994    -9.6817    -6.6910  O.2     1  <O>11      -0.1500
  12 O2        2.9809    -8.8725    -9.0257  O.2     1  <O>11      -0.1500
  13 C7        2.3156   -11.3972    -8.0075  C.ar    1  <O>11       0.1092
  14 C8        3.3292   -12.3633    -8.1223  C.ar    1  <O>11      -0.0350
  15 C9        3.0090   -13.6868    -8.4402  C.ar    1  <O>11      -0.0592
  16 C10       1.6785   -14.0596    -8.6426  C.ar    1  <O>11      -0.0495
  17 C11       0.6687   -13.0988    -8.5226  C.ar    1  <O>11       0.0400
  18 C12      -0.7103   -13.4888    -8.7323  C.2     1  <O>11       0.2602
  19 O3       -1.1781   -13.4984    -9.8604  O.2     1  <O>11      -0.2687
  20 N3       -1.4887   -13.8490    -7.6646  N.am    1  <O>11      -0.2301
  21 N4       -2.7969   -14.2200    -7.8625  N.am    1  <O>11      -0.2300
  22 C13      -3.0903   -15.2933    -8.6583  C.2     1  <O>11       0.2629
  23 O4       -2.1896   -15.9226    -9.1939  O.2     1  <O>11      -0.2686
  24 C14      -4.4774   -15.6873    -8.8707  C.ar    1  <O>11       0.0733
  25 C15      -5.1799   -15.2300    -9.9979  C.ar    1  <O>11      -0.0468
  26 C16      -6.5160   -15.6005   -10.1939  C.ar    1  <O>11      -0.0609
  27 C17      -7.1573   -16.4320    -9.2723  C.ar    1  <O>11      -0.0590
  28 C18      -6.4535   -16.8947    -8.1558  C.ar    1  <O>11      -0.0257
  29 C19      -5.1221   -16.5314    -7.9497  C.ar    1  <O>11       0.1355
  30 F2       -4.4298   -16.9889    -6.8582  F       1  <O>11      -0.2047
  31 C20       0.9775   -11.7758    -8.2022  C.ar    1  <O>11      -0.0229
  32 H1        3.3392    -9.2907    -5.1550  H       1  <O>11       0.1425
  33 H2        3.3420   -10.0924    -3.5807  H       1  <O>11       0.1425
  34 H3        1.1919    -8.0715    -6.9905  H       1  <O>11       0.1737
  35 H4       -1.0979   -13.8422    -6.7215  H       1  <O>11       0.1731
  36 H5       -3.5493   -13.6947    -7.4174  H       1  <O>11       0.1731
  37 H6       -1.0275   -11.7615    -3.0324  H       1  <O>11       0.0647
  38 H7       -2.2132   -11.1207    -5.0562  H       1  <O>11       0.0619
  39 H8       -1.0552    -9.8628    -6.7825  H       1  <O>11       0.0637
  40 H9        4.3143   -12.0950    -7.9715  H       1  <O>11       0.0637
  41 H10       3.7589   -14.3908    -8.5255  H       1  <O>11       0.0618
  42 H11       1.4421   -15.0360    -8.8789  H       1  <O>11       0.0625
  43 H12      -4.7098   -14.6188   -10.6839  H       1  <O>11       0.0626
  44 H13      -7.0286   -15.2584   -11.0217  H       1  <O>11       0.0618
  45 H14      -8.1430   -16.7027    -9.4143  H       1  <O>11       0.0618
  46 H15      -6.9246   -17.5122    -7.4762  H       1  <O>11       0.0646
  47 H16       0.2238   -11.0772    -8.1085  H       1  <O>11       0.0645
@<TRIPOS>BOND
     1     1     2    1
     2     2     3   ar
     3     3     4    1
     4     3     5   ar
     5     5     6   ar
     6     6     7   ar
     7     7     8   ar
     8     2     8   ar
     9     8     9    1
    10     9    10    1
    11    10    11    2
    12    10    12    2
    13    10    13    1
    14    13    14   ar
    15    14    15   ar
    16    15    16   ar
    17    16    17   ar
    18    17    18    1
    19    18    19    2
    20    18    20   am
    21    20    21    1
    22    21    22   am
    23    22    23    2
    24    22    24    1
    25    24    25   ar
    26    25    26   ar
    27    26    27   ar
    28    27    28   ar
    29    28    29   ar
    30    24    29   ar
    31    29    30    1
    32    17    31   ar
    33    13    31   ar
    34     1    32    1
    35     1    33    1
    36     9    34    1
    37    20    35    1
    38    21    36    1
    39     5    37    1
    40     6    38    1
    41     7    39    1
    42    14    40    1
    43    15    41    1
    44    16    42    1
    45    25    43    1
    46    26    44    1
    47    27    45    1
    48    28    46    1
    49    31    47    1
@<TRIPOS>MOLECULE
mol88_2_25
 47 49 0 0 0
SMALL
USER_CHARGES
****
VDW energy = 168.62
@<TRIPOS>ATOM
   1 N1        2.8495    -9.8143    -4.4295  N.pl3   1  <O>11      -0.3543
   2 C1        1.4617   -10.1611    -4.6036  C.ar    1  <O>11       0.0829
   3 C2        0.8050   -10.8783    -3.6012  C.ar    1  <O>11       0.1458
   4 F1        1.4699   -11.2386    -2.4576  F       1  <O>11      -0.2035
   5 C3       -0.5391   -11.2290    -3.7692  C.ar    1  <O>11      -0.0245
   6 C4       -1.2224   -10.8607    -4.9311  C.ar    1  <O>11      -0.0571
   7 C5       -0.5527   -10.1366    -5.9237  C.ar    1  <O>11      -0.0374
   8 C6        0.7874    -9.7806    -5.7650  C.ar    1  <O>11       0.0714
   9 N2        1.4750    -9.0290    -6.7840  N.pl3   1  <O>11      -0.2144
  10 S1        2.7213    -9.7188    -7.6200  S.O2    1  <O>11       0.0724
  11 O1        4.0994    -9.6817    -6.6910  O.2     1  <O>11      -0.1500
  12 O2        2.9809    -8.8725    -9.0257  O.2     1  <O>11      -0.1500
  13 C7        2.3156   -11.3972    -8.0075  C.ar    1  <O>11       0.1092
  14 C8        1.1859   -11.6913    -8.7891  C.ar    1  <O>11      -0.0350
  15 C9        0.8592   -13.0183    -9.0850  C.ar    1  <O>11      -0.0592
  16 C10       1.6556   -14.0619    -8.6086  C.ar    1  <O>11      -0.0495
  17 C11       2.7839   -13.7688    -7.8352  C.ar    1  <O>11       0.0400
  18 C12       3.6083   -14.8532    -7.3433  C.2     1  <O>11       0.2602
  19 O3        4.0711   -14.8058    -6.2141  O.2     1  <O>11      -0.2687
  20 N3        3.8667   -15.9333    -8.1448  N.am    1  <O>11      -0.2301
  21 N4        4.6479   -16.9632    -7.6790  N.am    1  <O>11      -0.2300
  22 C13       5.9386   -16.7224    -7.2946  C.2     1  <O>11       0.2629
  23 O4        6.3976   -15.5918    -7.3656  O.2     1  <O>11      -0.2686
  24 C14       6.7693   -17.8139    -6.8019  C.ar    1  <O>11       0.0733
  25 C15       7.6313   -18.4988    -7.6743  C.ar    1  <O>11      -0.0468
  26 C16       8.4201   -19.5546    -7.2010  C.ar    1  <O>11      -0.0609
  27 C17       8.3588   -19.9301    -5.8567  C.ar    1  <O>11      -0.0590
  28 C18       7.5076   -19.2407    -4.9872  C.ar    1  <O>11      -0.0257
  29 C19       6.7164   -18.1876    -5.4476  C.ar    1  <O>11       0.1355
  30 F2        5.8856   -17.5078    -4.5946  F       1  <O>11      -0.2047
  31 C20       3.1206   -12.4473    -7.5372  C.ar    1  <O>11      -0.0229
  32 H1        3.3392    -9.2907    -5.1550  H       1  <O>11       0.1425
  33 H2        3.3420   -10.0924    -3.5807  H       1  <O>11       0.1425
  34 H3        1.1919    -8.0715    -6.9905  H       1  <O>11       0.1737
  35 H4        3.4791   -15.9740    -9.0885  H       1  <O>11       0.1731
  36 H5        4.2665   -17.9073    -7.6209  H       1  <O>11       0.1731
  37 H6       -1.0275   -11.7615    -3.0324  H       1  <O>11       0.0647
  38 H7       -2.2132   -11.1207    -5.0562  H       1  <O>11       0.0619
  39 H8       -1.0552    -9.8628    -6.7825  H       1  <O>11       0.0637
  40 H9        0.5945   -10.9247    -9.1463  H       1  <O>11       0.0637
  41 H10       0.0264   -13.2273    -9.6576  H       1  <O>11       0.0618
  42 H11       1.4138   -15.0415    -8.8255  H       1  <O>11       0.0625
  43 H12       7.6835   -18.2230    -8.6674  H       1  <O>11       0.0626
  44 H13       9.0486   -20.0569    -7.8473  H       1  <O>11       0.0618
  45 H14       8.9372   -20.7103    -5.5080  H       1  <O>11       0.0618
  46 H15       7.4642   -19.5142    -3.9930  H       1  <O>11       0.0646
  47 H16       3.9596   -12.2425    -6.9723  H       1  <O>11       0.0645
@<TRIPOS>BOND
     1     1     2    1
     2     2     3   ar
     3     3     4    1
     4     3     5   ar
     5     5     6   ar
     6     6     7   ar
     7     7     8   ar
     8     2     8   ar
     9     8     9    1
    10     9    10    1
    11    10    11    2
    12    10    12    2
    13    10    13    1
    14    13    14   ar
    15    14    15   ar
    16    15    16   ar
    17    16    17   ar
    18    17    18    1
    19    18    19    2
    20    18    20   am
    21    20    21    1
    22    21    22   am
    23    22    23    2
    24    22    24    1
    25    24    25   ar
    26    25    26   ar
    27    26    27   ar
    28    27    28   ar
    29    28    29   ar
    30    24    29   ar
    31    29    30    1
    32    17    31   ar
    33    13    31   ar
    34     1    32    1
    35     1    33    1
    36     9    34    1
    37    20    35    1
    38    21    36    1
    39     5    37    1
    40     6    38    1
    41     7    39    1
    42    14    40    1
    43    15    41    1
    44    16    42    1
    45    25    43    1
    46    26    44    1
    47    27    45    1
    48    28    46    1
    49    31    47    1
@<TRIPOS>MOLECULE
mol88_2_26
 47 49 0 0 0
SMALL
USER_CHARGES
****
VDW energy = 169.71
@<TRIPOS>ATOM
   1 N1        2.8495    -9.8143    -4.4295  N.pl3   1  <O>11      -0.3543
   2 C1        1.4617   -10.1611    -4.6036  C.ar    1  <O>11       0.0829
   3 C2        0.8050   -10.8783    -3.6012  C.ar    1  <O>11       0.1458
   4 F1        1.4699   -11.2386    -2.4576  F       1  <O>11      -0.2035
   5 C3       -0.5391   -11.2290    -3.7692  C.ar    1  <O>11      -0.0245
   6 C4       -1.2224   -10.8607    -4.9311  C.ar    1  <O>11      -0.0571
   7 C5       -0.5527   -10.1366    -5.9237  C.ar    1  <O>11      -0.0374
   8 C6        0.7874    -9.7806    -5.7650  C.ar    1  <O>11       0.0714
   9 N2        1.4750    -9.0290    -6.7840  N.pl3   1  <O>11      -0.2144
  10 S1        1.2513    -7.3966    -6.8991  S.O2    1  <O>11       0.0724
  11 O1       -0.1883    -7.0876    -7.6708  O.2     1  <O>11      -0.1500
  12 O2        2.4981    -6.7266    -7.7687  O.2     1  <O>11      -0.1500
  13 C7        1.2154    -6.6892    -5.2773  C.ar    1  <O>11       0.1092
  14 C8       -0.0101    -6.4709    -4.6260  C.ar    1  <O>11      -0.0350
  15 C9       -0.0384    -5.9010    -3.3494  C.ar    1  <O>11      -0.0592
  16 C10       1.1518    -5.5474    -2.7102  C.ar    1  <O>11      -0.0495
  17 C11       2.3725    -5.7701    -3.3565  C.ar    1  <O>11       0.0400
  18 C12       3.6052    -5.4031    -2.6907  C.2     1  <O>11       0.2602
  19 O3        3.5732    -4.9065    -1.5754  O.2     1  <O>11      -0.2687
  20 N3        4.8072    -5.6156    -3.3119  N.am    1  <O>11      -0.2301
  21 N4        5.9774    -5.2687    -2.6808  N.am    1  <O>11      -0.2300
  22 C13       6.3018    -5.8388    -1.4803  C.2     1  <O>11       0.2629
  23 O4        5.5513    -6.6565    -0.9683  O.2     1  <O>11      -0.2686
  24 C14       7.5418    -5.4708    -0.8086  C.ar    1  <O>11       0.0733
  25 C15       8.4085    -4.5281    -1.3862  C.ar    1  <O>11      -0.0468
  26 C16       9.6049    -4.1846    -0.7445  C.ar    1  <O>11      -0.0609
  27 C17       9.9415    -4.7732     0.4770  C.ar    1  <O>11      -0.0590
  28 C18       9.0729    -5.7040     1.0557  C.ar    1  <O>11      -0.0257
  29 C19       7.8785    -6.0547     0.4252  C.ar    1  <O>11       0.1355
  30 F2        7.0238    -6.9632     0.9945  F       1  <O>11      -0.2047
  31 C20       2.4117    -6.3417    -4.6293  C.ar    1  <O>11      -0.0229
  32 H1        3.3392    -9.2907    -5.1550  H       1  <O>11       0.1425
  33 H2        3.3420   -10.0924    -3.5807  H       1  <O>11       0.1425
  34 H3        2.1010    -9.5040    -7.4337  H       1  <O>11       0.1737
  35 H4        4.8346    -6.0318    -4.2437  H       1  <O>11       0.1731
  36 H5        6.6036    -4.5852    -3.1063  H       1  <O>11       0.1731
  37 H6       -1.0275   -11.7615    -3.0324  H       1  <O>11       0.0647
  38 H7       -2.2132   -11.1207    -5.0562  H       1  <O>11       0.0619
  39 H8       -1.0552    -9.8628    -6.7825  H       1  <O>11       0.0637
  40 H9       -0.8932    -6.7322    -5.0917  H       1  <O>11       0.0637
  41 H10      -0.9423    -5.7411    -2.8778  H       1  <O>11       0.0618
  42 H11       1.1311    -5.1252    -1.7688  H       1  <O>11       0.0625
  43 H12       8.1628    -4.0873    -2.2864  H       1  <O>11       0.0626
  44 H13      10.2398    -3.4944    -1.1753  H       1  <O>11       0.0618
  45 H14      10.8247    -4.5230     0.9487  H       1  <O>11       0.0618
  46 H15       9.3182    -6.1367     1.9600  H       1  <O>11       0.0646
  47 H16       3.3183    -6.5086    -5.0933  H       1  <O>11       0.0645
@<TRIPOS>BOND
     1     1     2    1
     2     2     3   ar
     3     3     4    1
     4     3     5   ar
     5     5     6   ar
     6     6     7   ar
     7     7     8   ar
     8     2     8   ar
     9     8     9    1
    10     9    10    1
    11    10    11    2
    12    10    12    2
    13    10    13    1
    14    13    14   ar
    15    14    15   ar
    16    15    16   ar
    17    16    17   ar
    18    17    18    1
    19    18    19    2
    20    18    20   am
    21    20    21    1
    22    21    22   am
    23    22    23    2
    24    22    24    1
    25    24    25   ar
    26    25    26   ar
    27    26    27   ar
    28    27    28   ar
    29    28    29   ar
    30    24    29   ar
    31    29    30    1
    32    17    31   ar
    33    13    31   ar
    34     1    32    1
    35     1    33    1
    36     9    34    1
    37    20    35    1
    38    21    36    1
    39     5    37    1
    40     6    38    1
    41     7    39    1
    42    14    40    1
    43    15    41    1
    44    16    42    1
    45    25    43    1
    46    26    44    1
    47    27    45    1
    48    28    46    1
    49    31    47    1
@<TRIPOS>MOLECULE
mol88_2_27
 47 49 0 0 0
SMALL
USER_CHARGES
****
VDW energy = 170.69
@<TRIPOS>ATOM
   1 N1        2.8495    -9.8143    -4.4295  N.pl3   1  <O>11      -0.3543
   2 C1        1.4617   -10.1611    -4.6036  C.ar    1  <O>11       0.0829
   3 C2        0.8050   -10.8783    -3.6012  C.ar    1  <O>11       0.1458
   4 F1        1.4699   -11.2386    -2.4576  F       1  <O>11      -0.2035
   5 C3       -0.5391   -11.2290    -3.7692  C.ar    1  <O>11      -0.0245
   6 C4       -1.2224   -10.8607    -4.9311  C.ar    1  <O>11      -0.0571
   7 C5       -0.5527   -10.1366    -5.9237  C.ar    1  <O>11      -0.0374
   8 C6        0.7874    -9.7806    -5.7650  C.ar    1  <O>11       0.0714
   9 N2        1.4750    -9.0290    -6.7840  N.pl3   1  <O>11      -0.2144
  10 S1        1.2513    -7.3966    -6.8991  S.O2    1  <O>11       0.0724
  11 O1       -0.1883    -7.0876    -7.6708  O.2     1  <O>11      -0.1500
  12 O2        2.4981    -6.7266    -7.7687  O.2     1  <O>11      -0.1500
  13 C7        1.2154    -6.6892    -5.2773  C.ar    1  <O>11       0.1092
  14 C8       -0.0101    -6.4709    -4.6260  C.ar    1  <O>11      -0.0350
  15 C9       -0.0384    -5.9010    -3.3494  C.ar    1  <O>11      -0.0592
  16 C10       1.1518    -5.5474    -2.7102  C.ar    1  <O>11      -0.0495
  17 C11       2.3725    -5.7701    -3.3565  C.ar    1  <O>11       0.0400
  18 C12       3.6052    -5.4031    -2.6907  C.2     1  <O>11       0.2602
  19 O3        3.5732    -4.9065    -1.5754  O.2     1  <O>11      -0.2687
  20 N3        4.8072    -5.6156    -3.3119  N.am    1  <O>11      -0.2301
  21 N4        5.9774    -5.2687    -2.6808  N.am    1  <O>11      -0.2300
  22 C13       6.1993    -3.9683    -2.3185  C.2     1  <O>11       0.2629
  23 O4        5.3575    -3.1145    -2.5561  O.2     1  <O>11      -0.2686
  24 C14       7.4407    -3.5981    -1.6506  C.ar    1  <O>11       0.0733
  25 C15       8.4167    -4.5709    -1.3778  C.ar    1  <O>11      -0.0468
  26 C16       9.6037    -4.2150    -0.7257  C.ar    1  <O>11      -0.0609
  27 C17       9.8273    -2.8889    -0.3471  C.ar    1  <O>11      -0.0590
  28 C18       8.8591    -1.9197    -0.6284  C.ar    1  <O>11      -0.0257
  29 C19       7.6722    -2.2627    -1.2769  C.ar    1  <O>11       0.1355
  30 F2        6.7248    -1.3122    -1.5577  F       1  <O>11      -0.2047
  31 C20       2.4117    -6.3417    -4.6293  C.ar    1  <O>11      -0.0229
  32 H1        3.3392    -9.2907    -5.1550  H       1  <O>11       0.1425
  33 H2        3.3420   -10.0924    -3.5807  H       1  <O>11       0.1425
  34 H3        2.1010    -9.5040    -7.4337  H       1  <O>11       0.1737
  35 H4        4.8346    -6.0318    -4.2437  H       1  <O>11       0.1731
  36 H5        6.6812    -5.9800    -2.4835  H       1  <O>11       0.1731
  37 H6       -1.0275   -11.7615    -3.0324  H       1  <O>11       0.0647
  38 H7       -2.2132   -11.1207    -5.0562  H       1  <O>11       0.0619
  39 H8       -1.0552    -9.8628    -6.7825  H       1  <O>11       0.0637
  40 H9       -0.8932    -6.7322    -5.0917  H       1  <O>11       0.0637
  41 H10      -0.9423    -5.7411    -2.8778  H       1  <O>11       0.0618
  42 H11       1.1311    -5.1252    -1.7688  H       1  <O>11       0.0625
  43 H12       8.2584    -5.5512    -1.6589  H       1  <O>11       0.0626
  44 H13      10.3156    -4.9344    -0.5242  H       1  <O>11       0.0618
  45 H14      10.7003    -2.6265     0.1366  H       1  <O>11       0.0618
  46 H15       9.0245    -0.9389    -0.3529  H       1  <O>11       0.0646
  47 H16       3.3183    -6.5086    -5.0933  H       1  <O>11       0.0645
@<TRIPOS>BOND
     1     1     2    1
     2     2     3   ar
     3     3     4    1
     4     3     5   ar
     5     5     6   ar
     6     6     7   ar
     7     7     8   ar
     8     2     8   ar
     9     8     9    1
    10     9    10    1
    11    10    11    2
    12    10    12    2
    13    10    13    1
    14    13    14   ar
    15    14    15   ar
    16    15    16   ar
    17    16    17   ar
    18    17    18    1
    19    18    19    2
    20    18    20   am
    21    20    21    1
    22    21    22   am
    23    22    23    2
    24    22    24    1
    25    24    25   ar
    26    25    26   ar
    27    26    27   ar
    28    27    28   ar
    29    28    29   ar
    30    24    29   ar
    31    29    30    1
    32    17    31   ar
    33    13    31   ar
    34     1    32    1
    35     1    33    1
    36     9    34    1
    37    20    35    1
    38    21    36    1
    39     5    37    1
    40     6    38    1
    41     7    39    1
    42    14    40    1
    43    15    41    1
    44    16    42    1
    45    25    43    1
    46    26    44    1
    47    27    45    1
    48    28    46    1
    49    31    47    1
@<TRIPOS>MOLECULE
mol88_2_28
 47 49 0 0 0
SMALL
USER_CHARGES
****
VDW energy = 171.92
@<TRIPOS>ATOM
   1 N1        2.8495    -9.8143    -4.4295  N.pl3   1  <O>11      -0.3543
   2 C1        1.4617   -10.1611    -4.6036  C.ar    1  <O>11       0.0829
   3 C2        0.8050   -10.8783    -3.6012  C.ar    1  <O>11       0.1458
   4 F1        1.4699   -11.2386    -2.4576  F       1  <O>11      -0.2035
   5 C3       -0.5391   -11.2290    -3.7692  C.ar    1  <O>11      -0.0245
   6 C4       -1.2224   -10.8607    -4.9311  C.ar    1  <O>11      -0.0571
   7 C5       -0.5527   -10.1366    -5.9237  C.ar    1  <O>11      -0.0374
   8 C6        0.7874    -9.7806    -5.7650  C.ar    1  <O>11       0.0714
   9 N2        1.4750    -9.0290    -6.7840  N.pl3   1  <O>11      -0.2144
  10 S1        1.9945    -7.4931    -6.4688  S.O2    1  <O>11       0.0724
  11 O1        3.0652    -7.5203    -5.1975  O.2     1  <O>11      -0.1500
  12 O2        0.6936    -6.5386    -6.0738  O.2     1  <O>11      -0.1500
  13 C7        2.7966    -6.8347    -7.9023  C.ar    1  <O>11       0.1092
  14 C8        4.1928    -6.9180    -8.0346  C.ar    1  <O>11      -0.0350
  15 C9        4.8271    -6.3871    -9.1620  C.ar    1  <O>11      -0.0592
  16 C10       4.0772    -5.7726   -10.1671  C.ar    1  <O>11      -0.0495
  17 C11       2.6864    -5.6947   -10.0380  C.ar    1  <O>11       0.0400
  18 C12       1.9113    -5.0576   -11.0825  C.2     1  <O>11       0.2602
  19 O3        1.7447    -3.8478   -11.0687  O.2     1  <O>11      -0.2687
  20 N3        1.3673    -5.8127   -12.0873  N.am    1  <O>11      -0.2301
  21 N4        0.6326    -5.2092   -13.0794  N.am    1  <O>11      -0.2300
  22 C13       1.2093    -4.2566   -13.8740  C.2     1  <O>11       0.2629
  23 O4        2.3777    -3.9415   -13.7020  O.2     1  <O>11      -0.2686
  24 C14       0.4310    -3.6142   -14.9256  C.ar    1  <O>11       0.0733
  25 C15      -0.2067    -2.3857   -14.6862  C.ar    1  <O>11      -0.0468
  26 C16      -0.9633    -1.7759   -15.6945  C.ar    1  <O>11      -0.0609
  27 C17      -1.0843    -2.3830   -16.9470  C.ar    1  <O>11      -0.0590
  28 C18      -0.4405    -3.6011   -17.1871  C.ar    1  <O>11      -0.0257
  29 C19       0.3154    -4.2184   -16.1898  C.ar    1  <O>11       0.1355
  30 F2        0.9512    -5.4100   -16.4260  F       1  <O>11      -0.2047
  31 C20       2.0433    -6.2248    -8.9183  C.ar    1  <O>11      -0.0229
  32 H1        3.3392    -9.2907    -5.1550  H       1  <O>11       0.1425
  33 H2        3.3420   -10.0924    -3.5807  H       1  <O>11       0.1425
  34 H3        1.6424    -9.4451    -7.6996  H       1  <O>11       0.1737
  35 H4        1.5072    -6.8239   -12.1001  H       1  <O>11       0.1731
  36 H5       -0.3429    -5.4702   -13.2226  H       1  <O>11       0.1731
  37 H6       -1.0275   -11.7615    -3.0324  H       1  <O>11       0.0647
  38 H7       -2.2132   -11.1207    -5.0562  H       1  <O>11       0.0619
  39 H8       -1.0552    -9.8628    -6.7825  H       1  <O>11       0.0637
  40 H9        4.7526    -7.3730    -7.2967  H       1  <O>11       0.0637
  41 H10       5.8533    -6.4495    -9.2515  H       1  <O>11       0.0618
  42 H11       4.5453    -5.3791   -10.9984  H       1  <O>11       0.0625
  43 H12      -0.1173    -1.9309   -13.7641  H       1  <O>11       0.0626
  44 H13      -1.4329    -0.8754   -15.5119  H       1  <O>11       0.0618
  45 H14      -1.6445    -1.9359   -17.6894  H       1  <O>11       0.0618
  46 H15      -0.5256    -4.0489   -18.1130  H       1  <O>11       0.0646
  47 H16       1.0160    -6.1687    -8.8373  H       1  <O>11       0.0645
@<TRIPOS>BOND
     1     1     2    1
     2     2     3   ar
     3     3     4    1
     4     3     5   ar
     5     5     6   ar
     6     6     7   ar
     7     7     8   ar
     8     2     8   ar
     9     8     9    1
    10     9    10    1
    11    10    11    2
    12    10    12    2
    13    10    13    1
    14    13    14   ar
    15    14    15   ar
    16    15    16   ar
    17    16    17   ar
    18    17    18    1
    19    18    19    2
    20    18    20   am
    21    20    21    1
    22    21    22   am
    23    22    23    2
    24    22    24    1
    25    24    25   ar
    26    25    26   ar
    27    26    27   ar
    28    27    28   ar
    29    28    29   ar
    30    24    29   ar
    31    29    30    1
    32    17    31   ar
    33    13    31   ar
    34     1    32    1
    35     1    33    1
    36     9    34    1
    37    20    35    1
    38    21    36    1
    39     5    37    1
    40     6    38    1
    41     7    39    1
    42    14    40    1
    43    15    41    1
    44    16    42    1
    45    25    43    1
    46    26    44    1
    47    27    45    1
    48    28    46    1
    49    31    47    1
@<TRIPOS>MOLECULE
mol88_2_29
 47 49 0 0 0
SMALL
USER_CHARGES
****
VDW energy = 174.36
@<TRIPOS>ATOM
   1 N1        2.8495    -9.8143    -4.4295  N.pl3   1  <O>11      -0.3543
   2 C1        1.4617   -10.1611    -4.6036  C.ar    1  <O>11       0.0829
   3 C2        0.8050   -10.8783    -3.6012  C.ar    1  <O>11       0.1458
   4 F1        1.4699   -11.2386    -2.4576  F       1  <O>11      -0.2035
   5 C3       -0.5391   -11.2290    -3.7692  C.ar    1  <O>11      -0.0245
   6 C4       -1.2224   -10.8607    -4.9311  C.ar    1  <O>11      -0.0571
   7 C5       -0.5527   -10.1366    -5.9237  C.ar    1  <O>11      -0.0374
   8 C6        0.7874    -9.7806    -5.7650  C.ar    1  <O>11       0.0714
   9 N2        1.4750    -9.0290    -6.7840  N.pl3   1  <O>11      -0.2144
  10 S1        2.7213    -9.7188    -7.6200  S.O2    1  <O>11       0.0724
  11 O1        4.0994    -9.6817    -6.6910  O.2     1  <O>11      -0.1500
  12 O2        2.9809    -8.8725    -9.0257  O.2     1  <O>11      -0.1500
  13 C7        2.3156   -11.3972    -8.0075  C.ar    1  <O>11       0.1092
  14 C8        2.7444   -12.4415    -7.1712  C.ar    1  <O>11      -0.0350
  15 C9        2.4336   -13.7684    -7.4842  C.ar    1  <O>11      -0.0592
  16 C10       1.6914   -14.0658    -8.6292  C.ar    1  <O>11      -0.0495
  17 C11       1.2596   -13.0255    -9.4589  C.ar    1  <O>11       0.0400
  18 C12       0.4893   -13.3371   -10.6452  C.2     1  <O>11       0.2602
  19 O3        1.0595   -13.6172   -11.6883  O.2     1  <O>11      -0.2687
  20 N3       -0.8792   -13.3196   -10.5958  N.am    1  <O>11      -0.2301
  21 N4       -1.6111   -13.6160   -11.7204  N.am    1  <O>11      -0.2300
  22 C13      -1.4769   -14.8377   -12.3211  C.2     1  <O>11       0.2629
  23 O4       -0.7062   -15.6660   -11.8584  O.2     1  <O>11      -0.2686
  24 C14      -2.2511   -15.1532   -13.5150  C.ar    1  <O>11       0.0733
  25 C15      -3.1355   -14.2063   -14.0575  C.ar    1  <O>11      -0.0468
  26 C16      -3.8868   -14.5158   -15.1980  C.ar    1  <O>11      -0.0609
  27 C17      -3.7574   -15.7666   -15.8069  C.ar    1  <O>11      -0.0590
  28 C18      -2.8689   -16.7046   -15.2715  C.ar    1  <O>11      -0.0257
  29 C19      -2.1158   -16.4077   -14.1350  C.ar    1  <O>11       0.1355
  30 F2       -1.2406   -17.3248   -13.6126  F       1  <O>11      -0.2047
  31 C20       1.5615   -11.6974    -9.1533  C.ar    1  <O>11      -0.0229
  32 H1        3.3392    -9.2907    -5.1550  H       1  <O>11       0.1425
  33 H2        3.3420   -10.0924    -3.5807  H       1  <O>11       0.1425
  34 H3        1.1919    -8.0715    -6.9905  H       1  <O>11       0.1737
  35 H4       -1.3564   -13.0866    -9.7238  H       1  <O>11       0.1731
  36 H5       -2.2532   -12.9250   -12.1082  H       1  <O>11       0.1731
  37 H6       -1.0275   -11.7615    -3.0324  H       1  <O>11       0.0647
  38 H7       -2.2132   -11.1207    -5.0562  H       1  <O>11       0.0619
  39 H8       -1.0552    -9.8628    -6.7825  H       1  <O>11       0.0637
  40 H9        3.2911   -12.2285    -6.3222  H       1  <O>11       0.0637
  41 H10       2.7539   -14.5308    -6.8668  H       1  <O>11       0.0618
  42 H11       1.4634   -15.0452    -8.8614  H       1  <O>11       0.0625
  43 H12      -3.2320   -13.2794   -13.6141  H       1  <O>11       0.0626
  44 H13      -4.5380   -13.8178   -15.5900  H       1  <O>11       0.0618
  45 H14      -4.3132   -15.9966   -16.6454  H       1  <O>11       0.0618
  46 H15      -2.7692   -17.6275   -15.7225  H       1  <O>11       0.0646
  47 H16       1.2311   -10.9375    -9.7684  H       1  <O>11       0.0645
@<TRIPOS>BOND
     1     1     2    1
     2     2     3   ar
     3     3     4    1
     4     3     5   ar
     5     5     6   ar
     6     6     7   ar
     7     7     8   ar
     8     2     8   ar
     9     8     9    1
    10     9    10    1
    11    10    11    2
    12    10    12    2
    13    10    13    1
    14    13    14   ar
    15    14    15   ar
    16    15    16   ar
    17    16    17   ar
    18    17    18    1
    19    18    19    2
    20    18    20   am
    21    20    21    1
    22    21    22   am
    23    22    23    2
    24    22    24    1
    25    24    25   ar
    26    25    26   ar
    27    26    27   ar
    28    27    28   ar
    29    28    29   ar
    30    24    29   ar
    31    29    30    1
    32    17    31   ar
    33    13    31   ar
    34     1    32    1
    35     1    33    1
    36     9    34    1
    37    20    35    1
    38    21    36    1
    39     5    37    1
    40     6    38    1
    41     7    39    1
    42    14    40    1
    43    15    41    1
    44    16    42    1
    45    25    43    1
    46    26    44    1
    47    27    45    1
    48    28    46    1
    49    31    47    1
@<TRIPOS>MOLECULE
mol88_2_30
 47 49 0 0 0
SMALL
USER_CHARGES
****
VDW energy = 174.88
@<TRIPOS>ATOM
   1 N1        2.8495    -9.8143    -4.4295  N.pl3   1  <O>11      -0.3543
   2 C1        1.4617   -10.1611    -4.6036  C.ar    1  <O>11       0.0829
   3 C2        0.8050   -10.8783    -3.6012  C.ar    1  <O>11       0.1458
   4 F1        1.4699   -11.2386    -2.4576  F       1  <O>11      -0.2035
   5 C3       -0.5391   -11.2290    -3.7692  C.ar    1  <O>11      -0.0245
   6 C4       -1.2224   -10.8607    -4.9311  C.ar    1  <O>11      -0.0571
   7 C5       -0.5527   -10.1366    -5.9237  C.ar    1  <O>11      -0.0374
   8 C6        0.7874    -9.7806    -5.7650  C.ar    1  <O>11       0.0714
   9 N2        1.4750    -9.0290    -6.7840  N.pl3   1  <O>11      -0.2144
  10 S1        2.7213    -9.7188    -7.6200  S.O2    1  <O>11       0.0724
  11 O1        2.1725   -11.0699    -8.4180  O.2     1  <O>11      -0.1500
  12 O2        3.9245   -10.1547    -6.5608  O.2     1  <O>11      -0.1500
  13 C7        3.3595    -8.5584    -8.7938  C.ar    1  <O>11       0.1092
  14 C8        2.9057    -8.5724   -10.1233  C.ar    1  <O>11      -0.0350
  15 C9        3.4190    -7.6629   -11.0532  C.ar    1  <O>11      -0.0592
  16 C10       4.3846    -6.7310   -10.6666  C.ar    1  <O>11      -0.0495
  17 C11       4.8323    -6.7133    -9.3413  C.ar    1  <O>11       0.0400
  18 C12       5.8331    -5.7450    -8.9433  C.2     1  <O>11       0.2602
  19 O3        7.0192    -5.9949    -9.0932  O.2     1  <O>11      -0.2687
  20 N3        5.4484    -4.5479    -8.4006  N.am    1  <O>11      -0.2301
  21 N4        6.3970    -3.6281    -8.0234  N.am    1  <O>11      -0.2300
  22 C13       7.2673    -3.1241    -8.9508  C.2     1  <O>11       0.2629
  23 O4        7.2020    -3.4915   -10.1148  O.2     1  <O>11      -0.2686
  24 C14       8.2752    -2.1496    -8.5522  C.ar    1  <O>11       0.0733
  25 C15       9.5729    -2.2126    -9.0866  C.ar    1  <O>11      -0.0468
  26 C16      10.5429    -1.2822    -8.6935  C.ar    1  <O>11      -0.0609
  27 C17      10.2247    -0.2820    -7.7714  C.ar    1  <O>11      -0.0590
  28 C18       8.9295    -0.2145    -7.2480  C.ar    1  <O>11      -0.0257
  29 C19       7.9550    -1.1365    -7.6316  C.ar    1  <O>11       0.1355
  30 F2        6.6836    -1.0678    -7.1229  F       1  <O>11      -0.2047
  31 C20       4.3236    -7.6145    -8.4046  C.ar    1  <O>11      -0.0229
  32 H1        3.3392    -9.2907    -5.1550  H       1  <O>11       0.1425
  33 H2        3.3420   -10.0924    -3.5807  H       1  <O>11       0.1425
  34 H3        1.1919    -8.0715    -6.9905  H       1  <O>11       0.1737
  35 H4        4.4570    -4.3380    -8.2760  H       1  <O>11       0.1731
  36 H5        6.4535    -3.3221    -7.0522  H       1  <O>11       0.1731
  37 H6       -1.0275   -11.7615    -3.0324  H       1  <O>11       0.0647
  38 H7       -2.2132   -11.1207    -5.0562  H       1  <O>11       0.0619
  39 H8       -1.0552    -9.8628    -6.7825  H       1  <O>11       0.0637
  40 H9        2.1905    -9.2568   -10.4150  H       1  <O>11       0.0637
  41 H10       3.0830    -7.6805   -12.0288  H       1  <O>11       0.0618
  42 H11       4.7648    -6.0608   -11.3531  H       1  <O>11       0.0625
  43 H12       9.8122    -2.9469    -9.7711  H       1  <O>11       0.0626
  44 H13      11.4957    -1.3355    -9.0862  H       1  <O>11       0.0618
  45 H14      10.9400     0.4018    -7.4787  H       1  <O>11       0.0618
  46 H15       8.6918     0.5262    -6.5698  H       1  <O>11       0.0646
  47 H16       4.6554    -7.5872    -7.4278  H       1  <O>11       0.0645
@<TRIPOS>BOND
     1     1     2    1
     2     2     3   ar
     3     3     4    1
     4     3     5   ar
     5     5     6   ar
     6     6     7   ar
     7     7     8   ar
     8     2     8   ar
     9     8     9    1
    10     9    10    1
    11    10    11    2
    12    10    12    2
    13    10    13    1
    14    13    14   ar
    15    14    15   ar
    16    15    16   ar
    17    16    17   ar
    18    17    18    1
    19    18    19    2
    20    18    20   am
    21    20    21    1
    22    21    22   am
    23    22    23    2
    24    22    24    1
    25    24    25   ar
    26    25    26   ar
    27    26    27   ar
    28    27    28   ar
    29    28    29   ar
    30    24    29   ar
    31    29    30    1
    32    17    31   ar
    33    13    31   ar
    34     1    32    1
    35     1    33    1
    36     9    34    1
    37    20    35    1
    38    21    36    1
    39     5    37    1
    40     6    38    1
    41     7    39    1
    42    14    40    1
    43    15    41    1
    44    16    42    1
    45    25    43    1
    46    26    44    1
    47    27    45    1
    48    28    46    1
    49    31    47    1
