@<TRIPOS>MOLECULE
mol81_1_1
 47 50 0 0 0
SMALL
USER_CHARGES
****
VDW energy = -112.42
@<TRIPOS>ATOM
   1 O1        3.4420    -9.1855    -5.2979  O.2     1  <O>11      -0.2451
   2 C1        2.8552    -9.8129    -4.4288  C.2     1  <O>11       0.3375
   3 O2        3.5096   -10.1823    -3.3012  O.3     1  <O>11      -0.4771
   4 C2        1.4620   -10.1610    -4.6040  C.ar    1  <O>11       0.0709
   5 C3        1.1317   -11.3710    -5.2192  C.ar    1  <O>11      -0.0470
   6 C4       -0.2136   -11.7087    -5.4033  C.ar    1  <O>11      -0.0609
   7 C5       -1.2215   -10.8431    -4.9705  C.ar    1  <O>11      -0.0610
   8 C6       -0.8757    -9.6378    -4.3497  C.ar    1  <O>11      -0.0488
   9 C7        0.4633    -9.2929    -4.1603  C.ar    1  <O>11       0.0510
  10 C8        0.8223    -8.0499    -3.5110  C.2     1  <O>11       0.2490
  11 O3        1.8917    -7.9506    -2.9297  O.2     1  <O>11      -0.2698
  12 N1       -0.0374    -6.9850    -3.5499  N.am    1  <O>11      -0.2815
  13 C9        0.3086    -5.7861    -2.9249  C.ar    1  <O>11       0.0339
  14 C10       0.5586    -5.7542    -1.5430  C.ar    1  <O>11      -0.0405
  15 C11       0.8932    -4.5493    -0.9146  C.ar    1  <O>11      -0.0597
  16 C12       0.9865    -3.3702    -1.6587  C.ar    1  <O>11      -0.0581
  17 C13       0.7441    -3.4049    -3.0362  C.ar    1  <O>11      -0.0398
  18 C14       0.8453    -2.1572    -3.8177  C.3     1  <O>11       0.0172
  19 C15       2.2207    -1.6077    -3.6989  C.ar    1  <O>11       0.0736
  20 N2        2.5275    -0.7132    -2.6677  N.ar    1  <O>11      -0.1750
  21 N3        3.7441    -0.1235    -2.6070  N.ar    1  <O>11      -0.2425
  22 C16       4.6674    -0.4215    -3.5522  C.ar    1  <O>11       0.2725
  23 O4        5.8758     0.2983    -3.4888  O.2     1  <O>11      -0.2658
  24 C17       4.4758    -1.3821    -4.5548  C.ar    1  <O>11       0.0496
  25 C18       5.4587    -1.7358    -5.5079  C.ar    1  <O>11      -0.0487
  26 C19       5.1911    -2.6793    -6.4998  C.ar    1  <O>11      -0.0610
  27 C20       3.9378    -3.2787    -6.5670  C.ar    1  <O>11      -0.0611
  28 C21       2.9541    -2.9362    -5.6404  C.ar    1  <O>11      -0.0521
  29 C22       3.2089    -1.9897    -4.6219  C.ar    1  <O>11       0.0106
  30 C23       0.4100    -4.6011    -3.6722  C.ar    1  <O>11      -0.0369
  31 H1        2.9041   -10.6687    -2.7201  H       1  <O>11       0.2954
  32 H2       -0.9298    -7.0670    -4.0365  H       1  <O>11       0.1551
  33 H3        0.1297    -1.4295    -3.4348  H       1  <O>11       0.0377
  34 H4        0.6258    -2.3656    -4.8657  H       1  <O>11       0.0377
  35 H5        3.9592     0.5290    -1.8674  H       1  <O>11       0.1921
  36 H6        1.8757   -12.0122    -5.5360  H       1  <O>11       0.0626
  37 H7       -0.4623   -12.5999    -5.8602  H       1  <O>11       0.0618
  38 H8       -2.2138   -11.0911    -5.1078  H       1  <O>11       0.0618
  39 H9       -1.6184    -8.9973    -4.0287  H       1  <O>11       0.0625
  40 H10       0.4953    -6.6226    -0.9889  H       1  <O>11       0.0636
  41 H11       1.0716    -4.5314     0.1017  H       1  <O>11       0.0618
  42 H12       1.2321    -2.4810    -1.1960  H       1  <O>11       0.0620
  43 H13       6.3882    -1.2890    -5.4691  H       1  <O>11       0.0625
  44 H14       5.9220    -2.9323    -7.1829  H       1  <O>11       0.0618
  45 H15       3.7365    -3.9755    -7.3012  H       1  <O>11       0.0618
  46 H16       2.0247    -3.3809    -5.6990  H       1  <O>11       0.0624
  47 H17       0.2376    -4.6152    -4.6896  H       1  <O>11       0.0639
@<TRIPOS>BOND
     1     1     2    2
     2     2     3    1
     3     2     4    1
     4     4     5   ar
     5     5     6   ar
     6     6     7   ar
     7     7     8   ar
     8     8     9   ar
     9     4     9   ar
    10     9    10    1
    11    10    11    2
    12    10    12   am
    13    12    13    1
    14    13    14   ar
    15    14    15   ar
    16    15    16   ar
    17    16    17   ar
    18    17    18    1
    19    18    19    1
    20    19    20   ar
    21    20    21   ar
    22    21    22   ar
    23    22    23    2
    24    22    24   ar
    25    24    25   ar
    26    25    26   ar
    27    26    27   ar
    28    27    28   ar
    29    28    29   ar
    30    19    29   ar
    31    24    29   ar
    32    17    30   ar
    33    13    30   ar
    34     3    31    1
    35    12    32    1
    36    18    33    1
    37    18    34    1
    38    21    35    1
    39     5    36    1
    40     6    37    1
    41     7    38    1
    42     8    39    1
    43    14    40    1
    44    15    41    1
    45    16    42    1
    46    25    43    1
    47    26    44    1
    48    27    45    1
    49    28    46    1
    50    30    47    1
@<TRIPOS>MOLECULE
mol81_1_2
 47 50 0 0 0
SMALL
USER_CHARGES
****
VDW energy = -108.73
@<TRIPOS>ATOM
   1 O1        3.4420    -9.1855    -5.2979  O.2     1  <O>11      -0.2451
   2 C1        2.8552    -9.8129    -4.4288  C.2     1  <O>11       0.3375
   3 O2        3.5096   -10.1823    -3.3012  O.3     1  <O>11      -0.4771
   4 C2        1.4620   -10.1610    -4.6040  C.ar    1  <O>11       0.0709
   5 C3        0.5927    -9.2326    -5.1822  C.ar    1  <O>11      -0.0470
   6 C4       -0.7586    -9.5576    -5.3434  C.ar    1  <O>11      -0.0609
   7 C5       -1.2358   -10.8050    -4.9328  C.ar    1  <O>11      -0.0610
   8 C6       -0.3521   -11.7274    -4.3617  C.ar    1  <O>11      -0.0488
   9 C7        0.9977   -11.4130    -4.1980  C.ar    1  <O>11       0.0510
  10 C8        1.9146   -12.3694    -3.6147  C.2     1  <O>11       0.2490
  11 O3        2.0942   -12.3857    -2.4069  O.2     1  <O>11      -0.2698
  12 N1        2.5794   -13.2569    -4.4180  N.am    1  <O>11      -0.2815
  13 C9        3.4627   -14.1797    -3.8560  C.ar    1  <O>11       0.0339
  14 C10       4.5794   -13.7383    -3.1272  C.ar    1  <O>11      -0.0405
  15 C11       5.4718   -14.6641    -2.5748  C.ar    1  <O>11      -0.0597
  16 C12       5.2548   -16.0347    -2.7395  C.ar    1  <O>11      -0.0581
  17 C13       4.1382   -16.4729    -3.4596  C.ar    1  <O>11      -0.0398
  18 C14       3.9130   -17.9215    -3.6294  C.3     1  <O>11       0.0172
  19 C15       5.0702   -18.5232    -4.3412  C.ar    1  <O>11       0.0736
  20 N2        6.1055   -17.7045    -4.8055  N.ar    1  <O>11      -0.1750
  21 N3        7.1132   -18.2221    -5.5458  N.ar    1  <O>11      -0.2425
  22 C16       7.1135   -19.5485    -5.8206  C.ar    1  <O>11       0.2725
  23 O4        8.1346   -20.0054    -6.6755  O.2     1  <O>11      -0.2658
  24 C17       6.1726   -20.4518    -5.3075  C.ar    1  <O>11       0.0496
  25 C18       6.2035   -21.8452    -5.5466  C.ar    1  <O>11      -0.0487
  26 C19       5.2166   -22.6849    -5.0302  C.ar    1  <O>11      -0.0610
  27 C20       4.1764   -22.1514    -4.2767  C.ar    1  <O>11      -0.0611
  28 C21       4.1256   -20.7787    -4.0378  C.ar    1  <O>11      -0.0521
  29 C22       5.1214   -19.9126    -4.5440  C.ar    1  <O>11       0.0106
  30 C23       3.2426   -15.5580    -4.0143  C.ar    1  <O>11      -0.0369
  31 H1        2.9041   -10.6687    -2.7201  H       1  <O>11       0.2954
  32 H2        2.4284   -13.2446    -5.4264  H       1  <O>11       0.1551
  33 H3        3.0055   -18.0824    -4.2116  H       1  <O>11       0.0377
  34 H4        3.8042   -18.3899    -2.6504  H       1  <O>11       0.0377
  35 H5        7.8537   -17.6273    -5.8877  H       1  <O>11       0.1921
  36 H6        0.9453    -8.3124    -5.4886  H       1  <O>11       0.0626
  37 H7       -1.4050    -8.8737    -5.7669  H       1  <O>11       0.0618
  38 H8       -2.2328   -11.0443    -5.0499  H       1  <O>11       0.0618
  39 H9       -0.7021   -12.6495    -4.0583  H       1  <O>11       0.0625
  40 H10       4.7426   -12.7274    -2.9987  H       1  <O>11       0.0636
  41 H11       6.2928   -14.3336    -2.0439  H       1  <O>11       0.0618
  42 H12       5.9129   -16.7181    -2.3333  H       1  <O>11       0.0620
  43 H13       6.9679   -22.2470    -6.1117  H       1  <O>11       0.0625
  44 H14       5.2581   -23.7008    -5.2070  H       1  <O>11       0.0618
  45 H15       3.4437   -22.7701    -3.8954  H       1  <O>11       0.0618
  46 H16       3.3483   -20.3886    -3.4822  H       1  <O>11       0.0624
  47 H17       2.4202   -15.8932    -4.5399  H       1  <O>11       0.0639
@<TRIPOS>BOND
     1     1     2    2
     2     2     3    1
     3     2     4    1
     4     4     5   ar
     5     5     6   ar
     6     6     7   ar
     7     7     8   ar
     8     8     9   ar
     9     4     9   ar
    10     9    10    1
    11    10    11    2
    12    10    12   am
    13    12    13    1
    14    13    14   ar
    15    14    15   ar
    16    15    16   ar
    17    16    17   ar
    18    17    18    1
    19    18    19    1
    20    19    20   ar
    21    20    21   ar
    22    21    22   ar
    23    22    23    2
    24    22    24   ar
    25    24    25   ar
    26    25    26   ar
    27    26    27   ar
    28    27    28   ar
    29    28    29   ar
    30    19    29   ar
    31    24    29   ar
    32    17    30   ar
    33    13    30   ar
    34     3    31    1
    35    12    32    1
    36    18    33    1
    37    18    34    1
    38    21    35    1
    39     5    36    1
    40     6    37    1
    41     7    38    1
    42     8    39    1
    43    14    40    1
    44    15    41    1
    45    16    42    1
    46    25    43    1
    47    26    44    1
    48    27    45    1
    49    28    46    1
    50    30    47    1
@<TRIPOS>MOLECULE
mol81_1_3
 47 50 0 0 0
SMALL
USER_CHARGES
****
VDW energy = -107.24
@<TRIPOS>ATOM
   1 O1        3.4420    -9.1855    -5.2979  O.2     1  <O>11      -0.2451
   2 C1        2.8552    -9.8129    -4.4288  C.2     1  <O>11       0.3375
   3 O2        3.5096   -10.1823    -3.3012  O.3     1  <O>11      -0.4771
   4 C2        1.4620   -10.1610    -4.6040  C.ar    1  <O>11       0.0709
   5 C3        0.8788   -11.0990    -3.7486  C.ar    1  <O>11      -0.0470
   6 C4       -0.4648   -11.4499    -3.9199  C.ar    1  <O>11      -0.0609
   7 C5       -1.2208   -10.8626    -4.9377  C.ar    1  <O>11      -0.0610
   8 C6       -0.6252    -9.9195    -5.7824  C.ar    1  <O>11      -0.0488
   9 C7        0.7138    -9.5619    -5.6186  C.ar    1  <O>11       0.0510
  10 C8        1.3290    -8.5804    -6.4867  C.2     1  <O>11       0.2490
  11 O3        1.3025    -7.3969    -6.1867  O.2     1  <O>11      -0.2698
  12 N1        1.9419    -8.9799    -7.6441  N.am    1  <O>11      -0.2815
  13 C9        2.5360    -8.0341    -8.4809  C.ar    1  <O>11       0.0339
  14 C10       3.8847    -7.6821    -8.3069  C.ar    1  <O>11      -0.0405
  15 C11       4.4763    -6.7243    -9.1383  C.ar    1  <O>11      -0.0597
  16 C12       3.7309    -6.1154   -10.1512  C.ar    1  <O>11      -0.0581
  17 C13       2.3897    -6.4722   -10.3279  C.ar    1  <O>11      -0.0398
  18 C14       1.6073    -5.8271   -11.4000  C.3     1  <O>11       0.0172
  19 C15       1.5715    -4.3591   -11.1734  C.ar    1  <O>11       0.0736
  20 N2        2.1559    -3.8168   -10.0236  N.ar    1  <O>11      -0.1750
  21 N3        2.0410    -2.4963    -9.7502  N.ar    1  <O>11      -0.2425
  22 C16       1.3628    -1.7025   -10.6131  C.ar    1  <O>11       0.2725
  23 O4        1.1960    -0.3603   -10.2222  O.2     1  <O>11      -0.2658
  24 C17       0.8388    -2.1469   -11.8349  C.ar    1  <O>11       0.0496
  25 C18       0.1800    -1.3081   -12.7634  C.ar    1  <O>11      -0.0487
  26 C19      -0.3459    -1.8220   -13.9488  C.ar    1  <O>11      -0.0610
  27 C20      -0.2352    -3.1806   -14.2252  C.ar    1  <O>11      -0.0611
  28 C21       0.4041    -4.0237   -13.3173  C.ar    1  <O>11      -0.0521
  29 C22       0.9522    -3.5205   -12.1154  C.ar    1  <O>11       0.0106
  30 C23       1.7905    -7.4260    -9.5043  C.ar    1  <O>11      -0.0369
  31 H1        2.9041   -10.6687    -2.7201  H       1  <O>11       0.2954
  32 H2        1.9656    -9.9682    -7.8942  H       1  <O>11       0.1551
  33 H3        0.5904    -6.2199   -11.3945  H       1  <O>11       0.0377
  34 H4        2.0717    -6.0353   -12.3648  H       1  <O>11       0.0377
  35 H5        2.4554    -2.1096    -8.9149  H       1  <O>11       0.1921
  36 H6        1.4358   -11.5307    -2.9947  H       1  <O>11       0.0626
  37 H7       -0.8989   -12.1448    -3.2925  H       1  <O>11       0.0618
  38 H8       -2.2113   -11.1225    -5.0654  H       1  <O>11       0.0618
  39 H9       -1.1817    -9.4838    -6.5344  H       1  <O>11       0.0625
  40 H10       4.4415    -8.1315    -7.5631  H       1  <O>11       0.0636
  41 H11       5.4665    -6.4668    -9.0028  H       1  <O>11       0.0618
  42 H12       4.1661    -5.4082   -10.7641  H       1  <O>11       0.0620
  43 H13       0.0870    -0.3004   -12.5611  H       1  <O>11       0.0625
  44 H14      -0.8166    -1.1950   -14.6197  H       1  <O>11       0.0618
  45 H15      -0.6254    -3.5638   -15.1005  H       1  <O>11       0.0618
  46 H16       0.4783    -5.0316   -13.5261  H       1  <O>11       0.0624
  47 H17       0.8015    -7.6842    -9.6469  H       1  <O>11       0.0639
@<TRIPOS>BOND
     1     1     2    2
     2     2     3    1
     3     2     4    1
     4     4     5   ar
     5     5     6   ar
     6     6     7   ar
     7     7     8   ar
     8     8     9   ar
     9     4     9   ar
    10     9    10    1
    11    10    11    2
    12    10    12   am
    13    12    13    1
    14    13    14   ar
    15    14    15   ar
    16    15    16   ar
    17    16    17   ar
    18    17    18    1
    19    18    19    1
    20    19    20   ar
    21    20    21   ar
    22    21    22   ar
    23    22    23    2
    24    22    24   ar
    25    24    25   ar
    26    25    26   ar
    27    26    27   ar
    28    27    28   ar
    29    28    29   ar
    30    19    29   ar
    31    24    29   ar
    32    17    30   ar
    33    13    30   ar
    34     3    31    1
    35    12    32    1
    36    18    33    1
    37    18    34    1
    38    21    35    1
    39     5    36    1
    40     6    37    1
    41     7    38    1
    42     8    39    1
    43    14    40    1
    44    15    41    1
    45    16    42    1
    46    25    43    1
    47    26    44    1
    48    27    45    1
    49    28    46    1
    50    30    47    1
@<TRIPOS>MOLECULE
mol81_1_4
 47 50 0 0 0
SMALL
USER_CHARGES
****
VDW energy = -105.66
@<TRIPOS>ATOM
   1 O1        3.4420    -9.1855    -5.2979  O.2     1  <O>11      -0.2451
   2 C1        2.8552    -9.8129    -4.4288  C.2     1  <O>11       0.3375
   3 O2        3.5096   -10.1823    -3.3012  O.3     1  <O>11      -0.4771
   4 C2        1.4620   -10.1610    -4.6040  C.ar    1  <O>11       0.0709
   5 C3        0.8788   -11.0990    -3.7486  C.ar    1  <O>11      -0.0470
   6 C4       -0.4648   -11.4499    -3.9199  C.ar    1  <O>11      -0.0609
   7 C5       -1.2208   -10.8626    -4.9377  C.ar    1  <O>11      -0.0610
   8 C6       -0.6252    -9.9195    -5.7824  C.ar    1  <O>11      -0.0488
   9 C7        0.7138    -9.5619    -5.6186  C.ar    1  <O>11       0.0510
  10 C8        1.3290    -8.5804    -6.4867  C.2     1  <O>11       0.2490
  11 O3        1.3025    -7.3969    -6.1867  O.2     1  <O>11      -0.2698
  12 N1        1.9419    -8.9799    -7.6441  N.am    1  <O>11      -0.2815
  13 C9        2.5360    -8.0341    -8.4809  C.ar    1  <O>11       0.0339
  14 C10       1.7662    -7.0018    -9.0421  C.ar    1  <O>11      -0.0405
  15 C11       2.3600    -6.0612    -9.8913  C.ar    1  <O>11      -0.0597
  16 C12       3.7245    -6.1390   -10.1825  C.ar    1  <O>11      -0.0581
  17 C13       4.4914    -7.1635    -9.6172  C.ar    1  <O>11      -0.0398
  18 C14       5.9322    -7.2404    -9.9268  C.3     1  <O>11       0.0172
  19 C15       6.1164    -7.4072   -11.3917  C.ar    1  <O>11       0.0736
  20 N2        5.0000    -7.5495   -12.2230  N.ar    1  <O>11      -0.1750
  21 N3        5.1528    -7.8069   -13.5429  N.ar    1  <O>11      -0.2425
  22 C16       6.4035    -7.9119   -14.0522  C.ar    1  <O>11       0.2725
  23 O4        6.4930    -8.2771   -15.4090  O.2     1  <O>11      -0.2658
  24 C17       7.5701    -7.6806   -13.3103  C.ar    1  <O>11       0.0496
  25 C18       8.8748    -7.7339   -13.8531  C.ar    1  <O>11      -0.0487
  26 C19       9.9960    -7.5236   -13.0504  C.ar    1  <O>11      -0.0610
  27 C20       9.8389    -7.2677   -11.6924  C.ar    1  <O>11      -0.0611
  28 C21       8.5603    -7.2194   -11.1387  C.ar    1  <O>11      -0.0521
  29 C22       7.4112    -7.4201   -11.9372  C.ar    1  <O>11       0.0106
  30 C23       3.9088    -8.1063    -8.7692  C.ar    1  <O>11      -0.0369
  31 H1        2.9041   -10.6687    -2.7201  H       1  <O>11       0.2954
  32 H2        1.9656    -9.9682    -7.8942  H       1  <O>11       0.1551
  33 H3        6.3708    -8.0921    -9.4067  H       1  <O>11       0.0377
  34 H4        6.4238    -6.3230    -9.6003  H       1  <O>11       0.0377
  35 H5        4.3454    -7.9187   -14.1384  H       1  <O>11       0.1921
  36 H6        1.4358   -11.5307    -2.9947  H       1  <O>11       0.0626
  37 H7       -0.8989   -12.1448    -3.2925  H       1  <O>11       0.0618
  38 H8       -2.2113   -11.1225    -5.0654  H       1  <O>11       0.0618
  39 H9       -1.1817    -9.4838    -6.5344  H       1  <O>11       0.0625
  40 H10       0.7589    -6.9368    -8.8274  H       1  <O>11       0.0636
  41 H11       1.7883    -5.3076   -10.3040  H       1  <O>11       0.0618
  42 H12       4.1629    -5.4464   -10.8095  H       1  <O>11       0.0620
  43 H13       8.9993    -7.9314   -14.8584  H       1  <O>11       0.0625
  44 H14      10.9410    -7.5578   -13.4637  H       1  <O>11       0.0618
  45 H15      10.6669    -7.1139   -11.0959  H       1  <O>11       0.0618
  46 H16       8.4509    -7.0342   -10.1293  H       1  <O>11       0.0624
  47 H17       4.4856    -8.8550    -8.3548  H       1  <O>11       0.0639
@<TRIPOS>BOND
     1     1     2    2
     2     2     3    1
     3     2     4    1
     4     4     5   ar
     5     5     6   ar
     6     6     7   ar
     7     7     8   ar
     8     8     9   ar
     9     4     9   ar
    10     9    10    1
    11    10    11    2
    12    10    12   am
    13    12    13    1
    14    13    14   ar
    15    14    15   ar
    16    15    16   ar
    17    16    17   ar
    18    17    18    1
    19    18    19    1
    20    19    20   ar
    21    20    21   ar
    22    21    22   ar
    23    22    23    2
    24    22    24   ar
    25    24    25   ar
    26    25    26   ar
    27    26    27   ar
    28    27    28   ar
    29    28    29   ar
    30    19    29   ar
    31    24    29   ar
    32    17    30   ar
    33    13    30   ar
    34     3    31    1
    35    12    32    1
    36    18    33    1
    37    18    34    1
    38    21    35    1
    39     5    36    1
    40     6    37    1
    41     7    38    1
    42     8    39    1
    43    14    40    1
    44    15    41    1
    45    16    42    1
    46    25    43    1
    47    26    44    1
    48    27    45    1
    49    28    46    1
    50    30    47    1
@<TRIPOS>MOLECULE
mol81_1_5
 47 50 0 0 0
SMALL
USER_CHARGES
****
VDW energy = -105.07
@<TRIPOS>ATOM
   1 O1        3.4420    -9.1855    -5.2979  O.2     1  <O>11      -0.2451
   2 C1        2.8552    -9.8129    -4.4288  C.2     1  <O>11       0.3375
   3 O2        3.5096   -10.1823    -3.3012  O.3     1  <O>11      -0.4771
   4 C2        1.4620   -10.1610    -4.6040  C.ar    1  <O>11       0.0709
   5 C3        0.8788   -11.0990    -3.7486  C.ar    1  <O>11      -0.0470
   6 C4       -0.4648   -11.4499    -3.9199  C.ar    1  <O>11      -0.0609
   7 C5       -1.2208   -10.8626    -4.9377  C.ar    1  <O>11      -0.0610
   8 C6       -0.6252    -9.9195    -5.7824  C.ar    1  <O>11      -0.0488
   9 C7        0.7138    -9.5619    -5.6186  C.ar    1  <O>11       0.0510
  10 C8        1.3290    -8.5804    -6.4867  C.2     1  <O>11       0.2490
  11 O3        1.3025    -7.3969    -6.1867  O.2     1  <O>11      -0.2698
  12 N1        1.9419    -8.9799    -7.6441  N.am    1  <O>11      -0.2815
  13 C9        2.5360    -8.0341    -8.4809  C.ar    1  <O>11       0.0339
  14 C10       3.5799    -7.2235    -8.0051  C.ar    1  <O>11      -0.0405
  15 C11       4.1666    -6.2666    -8.8409  C.ar    1  <O>11      -0.0597
  16 C12       3.7218    -6.1145   -10.1568  C.ar    1  <O>11      -0.0581
  17 C13       2.6868    -6.9275   -10.6315  C.ar    1  <O>11      -0.0398
  18 C14       2.2217    -6.7638   -12.0224  C.3     1  <O>11       0.0172
  19 C15       1.7220    -5.3783   -12.2185  C.ar    1  <O>11       0.0736
  20 N2        1.6717    -4.4954   -11.1342  N.ar    1  <O>11      -0.1750
  21 N3        1.1226    -3.2662   -11.2723  N.ar    1  <O>11      -0.2425
  22 C16       0.6333    -2.8961   -12.4799  C.ar    1  <O>11       0.2725
  23 O4       -0.0116    -1.6456   -12.5321  O.2     1  <O>11      -0.2658
  24 C17       0.7386    -3.6791   -13.6377  C.ar    1  <O>11       0.0496
  25 C18       0.2794    -3.2711   -14.9115  C.ar    1  <O>11      -0.0487
  26 C19       0.3876    -4.1136   -16.0180  C.ar    1  <O>11      -0.0610
  27 C20       0.9441    -5.3801   -15.8738  C.ar    1  <O>11      -0.0611
  28 C21       1.3948    -5.8020   -14.6237  C.ar    1  <O>11      -0.0521
  29 C22       1.3030    -4.9593   -13.4925  C.ar    1  <O>11       0.0106
  30 C23       2.0953    -7.8845    -9.8062  C.ar    1  <O>11      -0.0369
  31 H1        2.9041   -10.6687    -2.7201  H       1  <O>11       0.2954
  32 H2        1.9656    -9.9682    -7.8942  H       1  <O>11       0.1551
  33 H3        1.4169    -7.4714   -12.2222  H       1  <O>11       0.0377
  34 H4        3.0495    -6.9525   -12.7073  H       1  <O>11       0.0377
  35 H5        1.0789    -2.6349   -10.4858  H       1  <O>11       0.1921
  36 H6        1.4358   -11.5307    -2.9947  H       1  <O>11       0.0626
  37 H7       -0.8989   -12.1448    -3.2925  H       1  <O>11       0.0618
  38 H8       -2.2113   -11.1225    -5.0654  H       1  <O>11       0.0618
  39 H9       -1.1817    -9.4838    -6.5344  H       1  <O>11       0.0625
  40 H10       3.9155    -7.3341    -7.0354  H       1  <O>11       0.0636
  41 H11       4.9304    -5.6711    -8.4842  H       1  <O>11       0.0618
  42 H12       4.1532    -5.4084   -10.7735  H       1  <O>11       0.0620
  43 H13      -0.1421    -2.3359   -15.0242  H       1  <O>11       0.0625
  44 H14       0.0551    -3.7976   -16.9423  H       1  <O>11       0.0618
  45 H15       1.0233    -6.0062   -16.6904  H       1  <O>11       0.0618
  46 H16       1.8020    -6.7448   -14.5226  H       1  <O>11       0.0624
  47 H17       1.3354    -8.4813   -10.1688  H       1  <O>11       0.0639
@<TRIPOS>BOND
     1     1     2    2
     2     2     3    1
     3     2     4    1
     4     4     5   ar
     5     5     6   ar
     6     6     7   ar
     7     7     8   ar
     8     8     9   ar
     9     4     9   ar
    10     9    10    1
    11    10    11    2
    12    10    12   am
    13    12    13    1
    14    13    14   ar
    15    14    15   ar
    16    15    16   ar
    17    16    17   ar
    18    17    18    1
    19    18    19    1
    20    19    20   ar
    21    20    21   ar
    22    21    22   ar
    23    22    23    2
    24    22    24   ar
    25    24    25   ar
    26    25    26   ar
    27    26    27   ar
    28    27    28   ar
    29    28    29   ar
    30    19    29   ar
    31    24    29   ar
    32    17    30   ar
    33    13    30   ar
    34     3    31    1
    35    12    32    1
    36    18    33    1
    37    18    34    1
    38    21    35    1
    39     5    36    1
    40     6    37    1
    41     7    38    1
    42     8    39    1
    43    14    40    1
    44    15    41    1
    45    16    42    1
    46    25    43    1
    47    26    44    1
    48    27    45    1
    49    28    46    1
    50    30    47    1
@<TRIPOS>MOLECULE
mol81_1_6
 47 50 0 0 0
SMALL
USER_CHARGES
****
VDW energy = -100.46
@<TRIPOS>ATOM
   1 O1        3.4420    -9.1855    -5.2979  O.2     1  <O>11      -0.2451
   2 C1        2.8552    -9.8129    -4.4288  C.2     1  <O>11       0.3375
   3 O2        3.5096   -10.1823    -3.3012  O.3     1  <O>11      -0.4771
   4 C2        1.4620   -10.1610    -4.6040  C.ar    1  <O>11       0.0709
   5 C3        0.8788   -11.0990    -3.7486  C.ar    1  <O>11      -0.0470
   6 C4       -0.4648   -11.4499    -3.9199  C.ar    1  <O>11      -0.0609
   7 C5       -1.2208   -10.8626    -4.9377  C.ar    1  <O>11      -0.0610
   8 C6       -0.6252    -9.9195    -5.7824  C.ar    1  <O>11      -0.0488
   9 C7        0.7138    -9.5619    -5.6186  C.ar    1  <O>11       0.0510
  10 C8        1.3290    -8.5804    -6.4867  C.2     1  <O>11       0.2490
  11 O3        1.3025    -7.3969    -6.1867  O.2     1  <O>11      -0.2698
  12 N1        1.9419    -8.9799    -7.6441  N.am    1  <O>11      -0.2815
  13 C9        1.9731   -10.3326    -7.9857  C.ar    1  <O>11       0.0339
  14 C10       0.7761   -11.0441    -8.1712  C.ar    1  <O>11      -0.0405
  15 C11       0.8080   -12.4037    -8.5013  C.ar    1  <O>11      -0.0597
  16 C12       2.0311   -13.0619    -8.6543  C.ar    1  <O>11      -0.0581
  17 C13       3.2224   -12.3503    -8.4762  C.ar    1  <O>11      -0.0398
  18 C14       4.5114   -13.0498    -8.6402  C.3     1  <O>11       0.0172
  19 C15       4.5984   -14.1651    -7.6624  C.ar    1  <O>11       0.0736
  20 N2        3.5777   -14.3503    -6.7235  N.ar    1  <O>11      -0.1750
  21 N3        3.6911   -15.2944    -5.7605  N.ar    1  <O>11      -0.2425
  22 C16       4.8021   -16.0686    -5.7258  C.ar    1  <O>11       0.2725
  23 O4        4.9023   -16.9630    -4.6431  O.2     1  <O>11      -0.2658
  24 C17       5.8194   -16.0171    -6.6887  C.ar    1  <O>11       0.0496
  25 C18       6.9525   -16.8631    -6.6864  C.ar    1  <O>11      -0.0487
  26 C19       7.9448   -16.7376    -7.6587  C.ar    1  <O>11      -0.0610
  27 C20       7.8321   -15.7615    -8.6430  C.ar    1  <O>11      -0.0611
  28 C21       6.7256   -14.9133    -8.6559  C.ar    1  <O>11      -0.0521
  29 C22       5.7048   -15.0310    -7.6852  C.ar    1  <O>11       0.0106
  30 C23       3.2015   -10.9945    -8.1470  C.ar    1  <O>11      -0.0369
  31 H1        2.9041   -10.6687    -2.7201  H       1  <O>11       0.2954
  32 H2        2.3745    -8.2893    -8.2571  H       1  <O>11       0.1551
  33 H3        5.3293   -12.3503    -8.4663  H       1  <O>11       0.0377
  34 H4        4.5830   -13.4475    -9.6534  H       1  <O>11       0.0377
  35 H5        2.9575   -15.4192    -5.0784  H       1  <O>11       0.1921
  36 H6        1.4358   -11.5307    -2.9947  H       1  <O>11       0.0626
  37 H7       -0.8989   -12.1448    -3.2925  H       1  <O>11       0.0618
  38 H8       -2.2113   -11.1225    -5.0654  H       1  <O>11       0.0618
  39 H9       -1.1817    -9.4838    -6.5344  H       1  <O>11       0.0625
  40 H10      -0.1302   -10.5623    -8.0637  H       1  <O>11       0.0636
  41 H11      -0.0748   -12.9220    -8.6322  H       1  <O>11       0.0618
  42 H12       2.0555   -14.0648    -8.8967  H       1  <O>11       0.0620
  43 H13       7.0468   -17.5842    -5.9542  H       1  <O>11       0.0625
  44 H14       8.7615   -17.3683    -7.6477  H       1  <O>11       0.0618
  45 H15       8.5660   -15.6651    -9.3622  H       1  <O>11       0.0618
  46 H16       6.6507   -14.1878    -9.3859  H       1  <O>11       0.0624
  47 H17       4.0868   -10.4790    -8.0222  H       1  <O>11       0.0639
@<TRIPOS>BOND
     1     1     2    2
     2     2     3    1
     3     2     4    1
     4     4     5   ar
     5     5     6   ar
     6     6     7   ar
     7     7     8   ar
     8     8     9   ar
     9     4     9   ar
    10     9    10    1
    11    10    11    2
    12    10    12   am
    13    12    13    1
    14    13    14   ar
    15    14    15   ar
    16    15    16   ar
    17    16    17   ar
    18    17    18    1
    19    18    19    1
    20    19    20   ar
    21    20    21   ar
    22    21    22   ar
    23    22    23    2
    24    22    24   ar
    25    24    25   ar
    26    25    26   ar
    27    26    27   ar
    28    27    28   ar
    29    28    29   ar
    30    19    29   ar
    31    24    29   ar
    32    17    30   ar
    33    13    30   ar
    34     3    31    1
    35    12    32    1
    36    18    33    1
    37    18    34    1
    38    21    35    1
    39     5    36    1
    40     6    37    1
    41     7    38    1
    42     8    39    1
    43    14    40    1
    44    15    41    1
    45    16    42    1
    46    25    43    1
    47    26    44    1
    48    27    45    1
    49    28    46    1
    50    30    47    1
@<TRIPOS>MOLECULE
mol81_1_7
 47 50 0 0 0
SMALL
USER_CHARGES
****
VDW energy = -97.14
@<TRIPOS>ATOM
   1 O1        3.4420    -9.1855    -5.2979  O.2     1  <O>11      -0.2451
   2 C1        2.8552    -9.8129    -4.4288  C.2     1  <O>11       0.3375
   3 O2        3.5096   -10.1823    -3.3012  O.3     1  <O>11      -0.4771
   4 C2        1.4620   -10.1610    -4.6040  C.ar    1  <O>11       0.0709
   5 C3        1.1317   -11.3710    -5.2192  C.ar    1  <O>11      -0.0470
   6 C4       -0.2136   -11.7087    -5.4033  C.ar    1  <O>11      -0.0609
   7 C5       -1.2215   -10.8431    -4.9705  C.ar    1  <O>11      -0.0610
   8 C6       -0.8757    -9.6378    -4.3497  C.ar    1  <O>11      -0.0488
   9 C7        0.4633    -9.2929    -4.1603  C.ar    1  <O>11       0.0510
  10 C8        0.8223    -8.0499    -3.5110  C.2     1  <O>11       0.2490
  11 O3        0.2503    -7.7074    -2.4878  O.2     1  <O>11      -0.2698
  12 N1        1.8047    -7.2590    -4.0439  N.am    1  <O>11      -0.2815
  13 C9        2.1518    -6.0610    -3.4177  C.ar    1  <O>11       0.0339
  14 C10       1.1932    -5.0493    -3.2430  C.ar    1  <O>11      -0.0405
  15 C11       1.5452    -3.8433    -2.6264  C.ar    1  <O>11      -0.0597
  16 C12       2.8518    -3.6393    -2.1750  C.ar    1  <O>11      -0.0581
  17 C13       3.8037    -4.6507    -2.3433  C.ar    1  <O>11      -0.0398
  18 C14       5.1819    -4.4306    -1.8636  C.3     1  <O>11       0.0172
  19 C15       5.9796    -5.6684    -2.0619  C.ar    1  <O>11       0.0736
  20 N2        7.1200    -5.6405    -2.8720  N.ar    1  <O>11      -0.1750
  21 N3        7.7970    -6.7795    -3.1473  N.ar    1  <O>11      -0.2425
  22 C16       7.3630    -7.9475    -2.6160  C.ar    1  <O>11       0.2725
  23 O4        8.0518    -9.1073    -3.0193  O.2     1  <O>11      -0.2658
  24 C17       6.2945    -8.0450    -1.7140  C.ar    1  <O>11       0.0496
  25 C18       5.8754    -9.2550    -1.1140  C.ar    1  <O>11      -0.0487
  26 C19       4.7829    -9.2866    -0.2474  C.ar    1  <O>11      -0.0610
  27 C20       4.0821    -8.1173     0.0284  C.ar    1  <O>11      -0.0611
  28 C21       4.4763    -6.9167    -0.5606  C.ar    1  <O>11      -0.0521
  29 C22       5.5867    -6.8622    -1.4337  C.ar    1  <O>11       0.0106
  30 C23       3.4629    -5.8567    -2.9568  C.ar    1  <O>11      -0.0369
  31 H1        2.9041   -10.6687    -2.7201  H       1  <O>11       0.2954
  32 H2        2.2836    -7.5454    -4.8974  H       1  <O>11       0.1551
  33 H3        5.1616    -4.1781    -0.8033  H       1  <O>11       0.0377
  34 H4        5.6354    -3.6116    -2.4234  H       1  <O>11       0.0377
  35 H5        8.6138    -6.7578    -3.7401  H       1  <O>11       0.1921
  36 H6        1.8757   -12.0122    -5.5360  H       1  <O>11       0.0626
  37 H7       -0.4623   -12.5999    -5.8602  H       1  <O>11       0.0618
  38 H8       -2.2138   -11.0911    -5.1078  H       1  <O>11       0.0618
  39 H9       -1.6184    -8.9973    -4.0287  H       1  <O>11       0.0625
  40 H10       0.2256    -5.1959    -3.5706  H       1  <O>11       0.0636
  41 H11       0.8375    -3.1021    -2.5046  H       1  <O>11       0.0618
  42 H12       3.1125    -2.7498    -1.7211  H       1  <O>11       0.0620
  43 H13       6.3857   -10.1280    -1.3205  H       1  <O>11       0.0625
  44 H14       4.4949   -10.1765     0.1886  H       1  <O>11       0.0618
  45 H15       3.2720    -8.1383     0.6675  H       1  <O>11       0.0618
  46 H16       3.9489    -6.0536    -0.3558  H       1  <O>11       0.0624
  47 H17       4.1726    -6.5970    -3.0717  H       1  <O>11       0.0639
@<TRIPOS>BOND
     1     1     2    2
     2     2     3    1
     3     2     4    1
     4     4     5   ar
     5     5     6   ar
     6     6     7   ar
     7     7     8   ar
     8     8     9   ar
     9     4     9   ar
    10     9    10    1
    11    10    11    2
    12    10    12   am
    13    12    13    1
    14    13    14   ar
    15    14    15   ar
    16    15    16   ar
    17    16    17   ar
    18    17    18    1
    19    18    19    1
    20    19    20   ar
    21    20    21   ar
    22    21    22   ar
    23    22    23    2
    24    22    24   ar
    25    24    25   ar
    26    25    26   ar
    27    26    27   ar
    28    27    28   ar
    29    28    29   ar
    30    19    29   ar
    31    24    29   ar
    32    17    30   ar
    33    13    30   ar
    34     3    31    1
    35    12    32    1
    36    18    33    1
    37    18    34    1
    38    21    35    1
    39     5    36    1
    40     6    37    1
    41     7    38    1
    42     8    39    1
    43    14    40    1
    44    15    41    1
    45    16    42    1
    46    25    43    1
    47    26    44    1
    48    27    45    1
    49    28    46    1
    50    30    47    1
@<TRIPOS>MOLECULE
mol81_1_8
 47 50 0 0 0
SMALL
USER_CHARGES
****
VDW energy = -95.59
@<TRIPOS>ATOM
   1 O1        3.4420    -9.1855    -5.2979  O.2     1  <O>11      -0.2451
   2 C1        2.8552    -9.8129    -4.4288  C.2     1  <O>11       0.3375
   3 O2        3.5096   -10.1823    -3.3012  O.3     1  <O>11      -0.4771
   4 C2        1.4620   -10.1610    -4.6040  C.ar    1  <O>11       0.0709
   5 C3        1.1317   -11.3710    -5.2192  C.ar    1  <O>11      -0.0470
   6 C4       -0.2136   -11.7087    -5.4033  C.ar    1  <O>11      -0.0609
   7 C5       -1.2215   -10.8431    -4.9705  C.ar    1  <O>11      -0.0610
   8 C6       -0.8757    -9.6378    -4.3497  C.ar    1  <O>11      -0.0488
   9 C7        0.4633    -9.2929    -4.1603  C.ar    1  <O>11       0.0510
  10 C8        0.8223    -8.0499    -3.5110  C.2     1  <O>11       0.2490
  11 O3        0.9676    -8.0132    -2.2990  O.2     1  <O>11      -0.2698
  12 N1        1.0002    -6.9155    -4.2566  N.am    1  <O>11      -0.2815
  13 C9        1.3472    -5.7171    -3.6312  C.ar    1  <O>11       0.0339
  14 C10       1.7754    -4.6180    -4.3940  C.ar    1  <O>11      -0.0405
  15 C11       2.1355    -3.4207    -3.7652  C.ar    1  <O>11      -0.0597
  16 C12       2.0662    -3.3083    -2.3742  C.ar    1  <O>11      -0.0581
  17 C13       1.6328    -4.4016    -1.6162  C.ar    1  <O>11      -0.0398
  18 C14       1.5601    -4.2771    -0.1475  C.3     1  <O>11       0.0172
  19 C15       2.9095    -3.9666     0.3913  C.ar    1  <O>11       0.0736
  20 N2        4.0107    -3.9209    -0.4706  N.ar    1  <O>11      -0.1750
  21 N3        5.2604    -3.7436     0.0178  N.ar    1  <O>11      -0.2425
  22 C16       5.4299    -3.5970     1.3537  C.ar    1  <O>11       0.2725
  23 O4        6.7608    -3.5147     1.8055  O.2     1  <O>11      -0.2658
  24 C17       4.3726    -3.5270     2.2713  C.ar    1  <O>11       0.0496
  25 C18       4.5442    -3.3172     3.6592  C.ar    1  <O>11      -0.0487
  26 C19       3.4488    -3.2891     4.5224  C.ar    1  <O>11      -0.0610
  27 C20       2.1655    -3.4801     4.0212  C.ar    1  <O>11      -0.0611
  28 C21       1.9785    -3.6962     2.6566  C.ar    1  <O>11      -0.0521
  29 C22       3.0746    -3.7184     1.7644  C.ar    1  <O>11       0.0106
  30 C23       1.2715    -5.5997    -2.2335  C.ar    1  <O>11      -0.0369
  31 H1        2.9041   -10.6687    -2.7201  H       1  <O>11       0.2954
  32 H2        0.8804    -6.9461    -5.2689  H       1  <O>11       0.1551
  33 H3        1.2060    -5.2155     0.2796  H       1  <O>11       0.0377
  34 H4        0.8695    -3.4749     0.1158  H       1  <O>11       0.0377
  35 H5        6.0541    -3.7208    -0.6055  H       1  <O>11       0.1921
  36 H6        1.8757   -12.0122    -5.5360  H       1  <O>11       0.0626
  37 H7       -0.4623   -12.5999    -5.8602  H       1  <O>11       0.0618
  38 H8       -2.2138   -11.0911    -5.1078  H       1  <O>11       0.0618
  39 H9       -1.6184    -8.9973    -4.0287  H       1  <O>11       0.0625
  40 H10       1.8246    -4.6938    -5.4221  H       1  <O>11       0.0636
  41 H11       2.4533    -2.6181    -4.3308  H       1  <O>11       0.0618
  42 H12       2.3325    -2.4261    -1.9096  H       1  <O>11       0.0620
  43 H13       5.4942    -3.1829     4.0393  H       1  <O>11       0.0625
  44 H14       3.5903    -3.1268     5.5316  H       1  <O>11       0.0618
  45 H15       1.3536    -3.4619     4.6580  H       1  <O>11       0.0618
  46 H16       1.0242    -3.8423     2.2920  H       1  <O>11       0.0624
  47 H17       0.9493    -6.3979    -1.6643  H       1  <O>11       0.0639
@<TRIPOS>BOND
     1     1     2    2
     2     2     3    1
     3     2     4    1
     4     4     5   ar
     5     5     6   ar
     6     6     7   ar
     7     7     8   ar
     8     8     9   ar
     9     4     9   ar
    10     9    10    1
    11    10    11    2
    12    10    12   am
    13    12    13    1
    14    13    14   ar
    15    14    15   ar
    16    15    16   ar
    17    16    17   ar
    18    17    18    1
    19    18    19    1
    20    19    20   ar
    21    20    21   ar
    22    21    22   ar
    23    22    23    2
    24    22    24   ar
    25    24    25   ar
    26    25    26   ar
    27    26    27   ar
    28    27    28   ar
    29    28    29   ar
    30    19    29   ar
    31    24    29   ar
    32    17    30   ar
    33    13    30   ar
    34     3    31    1
    35    12    32    1
    36    18    33    1
    37    18    34    1
    38    21    35    1
    39     5    36    1
    40     6    37    1
    41     7    38    1
    42     8    39    1
    43    14    40    1
    44    15    41    1
    45    16    42    1
    46    25    43    1
    47    26    44    1
    48    27    45    1
    49    28    46    1
    50    30    47    1
@<TRIPOS>MOLECULE
mol81_1_9
 47 50 0 0 0
SMALL
USER_CHARGES
****
VDW energy = -94.16
@<TRIPOS>ATOM
   1 O1        3.4420    -9.1855    -5.2979  O.2     1  <O>11      -0.2451
   2 C1        2.8552    -9.8129    -4.4288  C.2     1  <O>11       0.3375
   3 O2        3.5096   -10.1823    -3.3012  O.3     1  <O>11      -0.4771
   4 C2        1.4620   -10.1610    -4.6040  C.ar    1  <O>11       0.0709
   5 C3        1.1317   -11.3710    -5.2192  C.ar    1  <O>11      -0.0470
   6 C4       -0.2136   -11.7087    -5.4033  C.ar    1  <O>11      -0.0609
   7 C5       -1.2215   -10.8431    -4.9705  C.ar    1  <O>11      -0.0610
   8 C6       -0.8757    -9.6378    -4.3497  C.ar    1  <O>11      -0.0488
   9 C7        0.4633    -9.2929    -4.1603  C.ar    1  <O>11       0.0510
  10 C8        0.8223    -8.0499    -3.5110  C.2     1  <O>11       0.2490
  11 O3        0.9676    -8.0132    -2.2990  O.2     1  <O>11      -0.2698
  12 N1        1.0002    -6.9155    -4.2566  N.am    1  <O>11      -0.2815
  13 C9        1.3472    -5.7171    -3.6312  C.ar    1  <O>11       0.0339
  14 C10       1.7754    -4.6180    -4.3940  C.ar    1  <O>11      -0.0405
  15 C11       2.1355    -3.4207    -3.7652  C.ar    1  <O>11      -0.0597
  16 C12       2.0662    -3.3083    -2.3742  C.ar    1  <O>11      -0.0581
  17 C13       1.6328    -4.4016    -1.6162  C.ar    1  <O>11      -0.0398
  18 C14       1.5601    -4.2771    -0.1475  C.3     1  <O>11       0.0172
  19 C15       2.8573    -4.6874     0.4497  C.ar    1  <O>11       0.0736
  20 N2        3.0692    -6.0238     0.8058  N.ar    1  <O>11      -0.1750
  21 N3        4.2026    -6.3943     1.4459  N.ar    1  <O>11      -0.2425
  22 C16       5.1372    -5.4546     1.7259  C.ar    1  <O>11       0.2725
  23 O4        6.2460    -5.8864     2.4784  O.2     1  <O>11      -0.2658
  24 C17       5.0483    -4.1182     1.3124  C.ar    1  <O>11       0.0496
  25 C18       6.0488    -3.1486     1.5542  C.ar    1  <O>11      -0.0487
  26 C19       5.8826    -1.8265     1.1417  C.ar    1  <O>11      -0.0610
  27 C20       4.7139    -1.4443     0.4916  C.ar    1  <O>11      -0.0611
  28 C21       3.7135    -2.3853     0.2520  C.ar    1  <O>11      -0.0521
  29 C22       3.8671    -3.7319     0.6535  C.ar    1  <O>11       0.0106
  30 C23       1.2715    -5.5997    -2.2335  C.ar    1  <O>11      -0.0369
  31 H1        2.9041   -10.6687    -2.7201  H       1  <O>11       0.2954
  32 H2        0.8804    -6.9461    -5.2689  H       1  <O>11       0.1551
  33 H3        0.7661    -4.9200     0.2328  H       1  <O>11       0.0377
  34 H4        1.3478    -3.2411     0.1196  H       1  <O>11       0.0377
  35 H5        4.3485    -7.3575     1.7103  H       1  <O>11       0.1921
  36 H6        1.8757   -12.0122    -5.5360  H       1  <O>11       0.0626
  37 H7       -0.4623   -12.5999    -5.8602  H       1  <O>11       0.0618
  38 H8       -2.2138   -11.0911    -5.1078  H       1  <O>11       0.0618
  39 H9       -1.6184    -8.9973    -4.0287  H       1  <O>11       0.0625
  40 H10       1.8246    -4.6938    -5.4221  H       1  <O>11       0.0636
  41 H11       2.4533    -2.6181    -4.3308  H       1  <O>11       0.0618
  42 H12       2.3325    -2.4261    -1.9096  H       1  <O>11       0.0620
  43 H13       6.9150    -3.4232     2.0433  H       1  <O>11       0.0625
  44 H14       6.6258    -1.1328     1.3186  H       1  <O>11       0.0618
  45 H15       4.5875    -0.4662     0.1873  H       1  <O>11       0.0618
  46 H16       2.8466    -2.0940    -0.2262  H       1  <O>11       0.0624
  47 H17       0.9493    -6.3979    -1.6643  H       1  <O>11       0.0639
@<TRIPOS>BOND
     1     1     2    2
     2     2     3    1
     3     2     4    1
     4     4     5   ar
     5     5     6   ar
     6     6     7   ar
     7     7     8   ar
     8     8     9   ar
     9     4     9   ar
    10     9    10    1
    11    10    11    2
    12    10    12   am
    13    12    13    1
    14    13    14   ar
    15    14    15   ar
    16    15    16   ar
    17    16    17   ar
    18    17    18    1
    19    18    19    1
    20    19    20   ar
    21    20    21   ar
    22    21    22   ar
    23    22    23    2
    24    22    24   ar
    25    24    25   ar
    26    25    26   ar
    27    26    27   ar
    28    27    28   ar
    29    28    29   ar
    30    19    29   ar
    31    24    29   ar
    32    17    30   ar
    33    13    30   ar
    34     3    31    1
    35    12    32    1
    36    18    33    1
    37    18    34    1
    38    21    35    1
    39     5    36    1
    40     6    37    1
    41     7    38    1
    42     8    39    1
    43    14    40    1
    44    15    41    1
    45    16    42    1
    46    25    43    1
    47    26    44    1
    48    27    45    1
    49    28    46    1
    50    30    47    1
@<TRIPOS>MOLECULE
mol81_1_10
 47 50 0 0 0
SMALL
USER_CHARGES
****
VDW energy = -94.11
@<TRIPOS>ATOM
   1 O1        3.4420    -9.1855    -5.2979  O.2     1  <O>11      -0.2451
   2 C1        2.8552    -9.8129    -4.4288  C.2     1  <O>11       0.3375
   3 O2        3.5096   -10.1823    -3.3012  O.3     1  <O>11      -0.4771
   4 C2        1.4620   -10.1610    -4.6040  C.ar    1  <O>11       0.0709
   5 C3        1.1317   -11.3710    -5.2192  C.ar    1  <O>11      -0.0470
   6 C4       -0.2136   -11.7087    -5.4033  C.ar    1  <O>11      -0.0609
   7 C5       -1.2215   -10.8431    -4.9705  C.ar    1  <O>11      -0.0610
   8 C6       -0.8757    -9.6378    -4.3497  C.ar    1  <O>11      -0.0488
   9 C7        0.4633    -9.2929    -4.1603  C.ar    1  <O>11       0.0510
  10 C8        0.8223    -8.0499    -3.5110  C.2     1  <O>11       0.2490
  11 O3        0.9676    -8.0132    -2.2990  O.2     1  <O>11      -0.2698
  12 N1        1.0002    -6.9155    -4.2566  N.am    1  <O>11      -0.2815
  13 C9        1.3472    -5.7171    -3.6312  C.ar    1  <O>11       0.0339
  14 C10       1.7754    -4.6180    -4.3940  C.ar    1  <O>11      -0.0405
  15 C11       2.1355    -3.4207    -3.7652  C.ar    1  <O>11      -0.0597
  16 C12       2.0662    -3.3083    -2.3742  C.ar    1  <O>11      -0.0581
  17 C13       1.6328    -4.4016    -1.6162  C.ar    1  <O>11      -0.0398
  18 C14       1.5601    -4.2771    -0.1475  C.3     1  <O>11       0.0172
  19 C15       0.9855    -5.5207     0.4277  C.ar    1  <O>11       0.0736
  20 N2       -0.3983    -5.6340     0.6012  N.ar    1  <O>11      -0.1750
  21 N3       -0.9285    -6.7150     1.2192  N.ar    1  <O>11      -0.2425
  22 C16      -0.1011    -7.6944     1.6564  C.ar    1  <O>11       0.2725
  23 O4       -0.7055    -8.7426     2.3763  O.2     1  <O>11      -0.2658
  24 C17       1.2821    -7.7062     1.4300  C.ar    1  <O>11       0.0496
  25 C18       2.1398    -8.7547     1.8357  C.ar    1  <O>11      -0.0487
  26 C19       3.5141    -8.6885     1.6058  C.ar    1  <O>11      -0.0610
  27 C20       4.0595    -7.5734     0.9784  C.ar    1  <O>11      -0.0611
  28 C21       3.2298    -6.5266     0.5789  C.ar    1  <O>11      -0.0521
  29 C22       1.8337    -6.5793     0.7941  C.ar    1  <O>11       0.0106
  30 C23       1.2715    -5.5997    -2.2335  C.ar    1  <O>11      -0.0369
  31 H1        2.9041   -10.6687    -2.7201  H       1  <O>11       0.2954
  32 H2        0.8804    -6.9461    -5.2689  H       1  <O>11       0.1551
  33 H3        0.9264    -3.4297     0.1145  H       1  <O>11       0.0377
  34 H4        2.5619    -4.1194     0.2541  H       1  <O>11       0.0377
  35 H5       -1.9264    -6.7895     1.3517  H       1  <O>11       0.1921
  36 H6        1.8757   -12.0122    -5.5360  H       1  <O>11       0.0626
  37 H7       -0.4623   -12.5999    -5.8602  H       1  <O>11       0.0618
  38 H8       -2.2138   -11.0911    -5.1078  H       1  <O>11       0.0618
  39 H9       -1.6184    -8.9973    -4.0287  H       1  <O>11       0.0625
  40 H10       1.8246    -4.6938    -5.4221  H       1  <O>11       0.0636
  41 H11       2.4533    -2.6181    -4.3308  H       1  <O>11       0.0618
  42 H12       2.3325    -2.4261    -1.9096  H       1  <O>11       0.0620
  43 H13       1.7431    -9.5815     2.3090  H       1  <O>11       0.0625
  44 H14       4.1253    -9.4658     1.9008  H       1  <O>11       0.0618
  45 H15       5.0762    -7.5209     0.8091  H       1  <O>11       0.0618
  46 H16       3.6416    -5.6999     0.1186  H       1  <O>11       0.0624
  47 H17       0.9493    -6.3979    -1.6643  H       1  <O>11       0.0639
@<TRIPOS>BOND
     1     1     2    2
     2     2     3    1
     3     2     4    1
     4     4     5   ar
     5     5     6   ar
     6     6     7   ar
     7     7     8   ar
     8     8     9   ar
     9     4     9   ar
    10     9    10    1
    11    10    11    2
    12    10    12   am
    13    12    13    1
    14    13    14   ar
    15    14    15   ar
    16    15    16   ar
    17    16    17   ar
    18    17    18    1
    19    18    19    1
    20    19    20   ar
    21    20    21   ar
    22    21    22   ar
    23    22    23    2
    24    22    24   ar
    25    24    25   ar
    26    25    26   ar
    27    26    27   ar
    28    27    28   ar
    29    28    29   ar
    30    19    29   ar
    31    24    29   ar
    32    17    30   ar
    33    13    30   ar
    34     3    31    1
    35    12    32    1
    36    18    33    1
    37    18    34    1
    38    21    35    1
    39     5    36    1
    40     6    37    1
    41     7    38    1
    42     8    39    1
    43    14    40    1
    44    15    41    1
    45    16    42    1
    46    25    43    1
    47    26    44    1
    48    27    45    1
    49    28    46    1
    50    30    47    1
@<TRIPOS>MOLECULE
mol81_1_11
 47 50 0 0 0
SMALL
USER_CHARGES
****
VDW energy = -89.76
@<TRIPOS>ATOM
   1 O1        3.4420    -9.1855    -5.2979  O.2     1  <O>11      -0.2451
   2 C1        2.8552    -9.8129    -4.4288  C.2     1  <O>11       0.3375
   3 O2        3.5096   -10.1823    -3.3012  O.3     1  <O>11      -0.4771
   4 C2        1.4620   -10.1610    -4.6040  C.ar    1  <O>11       0.0709
   5 C3        0.5927    -9.2326    -5.1822  C.ar    1  <O>11      -0.0470
   6 C4       -0.7586    -9.5576    -5.3434  C.ar    1  <O>11      -0.0609
   7 C5       -1.2358   -10.8050    -4.9328  C.ar    1  <O>11      -0.0610
   8 C6       -0.3521   -11.7274    -4.3617  C.ar    1  <O>11      -0.0488
   9 C7        0.9977   -11.4130    -4.1980  C.ar    1  <O>11       0.0510
  10 C8        1.9146   -12.3694    -3.6147  C.2     1  <O>11       0.2490
  11 O3        3.1040   -12.3206    -3.8873  O.2     1  <O>11      -0.2698
  12 N1        1.4476   -13.3282    -2.7560  N.am    1  <O>11      -0.2815
  13 C9        2.3313   -14.2499    -2.1926  C.ar    1  <O>11       0.0339
  14 C10       3.0807   -15.1070    -3.0154  C.ar    1  <O>11      -0.0405
  15 C11       3.9571   -16.0397    -2.4493  C.ar    1  <O>11      -0.0597
  16 C12       4.0972   -16.1210    -1.0614  C.ar    1  <O>11      -0.0581
  17 C13       3.3555   -15.2618    -0.2435  C.ar    1  <O>11      -0.0398
  18 C14       3.5082   -15.3509     1.2217  C.3     1  <O>11       0.0172
  19 C15       4.9221   -15.0816     1.5902  C.ar    1  <O>11       0.0736
  20 N2        5.8777   -14.8811     0.5881  N.ar    1  <O>11      -0.1750
  21 N3        7.1863   -14.7393     0.9030  N.ar    1  <O>11      -0.2425
  22 C16       7.5577   -14.7804     2.2050  C.ar    1  <O>11       0.2725
  23 O4        8.9416   -14.7250     2.4581  O.2     1  <O>11      -0.2658
  24 C17       6.6534   -14.8731     3.2719  C.ar    1  <O>11       0.0496
  25 C18       7.0344   -14.8591     4.6336  C.ar    1  <O>11      -0.0487
  26 C19       6.0843   -14.9865     5.6469  C.ar    1  <O>11      -0.0610
  27 C20       4.7406   -15.1410     5.3225  C.ar    1  <O>11      -0.0611
  28 C21       4.3479   -15.1651     3.9850  C.ar    1  <O>11      -0.0521
  29 C22       5.2943   -15.0276     2.9440  C.ar    1  <O>11       0.0106
  30 C23       2.4789   -14.3284    -0.7980  C.ar    1  <O>11      -0.0369
  31 H1        2.9041   -10.6687    -2.7201  H       1  <O>11       0.2954
  32 H2        0.4548   -13.3683    -2.5270  H       1  <O>11       0.1551
  33 H3        3.2302   -16.3506     1.5559  H       1  <O>11       0.0377
  34 H4        2.8607   -14.6149     1.7002  H       1  <O>11       0.0377
  35 H5        7.8748   -14.6046     0.1772  H       1  <O>11       0.1921
  36 H6        0.9453    -8.3124    -5.4886  H       1  <O>11       0.0626
  37 H7       -1.4050    -8.8737    -5.7669  H       1  <O>11       0.0618
  38 H8       -2.2328   -11.0443    -5.0499  H       1  <O>11       0.0618
  39 H9       -0.7021   -12.6495    -4.0583  H       1  <O>11       0.0625
  40 H10       2.9845   -15.0487    -4.0413  H       1  <O>11       0.0636
  41 H11       4.5018   -16.6695    -3.0589  H       1  <O>11       0.0618
  42 H12       4.7425   -16.8092    -0.6431  H       1  <O>11       0.0620
  43 H13       8.0306   -14.7530     4.8815  H       1  <O>11       0.0625
  44 H14       6.3779   -14.9661     6.6360  H       1  <O>11       0.0618
  45 H15       4.0359   -15.2377     6.0703  H       1  <O>11       0.0618
  46 H16       3.3500   -15.2852     3.7511  H       1  <O>11       0.0624
  47 H17       1.9402   -13.6970    -0.1846  H       1  <O>11       0.0639
@<TRIPOS>BOND
     1     1     2    2
     2     2     3    1
     3     2     4    1
     4     4     5   ar
     5     5     6   ar
     6     6     7   ar
     7     7     8   ar
     8     8     9   ar
     9     4     9   ar
    10     9    10    1
    11    10    11    2
    12    10    12   am
    13    12    13    1
    14    13    14   ar
    15    14    15   ar
    16    15    16   ar
    17    16    17   ar
    18    17    18    1
    19    18    19    1
    20    19    20   ar
    21    20    21   ar
    22    21    22   ar
    23    22    23    2
    24    22    24   ar
    25    24    25   ar
    26    25    26   ar
    27    26    27   ar
    28    27    28   ar
    29    28    29   ar
    30    19    29   ar
    31    24    29   ar
    32    17    30   ar
    33    13    30   ar
    34     3    31    1
    35    12    32    1
    36    18    33    1
    37    18    34    1
    38    21    35    1
    39     5    36    1
    40     6    37    1
    41     7    38    1
    42     8    39    1
    43    14    40    1
    44    15    41    1
    45    16    42    1
    46    25    43    1
    47    26    44    1
    48    27    45    1
    49    28    46    1
    50    30    47    1
@<TRIPOS>MOLECULE
mol81_1_12
 47 50 0 0 0
SMALL
USER_CHARGES
****
VDW energy = -86.76
@<TRIPOS>ATOM
   1 O1        3.4420    -9.1855    -5.2979  O.2     1  <O>11      -0.2451
   2 C1        2.8552    -9.8129    -4.4288  C.2     1  <O>11       0.3375
   3 O2        3.5096   -10.1823    -3.3012  O.3     1  <O>11      -0.4771
   4 C2        1.4620   -10.1610    -4.6040  C.ar    1  <O>11       0.0709
   5 C3        0.8788   -11.0990    -3.7486  C.ar    1  <O>11      -0.0470
   6 C4       -0.4648   -11.4499    -3.9199  C.ar    1  <O>11      -0.0609
   7 C5       -1.2208   -10.8626    -4.9377  C.ar    1  <O>11      -0.0610
   8 C6       -0.6252    -9.9195    -5.7824  C.ar    1  <O>11      -0.0488
   9 C7        0.7138    -9.5619    -5.6186  C.ar    1  <O>11       0.0510
  10 C8        1.3290    -8.5804    -6.4867  C.2     1  <O>11       0.2490
  11 O3        1.3025    -7.3969    -6.1867  O.2     1  <O>11      -0.2698
  12 N1        1.9419    -8.9799    -7.6441  N.am    1  <O>11      -0.2815
  13 C9        2.5360    -8.0341    -8.4809  C.ar    1  <O>11       0.0339
  14 C10       3.3771    -8.4442    -9.5286  C.ar    1  <O>11      -0.0405
  15 C11       3.9826    -7.4947   -10.3595  C.ar    1  <O>11      -0.0597
  16 C12       3.7503    -6.1319   -10.1561  C.ar    1  <O>11      -0.0581
  17 C13       2.9067    -5.7253    -9.1167  C.ar    1  <O>11      -0.0398
  18 C14       2.6636    -4.2849    -8.9071  C.3     1  <O>11       0.0172
  19 C15       3.6796    -3.7417    -7.9689  C.ar    1  <O>11       0.0736
  20 N2        4.6112    -4.6011    -7.3762  N.ar    1  <O>11      -0.1750
  21 N3        5.4747    -4.1411    -6.4410  N.ar    1  <O>11      -0.2425
  22 C16       5.4341    -2.8321    -6.0955  C.ar    1  <O>11       0.2725
  23 O4        6.2899    -2.4392    -5.0489  O.2     1  <O>11      -0.2658
  24 C17       4.6045    -1.8870    -6.7146  C.ar    1  <O>11       0.0496
  25 C18       4.6008    -0.5095    -6.3948  C.ar    1  <O>11      -0.0487
  26 C19       3.7262     0.3730    -7.0289  C.ar    1  <O>11      -0.0610
  27 C20       2.8330    -0.1017    -7.9837  C.ar    1  <O>11      -0.0611
  28 C21       2.8173    -1.4581    -8.3056  C.ar    1  <O>11      -0.0521
  29 C22       3.7024    -2.3666    -7.6813  C.ar    1  <O>11       0.0106
  30 C23       2.2981    -6.6640    -8.2827  C.ar    1  <O>11      -0.0369
  31 H1        2.9041   -10.6687    -2.7201  H       1  <O>11       0.2954
  32 H2        1.9656    -9.9682    -7.8942  H       1  <O>11       0.1551
  33 H3        1.6681    -4.1417    -8.4864  H       1  <O>11       0.0377
  34 H4        2.7330    -3.7616    -9.8617  H       1  <O>11       0.0377
  35 H5        6.1391    -4.7656    -6.0080  H       1  <O>11       0.1921
  36 H6        1.4358   -11.5307    -2.9947  H       1  <O>11       0.0626
  37 H7       -0.8989   -12.1448    -3.2925  H       1  <O>11       0.0618
  38 H8       -2.2113   -11.1225    -5.0654  H       1  <O>11       0.0618
  39 H9       -1.1817    -9.4838    -6.5344  H       1  <O>11       0.0625
  40 H10       3.5491    -9.4495    -9.6862  H       1  <O>11       0.0636
  41 H11       4.6029    -7.8020   -11.1249  H       1  <O>11       0.0618
  42 H12       4.1972    -5.4310   -10.7677  H       1  <O>11       0.0620
  43 H13       5.2552    -0.1516    -5.6815  H       1  <O>11       0.0625
  44 H14       3.7418     1.3768    -6.7900  H       1  <O>11       0.0618
  45 H15       2.1834     0.5487    -8.4527  H       1  <O>11       0.0618
  46 H16       2.1486    -1.8046    -9.0111  H       1  <O>11       0.0624
  47 H17       1.6745    -6.3523    -7.5219  H       1  <O>11       0.0639
@<TRIPOS>BOND
     1     1     2    2
     2     2     3    1
     3     2     4    1
     4     4     5   ar
     5     5     6   ar
     6     6     7   ar
     7     7     8   ar
     8     8     9   ar
     9     4     9   ar
    10     9    10    1
    11    10    11    2
    12    10    12   am
    13    12    13    1
    14    13    14   ar
    15    14    15   ar
    16    15    16   ar
    17    16    17   ar
    18    17    18    1
    19    18    19    1
    20    19    20   ar
    21    20    21   ar
    22    21    22   ar
    23    22    23    2
    24    22    24   ar
    25    24    25   ar
    26    25    26   ar
    27    26    27   ar
    28    27    28   ar
    29    28    29   ar
    30    19    29   ar
    31    24    29   ar
    32    17    30   ar
    33    13    30   ar
    34     3    31    1
    35    12    32    1
    36    18    33    1
    37    18    34    1
    38    21    35    1
    39     5    36    1
    40     6    37    1
    41     7    38    1
    42     8    39    1
    43    14    40    1
    44    15    41    1
    45    16    42    1
    46    25    43    1
    47    26    44    1
    48    27    45    1
    49    28    46    1
    50    30    47    1
@<TRIPOS>MOLECULE
mol81_1_13
 47 50 0 0 0
SMALL
USER_CHARGES
****
VDW energy = -86.27
@<TRIPOS>ATOM
   1 O1        3.4420    -9.1855    -5.2979  O.2     1  <O>11      -0.2451
   2 C1        2.8552    -9.8129    -4.4288  C.2     1  <O>11       0.3375
   3 O2        3.5096   -10.1823    -3.3012  O.3     1  <O>11      -0.4771
   4 C2        1.4620   -10.1610    -4.6040  C.ar    1  <O>11       0.0709
   5 C3        0.5927    -9.2326    -5.1822  C.ar    1  <O>11      -0.0470
   6 C4       -0.7586    -9.5576    -5.3434  C.ar    1  <O>11      -0.0609
   7 C5       -1.2358   -10.8050    -4.9328  C.ar    1  <O>11      -0.0610
   8 C6       -0.3521   -11.7274    -4.3617  C.ar    1  <O>11      -0.0488
   9 C7        0.9977   -11.4130    -4.1980  C.ar    1  <O>11       0.0510
  10 C8        1.9146   -12.3694    -3.6147  C.2     1  <O>11       0.2490
  11 O3        2.0942   -12.3857    -2.4069  O.2     1  <O>11      -0.2698
  12 N1        2.5794   -13.2569    -4.4180  N.am    1  <O>11      -0.2815
  13 C9        3.4627   -14.1797    -3.8560  C.ar    1  <O>11       0.0339
  14 C10       3.9540   -15.2484    -4.6240  C.ar    1  <O>11      -0.0405
  15 C11       4.8297   -16.1807    -4.0562  C.ar    1  <O>11      -0.0597
  16 C12       5.2261   -16.0518    -2.7225  C.ar    1  <O>11      -0.0581
  17 C13       4.7415   -14.9830    -1.9608  C.ar    1  <O>11      -0.0398
  18 C14       5.1643   -14.8507    -0.5531  C.3     1  <O>11       0.0172
  19 C15       4.7515   -16.0604     0.2045  C.ar    1  <O>11       0.0736
  20 N2        3.9983   -17.0556    -0.4279  N.ar    1  <O>11      -0.1750
  21 N3        3.5257   -18.1118     0.2741  N.ar    1  <O>11      -0.2425
  22 C16       3.8035   -18.1999     1.5969  C.ar    1  <O>11       0.2725
  23 O4        3.2016   -19.2686     2.2881  O.2     1  <O>11      -0.2658
  24 C17       4.6351   -17.3026     2.2810  C.ar    1  <O>11       0.0496
  25 C18       4.9723   -17.4244     3.6489  C.ar    1  <O>11      -0.0487
  26 C19       5.7816   -16.4773     4.2765  C.ar    1  <O>11      -0.0610
  27 C20       6.2599   -15.3874     3.5568  C.ar    1  <O>11      -0.0611
  28 C21       5.9308   -15.2471     2.2093  C.ar    1  <O>11      -0.0521
  29 C22       5.1203   -16.2012     1.5529  C.ar    1  <O>11       0.0106
  30 C23       3.8680   -14.0481    -2.5176  C.ar    1  <O>11      -0.0369
  31 H1        2.9041   -10.6687    -2.7201  H       1  <O>11       0.2954
  32 H2        2.4284   -13.2446    -5.4264  H       1  <O>11       0.1551
  33 H3        4.6953   -13.9701    -0.1140  H       1  <O>11       0.0377
  34 H4        6.2491   -14.7453    -0.5076  H       1  <O>11       0.0377
  35 H5        2.9743   -18.8234    -0.1828  H       1  <O>11       0.1921
  36 H6        0.9453    -8.3124    -5.4886  H       1  <O>11       0.0626
  37 H7       -1.4050    -8.8737    -5.7669  H       1  <O>11       0.0618
  38 H8       -2.2328   -11.0443    -5.0499  H       1  <O>11       0.0618
  39 H9       -0.7021   -12.6495    -4.0583  H       1  <O>11       0.0625
  40 H10       3.6680   -15.3463    -5.6108  H       1  <O>11       0.0636
  41 H11       5.1839   -16.9661    -4.6243  H       1  <O>11       0.0618
  42 H12       5.8710   -16.7395    -2.3026  H       1  <O>11       0.0620
  43 H13       4.6143   -18.2262     4.1911  H       1  <O>11       0.0625
  44 H14       6.0251   -16.5851     5.2735  H       1  <O>11       0.0618
  45 H15       6.8570   -14.6841     4.0194  H       1  <O>11       0.0618
  46 H16       6.2848   -14.4334     1.6825  H       1  <O>11       0.0624
  47 H17       3.5205   -13.2614    -1.9471  H       1  <O>11       0.0639
@<TRIPOS>BOND
     1     1     2    2
     2     2     3    1
     3     2     4    1
     4     4     5   ar
     5     5     6   ar
     6     6     7   ar
     7     7     8   ar
     8     8     9   ar
     9     4     9   ar
    10     9    10    1
    11    10    11    2
    12    10    12   am
    13    12    13    1
    14    13    14   ar
    15    14    15   ar
    16    15    16   ar
    17    16    17   ar
    18    17    18    1
    19    18    19    1
    20    19    20   ar
    21    20    21   ar
    22    21    22   ar
    23    22    23    2
    24    22    24   ar
    25    24    25   ar
    26    25    26   ar
    27    26    27   ar
    28    27    28   ar
    29    28    29   ar
    30    19    29   ar
    31    24    29   ar
    32    17    30   ar
    33    13    30   ar
    34     3    31    1
    35    12    32    1
    36    18    33    1
    37    18    34    1
    38    21    35    1
    39     5    36    1
    40     6    37    1
    41     7    38    1
    42     8    39    1
    43    14    40    1
    44    15    41    1
    45    16    42    1
    46    25    43    1
    47    26    44    1
    48    27    45    1
    49    28    46    1
    50    30    47    1
@<TRIPOS>MOLECULE
mol81_1_14
 47 50 0 0 0
SMALL
USER_CHARGES
****
VDW energy = -85.69
@<TRIPOS>ATOM
   1 O1        3.4420    -9.1855    -5.2979  O.2     1  <O>11      -0.2451
   2 C1        2.8552    -9.8129    -4.4288  C.2     1  <O>11       0.3375
   3 O2        3.5096   -10.1823    -3.3012  O.3     1  <O>11      -0.4771
   4 C2        1.4620   -10.1610    -4.6040  C.ar    1  <O>11       0.0709
   5 C3        1.0120   -10.5683    -5.8623  C.ar    1  <O>11      -0.0470
   6 C4       -0.3367   -10.8946    -6.0422  C.ar    1  <O>11      -0.0609
   7 C5       -1.2280   -10.8179    -4.9689  C.ar    1  <O>11      -0.0610
   8 C6       -0.7616   -10.4151    -3.7128  C.ar    1  <O>11      -0.0488
   9 C7        0.5820   -10.0891    -3.5231  C.ar    1  <O>11       0.0510
  10 C8        1.0675    -9.6799    -2.2221  C.2     1  <O>11       0.2490
  11 O3        1.4841   -10.5153    -1.4347  O.2     1  <O>11      -0.2698
  12 N1        1.0605    -8.3554    -1.8753  N.am    1  <O>11      -0.2815
  13 C9        1.5292    -7.9603    -0.6215  C.ar    1  <O>11       0.0339
  14 C10       1.7624    -6.6023    -0.3481  C.ar    1  <O>11      -0.0405
  15 C11       2.2446    -6.2081     0.9051  C.ar    1  <O>11      -0.0597
  16 C12       2.4922    -7.1623     1.8955  C.ar    1  <O>11      -0.0581
  17 C13       2.2527    -8.5137     1.6240  C.ar    1  <O>11      -0.0398
  18 C14       2.5146    -9.5173     2.6739  C.3     1  <O>11       0.0172
  19 C15       3.9481    -9.4673     3.0613  C.ar    1  <O>11       0.0736
  20 N2        4.8242    -8.6128     2.3830  N.ar    1  <O>11      -0.1750
  21 N3        6.1504    -8.6316     2.6522  N.ar    1  <O>11      -0.2425
  22 C16       6.6177    -9.4807     3.5984  C.ar    1  <O>11       0.2725
  23 O4        8.0156    -9.5210     3.7610  O.2     1  <O>11      -0.2658
  24 C17       5.7960   -10.2918     4.3933  C.ar    1  <O>11       0.0496
  25 C18       6.2765   -11.1368     5.4203  C.ar    1  <O>11      -0.0487
  26 C19       5.4057   -11.9425     6.1540  C.ar    1  <O>11      -0.0610
  27 C20       4.0440   -11.9294     5.8712  C.ar    1  <O>11      -0.0611
  28 C21       3.5538   -11.1083     4.8567  C.ar    1  <O>11      -0.0521
  29 C22       4.4186   -10.2773     4.1085  C.ar    1  <O>11       0.0106
  30 C23       1.7720    -8.9171     0.3777  C.ar    1  <O>11      -0.0369
  31 H1        2.9041   -10.6687    -2.7201  H       1  <O>11       0.2954
  32 H2        0.7141    -7.6574    -2.5331  H       1  <O>11       0.1551
  33 H3        2.2758   -10.5110     2.2944  H       1  <O>11       0.0377
  34 H4        1.8944    -9.3025     3.5451  H       1  <O>11       0.0377
  35 H5        6.7814    -8.0208     2.1543  H       1  <O>11       0.1921
  36 H6        1.6706   -10.6282    -6.6546  H       1  <O>11       0.0626
  37 H7       -0.6742   -11.1927    -6.9707  H       1  <O>11       0.0618
  38 H8       -2.2232   -11.0568    -5.1017  H       1  <O>11       0.0618
  39 H9       -1.4179   -10.3584    -2.9184  H       1  <O>11       0.0625
  40 H10       1.5774    -5.8927    -1.0742  H       1  <O>11       0.0636
  41 H11       2.4179    -5.2093     1.0986  H       1  <O>11       0.0618
  42 H12       2.8488    -6.8725     2.8196  H       1  <O>11       0.0620
  43 H13       7.2867   -11.1578     5.6301  H       1  <O>11       0.0625
  44 H14       5.7714   -12.5476     6.9058  H       1  <O>11       0.0618
  45 H15       3.3979   -12.5262     6.4111  H       1  <O>11       0.0618
  46 H16       2.5430   -11.1072     4.6485  H       1  <O>11       0.0624
  47 H17       1.5952    -9.9165     0.1906  H       1  <O>11       0.0639
@<TRIPOS>BOND
     1     1     2    2
     2     2     3    1
     3     2     4    1
     4     4     5   ar
     5     5     6   ar
     6     6     7   ar
     7     7     8   ar
     8     8     9   ar
     9     4     9   ar
    10     9    10    1
    11    10    11    2
    12    10    12   am
    13    12    13    1
    14    13    14   ar
    15    14    15   ar
    16    15    16   ar
    17    16    17   ar
    18    17    18    1
    19    18    19    1
    20    19    20   ar
    21    20    21   ar
    22    21    22   ar
    23    22    23    2
    24    22    24   ar
    25    24    25   ar
    26    25    26   ar
    27    26    27   ar
    28    27    28   ar
    29    28    29   ar
    30    19    29   ar
    31    24    29   ar
    32    17    30   ar
    33    13    30   ar
    34     3    31    1
    35    12    32    1
    36    18    33    1
    37    18    34    1
    38    21    35    1
    39     5    36    1
    40     6    37    1
    41     7    38    1
    42     8    39    1
    43    14    40    1
    44    15    41    1
    45    16    42    1
    46    25    43    1
    47    26    44    1
    48    27    45    1
    49    28    46    1
    50    30    47    1
@<TRIPOS>MOLECULE
mol81_1_15
 47 50 0 0 0
SMALL
USER_CHARGES
****
VDW energy = -84.92
@<TRIPOS>ATOM
   1 O1        3.4420    -9.1855    -5.2979  O.2     1  <O>11      -0.2451
   2 C1        2.8552    -9.8129    -4.4288  C.2     1  <O>11       0.3375
   3 O2        3.5096   -10.1823    -3.3012  O.3     1  <O>11      -0.4771
   4 C2        1.4620   -10.1610    -4.6040  C.ar    1  <O>11       0.0709
   5 C3        0.5927    -9.2326    -5.1822  C.ar    1  <O>11      -0.0470
   6 C4       -0.7586    -9.5576    -5.3434  C.ar    1  <O>11      -0.0609
   7 C5       -1.2358   -10.8050    -4.9328  C.ar    1  <O>11      -0.0610
   8 C6       -0.3521   -11.7274    -4.3617  C.ar    1  <O>11      -0.0488
   9 C7        0.9977   -11.4130    -4.1980  C.ar    1  <O>11       0.0510
  10 C8        1.9146   -12.3694    -3.6147  C.2     1  <O>11       0.2490
  11 O3        3.1040   -12.3206    -3.8873  O.2     1  <O>11      -0.2698
  12 N1        1.4476   -13.3282    -2.7560  N.am    1  <O>11      -0.2815
  13 C9        2.3313   -14.2499    -2.1926  C.ar    1  <O>11       0.0339
  14 C10       3.3996   -13.8098    -1.3937  C.ar    1  <O>11      -0.0405
  15 C11       4.2928   -14.7338    -0.8395  C.ar    1  <O>11      -0.0597
  16 C12       4.1248   -16.1013    -1.0724  C.ar    1  <O>11      -0.0581
  17 C13       3.0561   -16.5385    -1.8625  C.ar    1  <O>11      -0.0398
  18 C14       2.8824   -17.9839    -2.1043  C.3     1  <O>11       0.0172
  19 C15       2.6932   -18.6844    -0.8077  C.ar    1  <O>11       0.0736
  20 N2        3.5956   -19.6787    -0.4143  N.ar    1  <O>11      -0.1750
  21 N3        3.3796   -20.3981     0.7116  N.ar    1  <O>11      -0.2425
  22 C16       2.2831   -20.1330     1.4614  C.ar    1  <O>11       0.2725
  23 O4        2.0651   -20.9806     2.5642  O.2     1  <O>11      -0.2658
  24 C17       1.3888   -19.0875     1.1935  C.ar    1  <O>11       0.0496
  25 C18       0.2752   -18.7731     2.0064  C.ar    1  <O>11      -0.0487
  26 C19      -0.5942   -17.7371     1.6646  C.ar    1  <O>11      -0.0610
  27 C20      -0.3767   -17.0038     0.5029  C.ar    1  <O>11      -0.0611
  28 C21       0.7117   -17.3052    -0.3146  C.ar    1  <O>11      -0.0521
  29 C22       1.6095   -18.3447     0.0196  C.ar    1  <O>11       0.0106
  30 C23       2.1601   -15.6254    -2.4196  C.ar    1  <O>11      -0.0369
  31 H1        2.9041   -10.6687    -2.7201  H       1  <O>11       0.2954
  32 H2        0.4548   -13.3683    -2.5270  H       1  <O>11       0.1551
  33 H3        3.7678   -18.3779    -2.6036  H       1  <O>11       0.0377
  34 H4        2.0076   -18.1445    -2.7358  H       1  <O>11       0.0377
  35 H5        4.0272   -21.1215     0.9877  H       1  <O>11       0.1921
  36 H6        0.9453    -8.3124    -5.4886  H       1  <O>11       0.0626
  37 H7       -1.4050    -8.8737    -5.7669  H       1  <O>11       0.0618
  38 H8       -2.2328   -11.0443    -5.0499  H       1  <O>11       0.0618
  39 H9       -0.7021   -12.6495    -4.0583  H       1  <O>11       0.0625
  40 H10       3.5263   -12.8014    -1.2147  H       1  <O>11       0.0636
  41 H11       5.0782   -14.4040    -0.2568  H       1  <O>11       0.0618
  42 H12       4.7836   -16.7832    -0.6650  H       1  <O>11       0.0620
  43 H13       0.1030   -19.3183     2.8655  H       1  <O>11       0.0625
  44 H14      -1.3976   -17.5150     2.2729  H       1  <O>11       0.0618
  45 H15      -1.0197   -16.2383     0.2466  H       1  <O>11       0.0618
  46 H16       0.8643   -16.7606    -1.1778  H       1  <O>11       0.0624
  47 H17       1.3731   -15.9601    -2.9973  H       1  <O>11       0.0639
@<TRIPOS>BOND
     1     1     2    2
     2     2     3    1
     3     2     4    1
     4     4     5   ar
     5     5     6   ar
     6     6     7   ar
     7     7     8   ar
     8     8     9   ar
     9     4     9   ar
    10     9    10    1
    11    10    11    2
    12    10    12   am
    13    12    13    1
    14    13    14   ar
    15    14    15   ar
    16    15    16   ar
    17    16    17   ar
    18    17    18    1
    19    18    19    1
    20    19    20   ar
    21    20    21   ar
    22    21    22   ar
    23    22    23    2
    24    22    24   ar
    25    24    25   ar
    26    25    26   ar
    27    26    27   ar
    28    27    28   ar
    29    28    29   ar
    30    19    29   ar
    31    24    29   ar
    32    17    30   ar
    33    13    30   ar
    34     3    31    1
    35    12    32    1
    36    18    33    1
    37    18    34    1
    38    21    35    1
    39     5    36    1
    40     6    37    1
    41     7    38    1
    42     8    39    1
    43    14    40    1
    44    15    41    1
    45    16    42    1
    46    25    43    1
    47    26    44    1
    48    27    45    1
    49    28    46    1
    50    30    47    1
@<TRIPOS>MOLECULE
mol81_1_16
 47 50 0 0 0
SMALL
USER_CHARGES
****
VDW energy = -83.02
@<TRIPOS>ATOM
   1 O1        3.4420    -9.1855    -5.2979  O.2     1  <O>11      -0.2451
   2 C1        2.8552    -9.8129    -4.4288  C.2     1  <O>11       0.3375
   3 O2        3.5096   -10.1823    -3.3012  O.3     1  <O>11      -0.4771
   4 C2        1.4620   -10.1610    -4.6040  C.ar    1  <O>11       0.0709
   5 C3        0.8788   -11.0990    -3.7486  C.ar    1  <O>11      -0.0470
   6 C4       -0.4648   -11.4499    -3.9199  C.ar    1  <O>11      -0.0609
   7 C5       -1.2208   -10.8626    -4.9377  C.ar    1  <O>11      -0.0610
   8 C6       -0.6252    -9.9195    -5.7824  C.ar    1  <O>11      -0.0488
   9 C7        0.7138    -9.5619    -5.6186  C.ar    1  <O>11       0.0510
  10 C8        1.3290    -8.5804    -6.4867  C.2     1  <O>11       0.2490
  11 O3        1.3025    -7.3969    -6.1867  O.2     1  <O>11      -0.2698
  12 N1        1.9419    -8.9799    -7.6441  N.am    1  <O>11      -0.2815
  13 C9        2.5360    -8.0341    -8.4809  C.ar    1  <O>11       0.0339
  14 C10       3.3771    -8.4442    -9.5286  C.ar    1  <O>11      -0.0405
  15 C11       3.9826    -7.4947   -10.3595  C.ar    1  <O>11      -0.0597
  16 C12       3.7503    -6.1319   -10.1561  C.ar    1  <O>11      -0.0581
  17 C13       2.9067    -5.7253    -9.1167  C.ar    1  <O>11      -0.0398
  18 C14       2.6636    -4.2849    -8.9071  C.3     1  <O>11       0.0172
  19 C15       3.9519    -3.6002    -8.6258  C.ar    1  <O>11       0.0736
  20 N2        5.1289    -4.3482    -8.5136  N.ar    1  <O>11      -0.1750
  21 N3        6.2907    -3.7541    -8.1546  N.ar    1  <O>11      -0.2425
  22 C16       6.3019    -2.4204    -7.9181  C.ar    1  <O>11       0.2725
  23 O4        7.5173    -1.8820    -7.4543  O.2     1  <O>11      -0.2658
  24 C17       5.1927    -1.5848    -8.1087  C.ar    1  <O>11       0.0496
  25 C18       5.2171    -0.1840    -7.9171  C.ar    1  <O>11      -0.0487
  26 C19       4.0673     0.5856    -8.0946  C.ar    1  <O>11      -0.0610
  27 C20       2.8716    -0.0266    -8.4550  C.ar    1  <O>11      -0.0611
  28 C21       2.8273    -1.4077    -8.6404  C.ar    1  <O>11      -0.0521
  29 C22       3.9838    -2.2036    -8.4749  C.ar    1  <O>11       0.0106
  30 C23       2.2981    -6.6640    -8.2827  C.ar    1  <O>11      -0.0369
  31 H1        2.9041   -10.6687    -2.7201  H       1  <O>11       0.2954
  32 H2        1.9656    -9.9682    -7.8942  H       1  <O>11       0.1551
  33 H3        1.9886    -4.1494    -8.0618  H       1  <O>11       0.0377
  34 H4        2.2127    -3.8579    -9.8039  H       1  <O>11       0.0377
  35 H5        7.1364    -4.2980    -8.0650  H       1  <O>11       0.1921
  36 H6        1.4358   -11.5307    -2.9947  H       1  <O>11       0.0626
  37 H7       -0.8989   -12.1448    -3.2925  H       1  <O>11       0.0618
  38 H8       -2.2113   -11.1225    -5.0654  H       1  <O>11       0.0618
  39 H9       -1.1817    -9.4838    -6.5344  H       1  <O>11       0.0625
  40 H10       3.5491    -9.4495    -9.6862  H       1  <O>11       0.0636
  41 H11       4.6029    -7.8020   -11.1249  H       1  <O>11       0.0618
  42 H12       4.1972    -5.4310   -10.7677  H       1  <O>11       0.0620
  43 H13       6.0989     0.2760    -7.6416  H       1  <O>11       0.0625
  44 H14       4.1038     1.6079    -7.9588  H       1  <O>11       0.0618
  45 H15       2.0190     0.5402    -8.5849  H       1  <O>11       0.0618
  46 H16       1.9357    -1.8563    -8.9028  H       1  <O>11       0.0624
  47 H17       1.6745    -6.3523    -7.5219  H       1  <O>11       0.0639
@<TRIPOS>BOND
     1     1     2    2
     2     2     3    1
     3     2     4    1
     4     4     5   ar
     5     5     6   ar
     6     6     7   ar
     7     7     8   ar
     8     8     9   ar
     9     4     9   ar
    10     9    10    1
    11    10    11    2
    12    10    12   am
    13    12    13    1
    14    13    14   ar
    15    14    15   ar
    16    15    16   ar
    17    16    17   ar
    18    17    18    1
    19    18    19    1
    20    19    20   ar
    21    20    21   ar
    22    21    22   ar
    23    22    23    2
    24    22    24   ar
    25    24    25   ar
    26    25    26   ar
    27    26    27   ar
    28    27    28   ar
    29    28    29   ar
    30    19    29   ar
    31    24    29   ar
    32    17    30   ar
    33    13    30   ar
    34     3    31    1
    35    12    32    1
    36    18    33    1
    37    18    34    1
    38    21    35    1
    39     5    36    1
    40     6    37    1
    41     7    38    1
    42     8    39    1
    43    14    40    1
    44    15    41    1
    45    16    42    1
    46    25    43    1
    47    26    44    1
    48    27    45    1
    49    28    46    1
    50    30    47    1
@<TRIPOS>MOLECULE
mol81_1_17
 47 50 0 0 0
SMALL
USER_CHARGES
****
VDW energy = -81.17
@<TRIPOS>ATOM
   1 O1        3.4420    -9.1855    -5.2979  O.2     1  <O>11      -0.2451
   2 C1        2.8552    -9.8129    -4.4288  C.2     1  <O>11       0.3375
   3 O2        3.5096   -10.1823    -3.3012  O.3     1  <O>11      -0.4771
   4 C2        1.4620   -10.1610    -4.6040  C.ar    1  <O>11       0.0709
   5 C3        1.1317   -11.3710    -5.2192  C.ar    1  <O>11      -0.0470
   6 C4       -0.2136   -11.7087    -5.4033  C.ar    1  <O>11      -0.0609
   7 C5       -1.2215   -10.8431    -4.9705  C.ar    1  <O>11      -0.0610
   8 C6       -0.8757    -9.6378    -4.3497  C.ar    1  <O>11      -0.0488
   9 C7        0.4633    -9.2929    -4.1603  C.ar    1  <O>11       0.0510
  10 C8        0.8223    -8.0499    -3.5110  C.2     1  <O>11       0.2490
  11 O3        0.2503    -7.7074    -2.4878  O.2     1  <O>11      -0.2698
  12 N1        1.8047    -7.2590    -4.0439  N.am    1  <O>11      -0.2815
  13 C9        2.1518    -6.0610    -3.4177  C.ar    1  <O>11       0.0339
  14 C10       1.1932    -5.0493    -3.2430  C.ar    1  <O>11      -0.0405
  15 C11       1.5452    -3.8433    -2.6264  C.ar    1  <O>11      -0.0597
  16 C12       2.8518    -3.6393    -2.1750  C.ar    1  <O>11      -0.0581
  17 C13       3.8037    -4.6507    -2.3433  C.ar    1  <O>11      -0.0398
  18 C14       5.1819    -4.4306    -1.8636  C.3     1  <O>11       0.0172
  19 C15       5.9796    -5.6684    -2.0619  C.ar    1  <O>11       0.0736
  20 N2        6.5586    -6.3085    -0.9606  N.ar    1  <O>11      -0.1750
  21 N3        7.3735    -7.3750    -1.1343  N.ar    1  <O>11      -0.2425
  22 C16       7.6109    -7.8239    -2.3900  C.ar    1  <O>11       0.2725
  23 O4        8.5427    -8.8726    -2.5089  O.2     1  <O>11      -0.2658
  24 C17       6.9897    -7.3053    -3.5345  C.ar    1  <O>11       0.0496
  25 C18       7.1927    -7.8092    -4.8401  C.ar    1  <O>11      -0.0487
  26 C19       6.5657    -7.2255    -5.9410  C.ar    1  <O>11      -0.0610
  27 C20       5.7352    -6.1240    -5.7631  C.ar    1  <O>11      -0.0611
  28 C21       5.5301    -5.6090    -4.4839  C.ar    1  <O>11      -0.0521
  29 C22       6.1485    -6.1925    -3.3545  C.ar    1  <O>11       0.0106
  30 C23       3.4629    -5.8567    -2.9568  C.ar    1  <O>11      -0.0369
  31 H1        2.9041   -10.6687    -2.7201  H       1  <O>11       0.2954
  32 H2        2.2836    -7.5454    -4.8974  H       1  <O>11       0.1551
  33 H3        5.1616    -4.1781    -0.8033  H       1  <O>11       0.0377
  34 H4        5.6354    -3.6116    -2.4234  H       1  <O>11       0.0377
  35 H5        7.7976    -7.8288    -0.3385  H       1  <O>11       0.1921
  36 H6        1.8757   -12.0122    -5.5360  H       1  <O>11       0.0626
  37 H7       -0.4623   -12.5999    -5.8602  H       1  <O>11       0.0618
  38 H8       -2.2138   -11.0911    -5.1078  H       1  <O>11       0.0618
  39 H9       -1.6184    -8.9973    -4.0287  H       1  <O>11       0.0625
  40 H10       0.2256    -5.1959    -3.5706  H       1  <O>11       0.0636
  41 H11       0.8375    -3.1021    -2.5046  H       1  <O>11       0.0618
  42 H12       3.1125    -2.7498    -1.7211  H       1  <O>11       0.0620
  43 H13       7.8140    -8.6211    -4.9806  H       1  <O>11       0.0625
  44 H14       6.7179    -7.6103    -6.8864  H       1  <O>11       0.0618
  45 H15       5.2719    -5.6890    -6.5762  H       1  <O>11       0.0618
  46 H16       4.9167    -4.7885    -4.3594  H       1  <O>11       0.0624
  47 H17       4.1726    -6.5970    -3.0717  H       1  <O>11       0.0639
@<TRIPOS>BOND
     1     1     2    2
     2     2     3    1
     3     2     4    1
     4     4     5   ar
     5     5     6   ar
     6     6     7   ar
     7     7     8   ar
     8     8     9   ar
     9     4     9   ar
    10     9    10    1
    11    10    11    2
    12    10    12   am
    13    12    13    1
    14    13    14   ar
    15    14    15   ar
    16    15    16   ar
    17    16    17   ar
    18    17    18    1
    19    18    19    1
    20    19    20   ar
    21    20    21   ar
    22    21    22   ar
    23    22    23    2
    24    22    24   ar
    25    24    25   ar
    26    25    26   ar
    27    26    27   ar
    28    27    28   ar
    29    28    29   ar
    30    19    29   ar
    31    24    29   ar
    32    17    30   ar
    33    13    30   ar
    34     3    31    1
    35    12    32    1
    36    18    33    1
    37    18    34    1
    38    21    35    1
    39     5    36    1
    40     6    37    1
    41     7    38    1
    42     8    39    1
    43    14    40    1
    44    15    41    1
    45    16    42    1
    46    25    43    1
    47    26    44    1
    48    27    45    1
    49    28    46    1
    50    30    47    1
@<TRIPOS>MOLECULE
mol81_1_18
 47 50 0 0 0
SMALL
USER_CHARGES
****
VDW energy = -80.59
@<TRIPOS>ATOM
   1 O1        3.4420    -9.1855    -5.2979  O.2     1  <O>11      -0.2451
   2 C1        2.8552    -9.8129    -4.4288  C.2     1  <O>11       0.3375
   3 O2        3.5096   -10.1823    -3.3012  O.3     1  <O>11      -0.4771
   4 C2        1.4620   -10.1610    -4.6040  C.ar    1  <O>11       0.0709
   5 C3        0.4753    -9.2800    -4.1544  C.ar    1  <O>11      -0.0470
   6 C4       -0.8742    -9.6157    -4.3092  C.ar    1  <O>11      -0.0609
   7 C5       -1.2337   -10.8229    -4.9139  C.ar    1  <O>11      -0.0610
   8 C6       -0.2346   -11.6922    -5.3656  C.ar    1  <O>11      -0.0488
   9 C7        1.1140   -11.3656    -5.2170  C.ar    1  <O>11       0.0510
  10 C8        2.1485   -12.2604    -5.6912  C.2     1  <O>11       0.2490
  11 O3        2.5981   -13.1216    -4.9512  O.2     1  <O>11      -0.2698
  12 N1        2.6217   -12.1415    -6.9705  N.am    1  <O>11      -0.2815
  13 C9        3.6183   -13.0046    -7.4284  C.ar    1  <O>11       0.0339
  14 C10       3.9323   -13.0616    -8.7963  C.ar    1  <O>11      -0.0405
  15 C11       4.9229   -13.9365    -9.2565  C.ar    1  <O>11      -0.0597
  16 C12       5.6108   -14.7556    -8.3573  C.ar    1  <O>11      -0.0581
  17 C13       5.3019   -14.6925    -6.9942  C.ar    1  <O>11      -0.0398
  18 C14       6.0323   -15.5587    -6.0487  C.3     1  <O>11       0.0172
  19 C15       5.6047   -15.2483    -4.6600  C.ar    1  <O>11       0.0736
  20 N2        5.0252   -16.2466    -3.8693  N.ar    1  <O>11      -0.1750
  21 N3        4.5354   -15.9551    -2.6418  N.ar    1  <O>11      -0.2425
  22 C16       4.6260   -14.6841    -2.1823  C.ar    1  <O>11       0.2725
  23 O4        4.0111   -14.4267    -0.9422  O.2     1  <O>11      -0.2658
  24 C17       5.2827   -13.6519    -2.8665  C.ar    1  <O>11       0.0496
  25 C18       5.4280   -12.3384    -2.3633  C.ar    1  <O>11      -0.0487
  26 C19       6.0671   -11.3492    -3.1109  C.ar    1  <O>11      -0.0610
  27 C20       6.5626   -11.6471    -4.3759  C.ar    1  <O>11      -0.0611
  28 C21       6.4211   -12.9348    -4.8911  C.ar    1  <O>11      -0.0521
  29 C22       5.7854   -13.9535    -4.1451  C.ar    1  <O>11       0.0106
  30 C23       4.3159   -13.8236    -6.5253  C.ar    1  <O>11      -0.0369
  31 H1        2.9041   -10.6687    -2.7201  H       1  <O>11       0.2954
  32 H2        2.2454   -11.4236    -7.5892  H       1  <O>11       0.1551
  33 H3        7.1034   -15.3816    -6.1466  H       1  <O>11       0.0377
  34 H4        5.8153   -16.6043    -6.2712  H       1  <O>11       0.0377
  35 H5        4.1090   -16.6754    -2.0776  H       1  <O>11       0.1921
  36 H6        0.7403    -8.3868    -3.7107  H       1  <O>11       0.0626
  37 H7       -1.6064    -8.9695    -3.9756  H       1  <O>11       0.0618
  38 H8       -2.2289   -11.0716    -5.0266  H       1  <O>11       0.0618
  39 H9       -0.4978   -12.5841    -5.8131  H       1  <O>11       0.0625
  40 H10       3.4305   -12.4561    -9.4646  H       1  <O>11       0.0636
  41 H11       5.1462   -13.9770   -10.2632  H       1  <O>11       0.0618
  42 H12       6.3408   -15.4018    -8.6959  H       1  <O>11       0.0620
  43 H13       5.0555   -12.1081    -1.4288  H       1  <O>11       0.0625
  44 H14       6.1721   -10.3975    -2.7258  H       1  <O>11       0.0618
  45 H15       7.0339   -10.9165    -4.9319  H       1  <O>11       0.0618
  46 H16       6.7864   -13.1479    -5.8324  H       1  <O>11       0.0624
  47 H17       4.0997   -13.7828    -5.5171  H       1  <O>11       0.0639
@<TRIPOS>BOND
     1     1     2    2
     2     2     3    1
     3     2     4    1
     4     4     5   ar
     5     5     6   ar
     6     6     7   ar
     7     7     8   ar
     8     8     9   ar
     9     4     9   ar
    10     9    10    1
    11    10    11    2
    12    10    12   am
    13    12    13    1
    14    13    14   ar
    15    14    15   ar
    16    15    16   ar
    17    16    17   ar
    18    17    18    1
    19    18    19    1
    20    19    20   ar
    21    20    21   ar
    22    21    22   ar
    23    22    23    2
    24    22    24   ar
    25    24    25   ar
    26    25    26   ar
    27    26    27   ar
    28    27    28   ar
    29    28    29   ar
    30    19    29   ar
    31    24    29   ar
    32    17    30   ar
    33    13    30   ar
    34     3    31    1
    35    12    32    1
    36    18    33    1
    37    18    34    1
    38    21    35    1
    39     5    36    1
    40     6    37    1
    41     7    38    1
    42     8    39    1
    43    14    40    1
    44    15    41    1
    45    16    42    1
    46    25    43    1
    47    26    44    1
    48    27    45    1
    49    28    46    1
    50    30    47    1
@<TRIPOS>MOLECULE
mol81_1_19
 47 50 0 0 0
SMALL
USER_CHARGES
****
VDW energy = -74.65
@<TRIPOS>ATOM
   1 O1        3.4420    -9.1855    -5.2979  O.2     1  <O>11      -0.2451
   2 C1        2.8552    -9.8129    -4.4288  C.2     1  <O>11       0.3375
   3 O2        3.5096   -10.1823    -3.3012  O.3     1  <O>11      -0.4771
   4 C2        1.4620   -10.1610    -4.6040  C.ar    1  <O>11       0.0709
   5 C3        1.1317   -11.3710    -5.2192  C.ar    1  <O>11      -0.0470
   6 C4       -0.2136   -11.7087    -5.4033  C.ar    1  <O>11      -0.0609
   7 C5       -1.2215   -10.8431    -4.9705  C.ar    1  <O>11      -0.0610
   8 C6       -0.8757    -9.6378    -4.3497  C.ar    1  <O>11      -0.0488
   9 C7        0.4633    -9.2929    -4.1603  C.ar    1  <O>11       0.0510
  10 C8        0.8223    -8.0499    -3.5110  C.2     1  <O>11       0.2490
  11 O3        0.2503    -7.7074    -2.4878  O.2     1  <O>11      -0.2698
  12 N1        1.8047    -7.2590    -4.0439  N.am    1  <O>11      -0.2815
  13 C9        2.1518    -6.0610    -3.4177  C.ar    1  <O>11       0.0339
  14 C10       3.3133    -5.3712    -3.8027  C.ar    1  <O>11      -0.0405
  15 C11       3.6677    -4.1766    -3.1656  C.ar    1  <O>11      -0.0597
  16 C12       2.8653    -3.6585    -2.1456  C.ar    1  <O>11      -0.0581
  17 C13       1.7050    -4.3431    -1.7681  C.ar    1  <O>11      -0.0398
  18 C14       0.8603    -3.7910    -0.6913  C.3     1  <O>11       0.0172
  19 C15      -0.3553    -4.6307    -0.5346  C.ar    1  <O>11       0.0736
  20 N2       -0.6155    -5.2595     0.6880  N.ar    1  <O>11      -0.1750
  21 N3       -1.6600    -6.1104     0.8160  N.ar    1  <O>11      -0.2425
  22 C16      -2.4601    -6.3354    -0.2536  C.ar    1  <O>11       0.2725
  23 O4       -3.4678    -7.3037    -0.0826  O.2     1  <O>11      -0.2658
  24 C17      -2.3302    -5.6681    -1.4793  C.ar    1  <O>11       0.0496
  25 C18      -3.1988    -5.8595    -2.5787  C.ar    1  <O>11      -0.0487
  26 C19      -2.9937    -5.1850    -3.7823  C.ar    1  <O>11      -0.0610
  27 C20      -1.9151    -4.3172    -3.9162  C.ar    1  <O>11      -0.0611
  28 C21      -1.0439    -4.1225    -2.8453  C.ar    1  <O>11      -0.0521
  29 C22      -1.2403    -4.7892    -1.6144  C.ar    1  <O>11       0.0106
  30 C23       1.3429    -5.5349    -2.3971  C.ar    1  <O>11      -0.0369
  31 H1        2.9041   -10.6687    -2.7201  H       1  <O>11       0.2954
  32 H2        2.2836    -7.5454    -4.8974  H       1  <O>11       0.1551
  33 H3        0.5672    -2.7722    -0.9454  H       1  <O>11       0.0377
  34 H4        1.4215    -3.7847     0.2441  H       1  <O>11       0.0377
  35 H5       -1.8395    -6.5702     1.6966  H       1  <O>11       0.1921
  36 H6        1.8757   -12.0122    -5.5360  H       1  <O>11       0.0626
  37 H7       -0.4623   -12.5999    -5.8602  H       1  <O>11       0.0618
  38 H8       -2.2138   -11.0911    -5.1078  H       1  <O>11       0.0618
  39 H9       -1.6184    -8.9973    -4.0287  H       1  <O>11       0.0625
  40 H10       3.9076    -5.7467    -4.5583  H       1  <O>11       0.0636
  41 H11       4.5245    -3.6765    -3.4501  H       1  <O>11       0.0618
  42 H12       3.1264    -2.7782    -1.6746  H       1  <O>11       0.0620
  43 H13      -3.9965    -6.5081    -2.4892  H       1  <O>11       0.0625
  44 H14      -3.6416    -5.3296    -4.5725  H       1  <O>11       0.0618
  45 H15      -1.7599    -3.8186    -4.8064  H       1  <O>11       0.0618
  46 H16      -0.2426    -3.4812    -2.9529  H       1  <O>11       0.0624
  47 H17       0.4824    -6.0287    -2.1129  H       1  <O>11       0.0639
@<TRIPOS>BOND
     1     1     2    2
     2     2     3    1
     3     2     4    1
     4     4     5   ar
     5     5     6   ar
     6     6     7   ar
     7     7     8   ar
     8     8     9   ar
     9     4     9   ar
    10     9    10    1
    11    10    11    2
    12    10    12   am
    13    12    13    1
    14    13    14   ar
    15    14    15   ar
    16    15    16   ar
    17    16    17   ar
    18    17    18    1
    19    18    19    1
    20    19    20   ar
    21    20    21   ar
    22    21    22   ar
    23    22    23    2
    24    22    24   ar
    25    24    25   ar
    26    25    26   ar
    27    26    27   ar
    28    27    28   ar
    29    28    29   ar
    30    19    29   ar
    31    24    29   ar
    32    17    30   ar
    33    13    30   ar
    34     3    31    1
    35    12    32    1
    36    18    33    1
    37    18    34    1
    38    21    35    1
    39     5    36    1
    40     6    37    1
    41     7    38    1
    42     8    39    1
    43    14    40    1
    44    15    41    1
    45    16    42    1
    46    25    43    1
    47    26    44    1
    48    27    45    1
    49    28    46    1
    50    30    47    1
@<TRIPOS>MOLECULE
mol81_1_20
 47 50 0 0 0
SMALL
USER_CHARGES
****
VDW energy = -74.37
@<TRIPOS>ATOM
   1 O1        3.4420    -9.1855    -5.2979  O.2     1  <O>11      -0.2451
   2 C1        2.8552    -9.8129    -4.4288  C.2     1  <O>11       0.3375
   3 O2        3.5096   -10.1823    -3.3012  O.3     1  <O>11      -0.4771
   4 C2        1.4620   -10.1610    -4.6040  C.ar    1  <O>11       0.0709
   5 C3        1.0120   -10.5683    -5.8623  C.ar    1  <O>11      -0.0470
   6 C4       -0.3367   -10.8946    -6.0422  C.ar    1  <O>11      -0.0609
   7 C5       -1.2280   -10.8179    -4.9689  C.ar    1  <O>11      -0.0610
   8 C6       -0.7616   -10.4151    -3.7128  C.ar    1  <O>11      -0.0488
   9 C7        0.5820   -10.0891    -3.5231  C.ar    1  <O>11       0.0510
  10 C8        1.0675    -9.6799    -2.2221  C.2     1  <O>11       0.2490
  11 O3        0.7397   -10.3025    -1.2239  O.2     1  <O>11      -0.2698
  12 N1        1.8955    -8.5951    -2.1114  N.am    1  <O>11      -0.2815
  13 C9        2.3645    -8.2008    -0.8575  C.ar    1  <O>11       0.0339
  14 C10       3.4015    -7.2591    -0.7532  C.ar    1  <O>11      -0.0405
  15 C11       3.8801    -6.8737     0.5042  C.ar    1  <O>11      -0.0597
  16 C12       3.3256    -7.4189     1.6652  C.ar    1  <O>11      -0.0581
  17 C13       2.2880    -8.3514     1.5598  C.ar    1  <O>11      -0.0398
  18 C14       1.7050    -8.9232     2.7891  C.3     1  <O>11       0.0172
  19 C15       2.7618    -9.6324     3.5558  C.ar    1  <O>11       0.0736
  20 N2        4.0522    -9.7425     3.0263  N.ar    1  <O>11      -0.1750
  21 N3        4.9971   -10.4739     3.6619  N.ar    1  <O>11      -0.2425
  22 C16       4.6802   -11.0881     4.8269  C.ar    1  <O>11       0.2725
  23 O4        5.6761   -11.9116     5.3857  O.2     1  <O>11      -0.2658
  24 C17       3.4459   -10.9430     5.4750  C.ar    1  <O>11       0.0496
  25 C18       3.1325   -11.5373     6.7193  C.ar    1  <O>11      -0.0487
  26 C19       1.8720   -11.3773     7.2948  C.ar    1  <O>11      -0.0610
  27 C20       0.8985   -10.6328     6.6370  C.ar    1  <O>11      -0.0611
  28 C21       1.1874   -10.0464     5.4056  C.ar    1  <O>11      -0.0521
  29 C22       2.4618   -10.1887     4.8107  C.ar    1  <O>11       0.0106
  30 C23       1.8038    -8.7423     0.3109  C.ar    1  <O>11      -0.0369
  31 H1        2.9041   -10.6687    -2.7201  H       1  <O>11       0.2954
  32 H2        2.1706    -8.0759    -2.9449  H       1  <O>11       0.1551
  33 H3        0.9155    -9.6265     2.5238  H       1  <O>11       0.0377
  34 H4        1.2874    -8.1220     3.4003  H       1  <O>11       0.0377
  35 H5        5.9245   -10.5596     3.2725  H       1  <O>11       0.1921
  36 H6        1.6706   -10.6282    -6.6546  H       1  <O>11       0.0626
  37 H7       -0.6742   -11.1927    -6.9707  H       1  <O>11       0.0618
  38 H8       -2.2232   -11.0568    -5.1017  H       1  <O>11       0.0618
  39 H9       -1.4179   -10.3584    -2.9184  H       1  <O>11       0.0625
  40 H10       3.8121    -6.8498    -1.6070  H       1  <O>11       0.0636
  41 H11       4.6450    -6.1845     0.5743  H       1  <O>11       0.0618
  42 H12       3.6786    -7.1360     2.5928  H       1  <O>11       0.0620
  43 H13       3.8473   -12.0978     7.2091  H       1  <O>11       0.0625
  44 H14       1.6619   -11.8108     8.2074  H       1  <O>11       0.0618
  45 H15      -0.0356   -10.5148     7.0596  H       1  <O>11       0.0618
  46 H16       0.4590    -9.4996     4.9205  H       1  <O>11       0.0624
  47 H17       1.0351    -9.4279     0.2459  H       1  <O>11       0.0639
@<TRIPOS>BOND
     1     1     2    2
     2     2     3    1
     3     2     4    1
     4     4     5   ar
     5     5     6   ar
     6     6     7   ar
     7     7     8   ar
     8     8     9   ar
     9     4     9   ar
    10     9    10    1
    11    10    11    2
    12    10    12   am
    13    12    13    1
    14    13    14   ar
    15    14    15   ar
    16    15    16   ar
    17    16    17   ar
    18    17    18    1
    19    18    19    1
    20    19    20   ar
    21    20    21   ar
    22    21    22   ar
    23    22    23    2
    24    22    24   ar
    25    24    25   ar
    26    25    26   ar
    27    26    27   ar
    28    27    28   ar
    29    28    29   ar
    30    19    29   ar
    31    24    29   ar
    32    17    30   ar
    33    13    30   ar
    34     3    31    1
    35    12    32    1
    36    18    33    1
    37    18    34    1
    38    21    35    1
    39     5    36    1
    40     6    37    1
    41     7    38    1
    42     8    39    1
    43    14    40    1
    44    15    41    1
    45    16    42    1
    46    25    43    1
    47    26    44    1
    48    27    45    1
    49    28    46    1
    50    30    47    1
@<TRIPOS>MOLECULE
mol81_1_21
 47 50 0 0 0
SMALL
USER_CHARGES
****
VDW energy = -72.98
@<TRIPOS>ATOM
   1 O1        3.4420    -9.1855    -5.2979  O.2     1  <O>11      -0.2451
   2 C1        2.8552    -9.8129    -4.4288  C.2     1  <O>11       0.3375
   3 O2        3.5096   -10.1823    -3.3012  O.3     1  <O>11      -0.4771
   4 C2        1.4620   -10.1610    -4.6040  C.ar    1  <O>11       0.0709
   5 C3        0.5927    -9.2326    -5.1822  C.ar    1  <O>11      -0.0470
   6 C4       -0.7586    -9.5576    -5.3434  C.ar    1  <O>11      -0.0609
   7 C5       -1.2358   -10.8050    -4.9328  C.ar    1  <O>11      -0.0610
   8 C6       -0.3521   -11.7274    -4.3617  C.ar    1  <O>11      -0.0488
   9 C7        0.9977   -11.4130    -4.1980  C.ar    1  <O>11       0.0510
  10 C8        1.9146   -12.3694    -3.6147  C.2     1  <O>11       0.2490
  11 O3        2.5092   -13.1608    -4.3300  O.2     1  <O>11      -0.2698
  12 N1        2.1158   -12.3854    -2.2605  N.am    1  <O>11      -0.2815
  13 C9        3.0004   -13.3066    -1.6977  C.ar    1  <O>11       0.0339
  14 C10       3.4055   -13.1731    -0.3594  C.ar    1  <O>11      -0.0405
  15 C11       4.3025   -14.0899     0.2006  C.ar    1  <O>11      -0.0597
  16 C12       4.7971   -15.1481    -0.5663  C.ar    1  <O>11      -0.0581
  17 C13       4.3871   -15.2838    -1.8971  C.ar    1  <O>11      -0.0398
  18 C14       4.9113   -16.4040    -2.7023  C.3     1  <O>11       0.0172
  19 C15       6.3920   -16.3082    -2.7805  C.ar    1  <O>11       0.0736
  20 N2        7.0511   -15.2148    -2.2080  N.ar    1  <O>11      -0.1750
  21 N3        8.3867   -15.0589    -2.3609  N.ar    1  <O>11      -0.2425
  22 C16       9.0807   -15.9844    -3.0655  C.ar    1  <O>11       0.2725
  23 O4       10.4469   -15.7130    -3.2704  O.2     1  <O>11      -0.2658
  24 C17       8.5145   -17.1586    -3.5807  C.ar    1  <O>11       0.0496
  25 C18       9.2480   -18.1537    -4.2675  C.ar    1  <O>11      -0.0487
  26 C19       8.6157   -19.2854    -4.7825  C.ar    1  <O>11      -0.0610
  27 C20       7.2417   -19.4410    -4.6327  C.ar    1  <O>11      -0.0611
  28 C21       6.5015   -18.4659    -3.9654  C.ar    1  <O>11      -0.0521
  29 C22       7.1252   -17.3169    -3.4278  C.ar    1  <O>11       0.0106
  30 C23       3.4932   -14.3751    -2.4648  C.ar    1  <O>11      -0.0369
  31 H1        2.9041   -10.6687    -2.7201  H       1  <O>11       0.2954
  32 H2        1.6207   -11.7237    -1.6631  H       1  <O>11       0.1551
  33 H3        4.4912   -16.3572    -3.7071  H       1  <O>11       0.0377
  34 H4        4.6319   -17.3494    -2.2355  H       1  <O>11       0.0377
  35 H5        8.8580   -14.2638    -1.9550  H       1  <O>11       0.1921
  36 H6        0.9453    -8.3124    -5.4886  H       1  <O>11       0.0626
  37 H7       -1.4050    -8.8737    -5.7669  H       1  <O>11       0.0618
  38 H8       -2.2328   -11.0443    -5.0499  H       1  <O>11       0.0618
  39 H9       -0.7021   -12.6495    -4.0583  H       1  <O>11       0.0625
  40 H10       3.0404   -12.3959     0.2132  H       1  <O>11       0.0636
  41 H11       4.5997   -13.9841     1.1832  H       1  <O>11       0.0618
  42 H12       5.4594   -15.8240    -0.1545  H       1  <O>11       0.0620
  43 H13      10.2665   -18.0409    -4.3895  H       1  <O>11       0.0625
  44 H14       9.1667   -20.0063    -5.2740  H       1  <O>11       0.0618
  45 H15       6.7711   -20.2763    -5.0147  H       1  <O>11       0.0618
  46 H16       5.4816   -18.5850    -3.8622  H       1  <O>11       0.0624
  47 H17       3.1947   -14.4880    -3.4462  H       1  <O>11       0.0639
@<TRIPOS>BOND
     1     1     2    2
     2     2     3    1
     3     2     4    1
     4     4     5   ar
     5     5     6   ar
     6     6     7   ar
     7     7     8   ar
     8     8     9   ar
     9     4     9   ar
    10     9    10    1
    11    10    11    2
    12    10    12   am
    13    12    13    1
    14    13    14   ar
    15    14    15   ar
    16    15    16   ar
    17    16    17   ar
    18    17    18    1
    19    18    19    1
    20    19    20   ar
    21    20    21   ar
    22    21    22   ar
    23    22    23    2
    24    22    24   ar
    25    24    25   ar
    26    25    26   ar
    27    26    27   ar
    28    27    28   ar
    29    28    29   ar
    30    19    29   ar
    31    24    29   ar
    32    17    30   ar
    33    13    30   ar
    34     3    31    1
    35    12    32    1
    36    18    33    1
    37    18    34    1
    38    21    35    1
    39     5    36    1
    40     6    37    1
    41     7    38    1
    42     8    39    1
    43    14    40    1
    44    15    41    1
    45    16    42    1
    46    25    43    1
    47    26    44    1
    48    27    45    1
    49    28    46    1
    50    30    47    1
@<TRIPOS>MOLECULE
mol81_1_22
 47 50 0 0 0
SMALL
USER_CHARGES
****
VDW energy = -71.19
@<TRIPOS>ATOM
   1 O1        3.4420    -9.1855    -5.2979  O.2     1  <O>11      -0.2451
   2 C1        2.8552    -9.8129    -4.4288  C.2     1  <O>11       0.3375
   3 O2        3.5096   -10.1823    -3.3012  O.3     1  <O>11      -0.4771
   4 C2        1.4620   -10.1610    -4.6040  C.ar    1  <O>11       0.0709
   5 C3        0.4753    -9.2800    -4.1544  C.ar    1  <O>11      -0.0470
   6 C4       -0.8742    -9.6157    -4.3092  C.ar    1  <O>11      -0.0609
   7 C5       -1.2337   -10.8229    -4.9139  C.ar    1  <O>11      -0.0610
   8 C6       -0.2346   -11.6922    -5.3656  C.ar    1  <O>11      -0.0488
   9 C7        1.1140   -11.3656    -5.2170  C.ar    1  <O>11       0.0510
  10 C8        2.1485   -12.2604    -5.6912  C.2     1  <O>11       0.2490
  11 O3        2.0569   -12.7688    -6.7978  O.2     1  <O>11      -0.2698
  12 N1        3.2305   -12.5355    -4.8986  N.am    1  <O>11      -0.2815
  13 C9        4.2286   -13.3973    -5.3556  C.ar    1  <O>11       0.0339
  14 C10       3.9187   -14.7260    -5.6899  C.ar    1  <O>11      -0.0405
  15 C11       4.9224   -15.5933    -6.1360  C.ar    1  <O>11      -0.0597
  16 C12       6.2392   -15.1419    -6.2575  C.ar    1  <O>11      -0.0581
  17 C13       6.5450   -13.8162    -5.9310  C.ar    1  <O>11      -0.0398
  18 C14       7.9370   -13.3441    -6.0624  C.3     1  <O>11       0.0172
  19 C15       7.9991   -11.8916    -5.7560  C.ar    1  <O>11       0.0736
  20 N2        8.4542   -10.9930    -6.7272  N.ar    1  <O>11      -0.1750
  21 N3        8.6160    -9.6825    -6.4307  N.ar    1  <O>11      -0.2425
  22 C16       8.3181    -9.2487    -5.1826  C.ar    1  <O>11       0.2725
  23 O4        8.6009    -7.8965    -4.9110  O.2     1  <O>11      -0.2658
  24 C17       7.7604   -10.0619    -4.1863  C.ar    1  <O>11       0.0496
  25 C18       7.3959    -9.5984    -2.9010  C.ar    1  <O>11      -0.0487
  26 C19       6.8736   -10.4692    -1.9446  C.ar    1  <O>11      -0.0610
  27 C20       6.7156   -11.8176    -2.2469  C.ar    1  <O>11      -0.0611
  28 C21       7.0773   -12.2935    -3.5064  C.ar    1  <O>11      -0.0521
  29 C22       7.5990   -11.4252    -4.4924  C.ar    1  <O>11       0.0106
  30 C23       5.5515   -12.9436    -5.4853  C.ar    1  <O>11      -0.0369
  31 H1        2.9041   -10.6687    -2.7201  H       1  <O>11       0.2954
  32 H2        3.3081   -12.1100    -3.9752  H       1  <O>11       0.1551
  33 H3        8.2841   -13.5150    -7.0815  H       1  <O>11       0.0377
  34 H4        8.5737   -13.8907    -5.3655  H       1  <O>11       0.0377
  35 H5        8.9539    -9.0383    -7.1306  H       1  <O>11       0.1921
  36 H6        0.7403    -8.3868    -3.7107  H       1  <O>11       0.0626
  37 H7       -1.6064    -8.9695    -3.9756  H       1  <O>11       0.0618
  38 H8       -2.2289   -11.0716    -5.0266  H       1  <O>11       0.0618
  39 H9       -0.4978   -12.5841    -5.8131  H       1  <O>11       0.0625
  40 H10       2.9471   -15.0640    -5.6062  H       1  <O>11       0.0636
  41 H11       4.6892   -16.5696    -6.3761  H       1  <O>11       0.0618
  42 H12       6.9801   -15.7810    -6.5854  H       1  <O>11       0.0620
  43 H13       7.5180    -8.6007    -2.6670  H       1  <O>11       0.0625
  44 H14       6.6049   -10.1135    -1.0139  H       1  <O>11       0.0618
  45 H15       6.3315   -12.4644    -1.5403  H       1  <O>11       0.0618
  46 H16       6.9623   -13.2960    -3.7225  H       1  <O>11       0.0624
  47 H17       5.7884   -11.9667    -5.2514  H       1  <O>11       0.0639
@<TRIPOS>BOND
     1     1     2    2
     2     2     3    1
     3     2     4    1
     4     4     5   ar
     5     5     6   ar
     6     6     7   ar
     7     7     8   ar
     8     8     9   ar
     9     4     9   ar
    10     9    10    1
    11    10    11    2
    12    10    12   am
    13    12    13    1
    14    13    14   ar
    15    14    15   ar
    16    15    16   ar
    17    16    17   ar
    18    17    18    1
    19    18    19    1
    20    19    20   ar
    21    20    21   ar
    22    21    22   ar
    23    22    23    2
    24    22    24   ar
    25    24    25   ar
    26    25    26   ar
    27    26    27   ar
    28    27    28   ar
    29    28    29   ar
    30    19    29   ar
    31    24    29   ar
    32    17    30   ar
    33    13    30   ar
    34     3    31    1
    35    12    32    1
    36    18    33    1
    37    18    34    1
    38    21    35    1
    39     5    36    1
    40     6    37    1
    41     7    38    1
    42     8    39    1
    43    14    40    1
    44    15    41    1
    45    16    42    1
    46    25    43    1
    47    26    44    1
    48    27    45    1
    49    28    46    1
    50    30    47    1
@<TRIPOS>MOLECULE
mol81_1_23
 47 50 0 0 0
SMALL
USER_CHARGES
****
VDW energy = -70.96
@<TRIPOS>ATOM
   1 O1        3.4420    -9.1855    -5.2979  O.2     1  <O>11      -0.2451
   2 C1        2.8552    -9.8129    -4.4288  C.2     1  <O>11       0.3375
   3 O2        3.5096   -10.1823    -3.3012  O.3     1  <O>11      -0.4771
   4 C2        1.4620   -10.1610    -4.6040  C.ar    1  <O>11       0.0709
   5 C3        0.4753    -9.2800    -4.1544  C.ar    1  <O>11      -0.0470
   6 C4       -0.8742    -9.6157    -4.3092  C.ar    1  <O>11      -0.0609
   7 C5       -1.2337   -10.8229    -4.9139  C.ar    1  <O>11      -0.0610
   8 C6       -0.2346   -11.6922    -5.3656  C.ar    1  <O>11      -0.0488
   9 C7        1.1140   -11.3656    -5.2170  C.ar    1  <O>11       0.0510
  10 C8        2.1485   -12.2604    -5.6912  C.2     1  <O>11       0.2490
  11 O3        2.0569   -12.7688    -6.7978  O.2     1  <O>11      -0.2698
  12 N1        3.2305   -12.5355    -4.8986  N.am    1  <O>11      -0.2815
  13 C9        4.2286   -13.3973    -5.3556  C.ar    1  <O>11       0.0339
  14 C10       4.9453   -13.0942    -6.5251  C.ar    1  <O>11      -0.0405
  15 C11       5.9372   -13.9652    -6.9898  C.ar    1  <O>11      -0.0597
  16 C12       6.2257   -15.1401    -6.2904  C.ar    1  <O>11      -0.0581
  17 C13       5.5158   -15.4371    -5.1219  C.ar    1  <O>11      -0.0398
  18 C14       5.8253   -16.6784    -4.3863  C.3     1  <O>11       0.0172
  19 C15       5.0201   -16.7294    -3.1386  C.ar    1  <O>11       0.0736
  20 N2        5.6619   -16.7884    -1.8967  N.ar    1  <O>11      -0.1750
  21 N3        4.9460   -16.9408    -0.7584  N.ar    1  <O>11      -0.2425
  22 C16       3.5961   -17.0222    -0.8361  C.ar    1  <O>11       0.2725
  23 O4        2.9188   -17.2782     0.3713  O.2     1  <O>11      -0.2658
  24 C17       2.8724   -16.8679    -2.0266  C.ar    1  <O>11       0.0496
  25 C18       1.4606   -16.8958    -2.1017  C.ar    1  <O>11      -0.0487
  26 C19       0.8035   -16.7667    -3.3254  C.ar    1  <O>11      -0.0610
  27 C20       1.5399   -16.6188    -4.4960  C.ar    1  <O>11      -0.0611
  28 C21       2.9328   -16.5972    -4.4416  C.ar    1  <O>11      -0.0521
  29 C22       3.6169   -16.7166    -3.2103  C.ar    1  <O>11       0.0106
  30 C23       4.5250   -14.5753    -4.6502  C.ar    1  <O>11      -0.0369
  31 H1        2.9041   -10.6687    -2.7201  H       1  <O>11       0.2954
  32 H2        3.3081   -12.1100    -3.9752  H       1  <O>11       0.1551
  33 H3        6.8858   -16.6971    -4.1347  H       1  <O>11       0.0377
  34 H4        5.5849   -17.5404    -5.0102  H       1  <O>11       0.0377
  35 H5        5.4124   -16.9929     0.1354  H       1  <O>11       0.1921
  36 H6        0.7403    -8.3868    -3.7107  H       1  <O>11       0.0626
  37 H7       -1.6064    -8.9695    -3.9756  H       1  <O>11       0.0618
  38 H8       -2.2289   -11.0716    -5.0266  H       1  <O>11       0.0618
  39 H9       -0.4978   -12.5841    -5.8131  H       1  <O>11       0.0625
  40 H10       4.7396   -12.2259    -7.0436  H       1  <O>11       0.0636
  41 H11       6.4575   -13.7391    -7.8520  H       1  <O>11       0.0618
  42 H12       6.9563   -15.7834    -6.6330  H       1  <O>11       0.0620
  43 H13       0.9079   -17.0135    -1.2381  H       1  <O>11       0.0625
  44 H14      -0.2277   -16.7809    -3.3621  H       1  <O>11       0.0618
  45 H15       1.0562   -16.5252    -5.4029  H       1  <O>11       0.0618
  46 H16       3.4734   -16.4923    -5.3144  H       1  <O>11       0.0624
  47 H17       4.0110   -14.8029    -3.7848  H       1  <O>11       0.0639
@<TRIPOS>BOND
     1     1     2    2
     2     2     3    1
     3     2     4    1
     4     4     5   ar
     5     5     6   ar
     6     6     7   ar
     7     7     8   ar
     8     8     9   ar
     9     4     9   ar
    10     9    10    1
    11    10    11    2
    12    10    12   am
    13    12    13    1
    14    13    14   ar
    15    14    15   ar
    16    15    16   ar
    17    16    17   ar
    18    17    18    1
    19    18    19    1
    20    19    20   ar
    21    20    21   ar
    22    21    22   ar
    23    22    23    2
    24    22    24   ar
    25    24    25   ar
    26    25    26   ar
    27    26    27   ar
    28    27    28   ar
    29    28    29   ar
    30    19    29   ar
    31    24    29   ar
    32    17    30   ar
    33    13    30   ar
    34     3    31    1
    35    12    32    1
    36    18    33    1
    37    18    34    1
    38    21    35    1
    39     5    36    1
    40     6    37    1
    41     7    38    1
    42     8    39    1
    43    14    40    1
    44    15    41    1
    45    16    42    1
    46    25    43    1
    47    26    44    1
    48    27    45    1
    49    28    46    1
    50    30    47    1
@<TRIPOS>MOLECULE
mol81_1_24
 47 50 0 0 0
SMALL
USER_CHARGES
****
VDW energy = -69.91
@<TRIPOS>ATOM
   1 O1        3.4420    -9.1855    -5.2979  O.2     1  <O>11      -0.2451
   2 C1        2.8552    -9.8129    -4.4288  C.2     1  <O>11       0.3375
   3 O2        3.5096   -10.1823    -3.3012  O.3     1  <O>11      -0.4771
   4 C2        1.4620   -10.1610    -4.6040  C.ar    1  <O>11       0.0709
   5 C3        0.8788   -11.0990    -3.7486  C.ar    1  <O>11      -0.0470
   6 C4       -0.4648   -11.4499    -3.9199  C.ar    1  <O>11      -0.0609
   7 C5       -1.2208   -10.8626    -4.9377  C.ar    1  <O>11      -0.0610
   8 C6       -0.6252    -9.9195    -5.7824  C.ar    1  <O>11      -0.0488
   9 C7        0.7138    -9.5619    -5.6186  C.ar    1  <O>11       0.0510
  10 C8        1.3290    -8.5804    -6.4867  C.2     1  <O>11       0.2490
  11 O3        2.2842    -7.9292    -6.0929  O.2     1  <O>11      -0.2698
  12 N1        0.8402    -8.3834    -7.7504  N.am    1  <O>11      -0.2815
  13 C9        1.4335    -7.4379    -8.5881  C.ar    1  <O>11       0.0339
  14 C10       2.7870    -7.5576    -8.9446  C.ar    1  <O>11      -0.0405
  15 C11       3.3846    -6.6022    -9.7744  C.ar    1  <O>11      -0.0597
  16 C12       2.6375    -5.5253   -10.2589  C.ar    1  <O>11      -0.0581
  17 C13       1.2878    -5.4113    -9.9087  C.ar    1  <O>11      -0.0398
  18 C14       0.5029    -4.2729   -10.4242  C.3     1  <O>11       0.0172
  19 C15       0.5947    -3.1357    -9.4723  C.ar    1  <O>11       0.0736
  20 N2        1.2799    -3.2928    -8.2626  N.ar    1  <O>11      -0.1750
  21 N3        1.2837    -2.3027    -7.3399  N.ar    1  <O>11      -0.2425
  22 C16       0.6254    -1.1500    -7.6093  C.ar    1  <O>11       0.2725
  23 O4        0.5855    -0.2002    -6.5707  O.2     1  <O>11      -0.2658
  24 C17       0.0042    -0.8743    -8.8352  C.ar    1  <O>11       0.0496
  25 C18      -0.6348     0.3501    -9.1391  C.ar    1  <O>11      -0.0487
  26 C19      -1.2614     0.5475   -10.3696  C.ar    1  <O>11      -0.0610
  27 C20      -1.2726    -0.4734   -11.3141  C.ar    1  <O>11      -0.0611
  28 C21      -0.6545    -1.6900   -11.0284  C.ar    1  <O>11      -0.0521
  29 C22      -0.0057    -1.9060    -9.7912  C.ar    1  <O>11       0.0106
  30 C23       0.6825    -6.3586    -9.0820  C.ar    1  <O>11      -0.0369
  31 H1        2.9041   -10.6687    -2.7201  H       1  <O>11       0.2954
  32 H2        0.0437    -8.9280    -8.0802  H       1  <O>11       0.1551
  33 H3       -0.5400    -4.5706   -10.5342  H       1  <O>11       0.0377
  34 H4        0.8979    -3.9684   -11.3943  H       1  <O>11       0.0377
  35 H5        1.7708    -2.4225    -6.4639  H       1  <O>11       0.1921
  36 H6        1.4358   -11.5307    -2.9947  H       1  <O>11       0.0626
  37 H7       -0.8989   -12.1448    -3.2925  H       1  <O>11       0.0618
  38 H8       -2.2113   -11.1225    -5.0654  H       1  <O>11       0.0618
  39 H9       -1.1817    -9.4838    -6.5344  H       1  <O>11       0.0625
  40 H10       3.3427    -8.3530    -8.5932  H       1  <O>11       0.0636
  41 H11       4.3805    -6.6932   -10.0294  H       1  <O>11       0.0618
  42 H12       3.0778    -4.8197   -10.8700  H       1  <O>11       0.0620
  43 H13      -0.6375     1.1091    -8.4399  H       1  <O>11       0.0625
  44 H14      -1.7162     1.4499   -10.5789  H       1  <O>11       0.0618
  45 H15      -1.7374    -0.3307   -12.2244  H       1  <O>11       0.0618
  46 H16      -0.6708    -2.4451   -11.7316  H       1  <O>11       0.0624
  47 H17      -0.3150    -6.2663    -8.8340  H       1  <O>11       0.0639
@<TRIPOS>BOND
     1     1     2    2
     2     2     3    1
     3     2     4    1
     4     4     5   ar
     5     5     6   ar
     6     6     7   ar
     7     7     8   ar
     8     8     9   ar
     9     4     9   ar
    10     9    10    1
    11    10    11    2
    12    10    12   am
    13    12    13    1
    14    13    14   ar
    15    14    15   ar
    16    15    16   ar
    17    16    17   ar
    18    17    18    1
    19    18    19    1
    20    19    20   ar
    21    20    21   ar
    22    21    22   ar
    23    22    23    2
    24    22    24   ar
    25    24    25   ar
    26    25    26   ar
    27    26    27   ar
    28    27    28   ar
    29    28    29   ar
    30    19    29   ar
    31    24    29   ar
    32    17    30   ar
    33    13    30   ar
    34     3    31    1
    35    12    32    1
    36    18    33    1
    37    18    34    1
    38    21    35    1
    39     5    36    1
    40     6    37    1
    41     7    38    1
    42     8    39    1
    43    14    40    1
    44    15    41    1
    45    16    42    1
    46    25    43    1
    47    26    44    1
    48    27    45    1
    49    28    46    1
    50    30    47    1
@<TRIPOS>MOLECULE
mol81_1_25
 47 50 0 0 0
SMALL
USER_CHARGES
****
VDW energy = -68.47
@<TRIPOS>ATOM
   1 O1        3.4420    -9.1855    -5.2979  O.2     1  <O>11      -0.2451
   2 C1        2.8552    -9.8129    -4.4288  C.2     1  <O>11       0.3375
   3 O2        3.5096   -10.1823    -3.3012  O.3     1  <O>11      -0.4771
   4 C2        1.4620   -10.1610    -4.6040  C.ar    1  <O>11       0.0709
   5 C3        0.8788   -11.0990    -3.7486  C.ar    1  <O>11      -0.0470
   6 C4       -0.4648   -11.4499    -3.9199  C.ar    1  <O>11      -0.0609
   7 C5       -1.2208   -10.8626    -4.9377  C.ar    1  <O>11      -0.0610
   8 C6       -0.6252    -9.9195    -5.7824  C.ar    1  <O>11      -0.0488
   9 C7        0.7138    -9.5619    -5.6186  C.ar    1  <O>11       0.0510
  10 C8        1.3290    -8.5804    -6.4867  C.2     1  <O>11       0.2490
  11 O3        2.2842    -7.9292    -6.0929  O.2     1  <O>11      -0.2698
  12 N1        0.8402    -8.3834    -7.7504  N.am    1  <O>11      -0.2815
  13 C9        1.4335    -7.4379    -8.5881  C.ar    1  <O>11       0.0339
  14 C10       1.4799    -6.0860    -8.2096  C.ar    1  <O>11      -0.0405
  15 C11       2.0637    -5.1365    -9.0558  C.ar    1  <O>11      -0.0597
  16 C12       2.6098    -5.5276   -10.2811  C.ar    1  <O>11      -0.0581
  17 C13       2.5692    -6.8756   -10.6536  C.ar    1  <O>11      -0.0398
  18 C14       3.1486    -7.2836   -11.9481  C.3     1  <O>11       0.0172
  19 C15       4.5931    -6.9365   -11.9764  C.ar    1  <O>11       0.0736
  20 N2        5.0002    -5.6852   -12.4521  N.ar    1  <O>11      -0.1750
  21 N3        6.3151    -5.3929   -12.5827  N.ar    1  <O>11      -0.2425
  22 C16       7.2340    -6.3246   -12.2332  C.ar    1  <O>11       0.2725
  23 O4        8.5795    -5.9950   -12.4849  O.2     1  <O>11      -0.2658
  24 C17       6.9117    -7.5591   -11.6527  C.ar    1  <O>11       0.0496
  25 C18       7.8715    -8.5099   -11.2349  C.ar    1  <O>11      -0.0487
  26 C19       7.4810    -9.7341   -10.6922  C.ar    1  <O>11      -0.0610
  27 C20       6.1295   -10.0377   -10.5662  C.ar    1  <O>11      -0.0611
  28 C21       5.1695    -9.1154   -10.9805  C.ar    1  <O>11      -0.0521
  29 C22       5.5450    -7.8655   -11.5237  C.ar    1  <O>11       0.0106
  30 C23       1.9895    -7.8300    -9.8170  C.ar    1  <O>11      -0.0369
  31 H1        2.9041   -10.6687    -2.7201  H       1  <O>11       0.2954
  32 H2        0.0437    -8.9280    -8.0802  H       1  <O>11       0.1551
  33 H3        2.6346    -6.7633   -12.7565  H       1  <O>11       0.0377
  34 H4        3.0304    -8.3603   -12.0762  H       1  <O>11       0.0377
  35 H5        6.6058    -4.4928   -12.9355  H       1  <O>11       0.1921
  36 H6        1.4358   -11.5307    -2.9947  H       1  <O>11       0.0626
  37 H7       -0.8989   -12.1448    -3.2925  H       1  <O>11       0.0618
  38 H8       -2.2113   -11.1225    -5.0654  H       1  <O>11       0.0618
  39 H9       -1.1817    -9.4838    -6.5344  H       1  <O>11       0.0625
  40 H10       1.0819    -5.7918    -7.3040  H       1  <O>11       0.0636
  41 H11       2.0909    -4.1440    -8.7740  H       1  <O>11       0.0618
  42 H12       3.0396    -4.8279   -10.9063  H       1  <O>11       0.0620
  43 H13       8.8760    -8.2948   -11.3329  H       1  <O>11       0.0625
  44 H14       8.1939   -10.4138   -10.3845  H       1  <O>11       0.0618
  45 H15       5.8379   -10.9436   -10.1670  H       1  <O>11       0.0618
  46 H16       4.1685    -9.3489   -10.8890  H       1  <O>11       0.0624
  47 H17       1.9692    -8.8221   -10.1006  H       1  <O>11       0.0639
@<TRIPOS>BOND
     1     1     2    2
     2     2     3    1
     3     2     4    1
     4     4     5   ar
     5     5     6   ar
     6     6     7   ar
     7     7     8   ar
     8     8     9   ar
     9     4     9   ar
    10     9    10    1
    11    10    11    2
    12    10    12   am
    13    12    13    1
    14    13    14   ar
    15    14    15   ar
    16    15    16   ar
    17    16    17   ar
    18    17    18    1
    19    18    19    1
    20    19    20   ar
    21    20    21   ar
    22    21    22   ar
    23    22    23    2
    24    22    24   ar
    25    24    25   ar
    26    25    26   ar
    27    26    27   ar
    28    27    28   ar
    29    28    29   ar
    30    19    29   ar
    31    24    29   ar
    32    17    30   ar
    33    13    30   ar
    34     3    31    1
    35    12    32    1
    36    18    33    1
    37    18    34    1
    38    21    35    1
    39     5    36    1
    40     6    37    1
    41     7    38    1
    42     8    39    1
    43    14    40    1
    44    15    41    1
    45    16    42    1
    46    25    43    1
    47    26    44    1
    48    27    45    1
    49    28    46    1
    50    30    47    1
@<TRIPOS>MOLECULE
mol81_1_26
 47 50 0 0 0
SMALL
USER_CHARGES
****
VDW energy = -66.94
@<TRIPOS>ATOM
   1 O1        3.4420    -9.1855    -5.2979  O.2     1  <O>11      -0.2451
   2 C1        2.8552    -9.8129    -4.4288  C.2     1  <O>11       0.3375
   3 O2        3.5096   -10.1823    -3.3012  O.3     1  <O>11      -0.4771
   4 C2        1.4620   -10.1610    -4.6040  C.ar    1  <O>11       0.0709
   5 C3        0.8788   -11.0990    -3.7486  C.ar    1  <O>11      -0.0470
   6 C4       -0.4648   -11.4499    -3.9199  C.ar    1  <O>11      -0.0609
   7 C5       -1.2208   -10.8626    -4.9377  C.ar    1  <O>11      -0.0610
   8 C6       -0.6252    -9.9195    -5.7824  C.ar    1  <O>11      -0.0488
   9 C7        0.7138    -9.5619    -5.6186  C.ar    1  <O>11       0.0510
  10 C8        1.3290    -8.5804    -6.4867  C.2     1  <O>11       0.2490
  11 O3        1.1514    -8.6351    -7.6937  O.2     1  <O>11      -0.2698
  12 N1        2.1093    -7.5896    -5.9537  N.am    1  <O>11      -0.2815
  13 C9        2.7018    -6.6425    -6.7901  C.ar    1  <O>11       0.0339
  14 C10       3.2893    -5.4874    -6.2480  C.ar    1  <O>11      -0.0405
  15 C11       3.8720    -4.5319    -7.0882  C.ar    1  <O>11      -0.0597
  16 C12       3.8785    -4.7230    -8.4724  C.ar    1  <O>11      -0.0581
  17 C13       3.2992    -5.8773    -9.0104  C.ar    1  <O>11      -0.0398
  18 C14       3.3100    -6.0749   -10.4729  C.3     1  <O>11       0.0172
  19 C15       2.0838    -5.4782   -11.0630  C.ar    1  <O>11       0.0736
  20 N2        1.1057    -4.9267   -10.2282  N.ar    1  <O>11      -0.1750
  21 N3       -0.0621    -4.4746   -10.7414  N.ar    1  <O>11      -0.2425
  22 C16      -0.2666    -4.5509   -12.0782  C.ar    1  <O>11       0.2725
  23 O4       -1.5379    -4.1551   -12.5357  O.2     1  <O>11      -0.2658
  24 C17       0.7008    -4.9923   -12.9916  C.ar    1  <O>11       0.0496
  25 C18       0.5100    -5.0194   -14.3925  C.ar    1  <O>11      -0.0487
  26 C19       1.5046    -5.5007   -15.2439  C.ar    1  <O>11      -0.0610
  27 C20       2.7012    -5.9733   -14.7154  C.ar    1  <O>11      -0.0611
  28 C21       2.9033    -5.9614   -13.3360  C.ar    1  <O>11      -0.0521
  29 C22       1.9116    -5.4686   -12.4574  C.ar    1  <O>11       0.0106
  30 C23       2.7157    -6.8360    -8.1813  C.ar    1  <O>11      -0.0369
  31 H1        2.9041   -10.6687    -2.7201  H       1  <O>11       0.2954
  32 H2        2.2566    -7.5426    -4.9457  H       1  <O>11       0.1551
  33 H3        3.3375    -7.1417   -10.6953  H       1  <O>11       0.0377
  34 H4        4.1908    -5.5924   -10.8986  H       1  <O>11       0.0377
  35 H5       -0.7700    -4.0861   -10.1356  H       1  <O>11       0.1921
  36 H6        1.4358   -11.5307    -2.9947  H       1  <O>11       0.0626
  37 H7       -0.8989   -12.1448    -3.2925  H       1  <O>11       0.0618
  38 H8       -2.2113   -11.1225    -5.0654  H       1  <O>11       0.0618
  39 H9       -1.1817    -9.4838    -6.5344  H       1  <O>11       0.0625
  40 H10       3.2912    -5.3429    -5.2261  H       1  <O>11       0.0636
  41 H11       4.2984    -3.6834    -6.6843  H       1  <O>11       0.0618
  42 H12       4.3071    -4.0184    -9.0929  H       1  <O>11       0.0620
  43 H13      -0.3786    -4.6780   -14.7911  H       1  <O>11       0.0625
  44 H14       1.3528    -5.5062   -16.2646  H       1  <O>11       0.0618
  45 H15       3.4378    -6.3320   -15.3430  H       1  <O>11       0.0618
  46 H16       3.7914    -6.3182   -12.9500  H       1  <O>11       0.0624
  47 H17       2.2952    -7.6855    -8.5893  H       1  <O>11       0.0639
@<TRIPOS>BOND
     1     1     2    2
     2     2     3    1
     3     2     4    1
     4     4     5   ar
     5     5     6   ar
     6     6     7   ar
     7     7     8   ar
     8     8     9   ar
     9     4     9   ar
    10     9    10    1
    11    10    11    2
    12    10    12   am
    13    12    13    1
    14    13    14   ar
    15    14    15   ar
    16    15    16   ar
    17    16    17   ar
    18    17    18    1
    19    18    19    1
    20    19    20   ar
    21    20    21   ar
    22    21    22   ar
    23    22    23    2
    24    22    24   ar
    25    24    25   ar
    26    25    26   ar
    27    26    27   ar
    28    27    28   ar
    29    28    29   ar
    30    19    29   ar
    31    24    29   ar
    32    17    30   ar
    33    13    30   ar
    34     3    31    1
    35    12    32    1
    36    18    33    1
    37    18    34    1
    38    21    35    1
    39     5    36    1
    40     6    37    1
    41     7    38    1
    42     8    39    1
    43    14    40    1
    44    15    41    1
    45    16    42    1
    46    25    43    1
    47    26    44    1
    48    27    45    1
    49    28    46    1
    50    30    47    1
@<TRIPOS>MOLECULE
mol81_1_27
 47 50 0 0 0
SMALL
USER_CHARGES
****
VDW energy = -65.65
@<TRIPOS>ATOM
   1 O1        3.4420    -9.1855    -5.2979  O.2     1  <O>11      -0.2451
   2 C1        2.8552    -9.8129    -4.4288  C.2     1  <O>11       0.3375
   3 O2        3.5096   -10.1823    -3.3012  O.3     1  <O>11      -0.4771
   4 C2        1.4620   -10.1610    -4.6040  C.ar    1  <O>11       0.0709
   5 C3        0.8788   -11.0990    -3.7486  C.ar    1  <O>11      -0.0470
   6 C4       -0.4648   -11.4499    -3.9199  C.ar    1  <O>11      -0.0609
   7 C5       -1.2208   -10.8626    -4.9377  C.ar    1  <O>11      -0.0610
   8 C6       -0.6252    -9.9195    -5.7824  C.ar    1  <O>11      -0.0488
   9 C7        0.7138    -9.5619    -5.6186  C.ar    1  <O>11       0.0510
  10 C8        1.3290    -8.5804    -6.4867  C.2     1  <O>11       0.2490
  11 O3        2.2842    -7.9292    -6.0929  O.2     1  <O>11      -0.2698
  12 N1        0.8402    -8.3834    -7.7504  N.am    1  <O>11      -0.2815
  13 C9        1.4335    -7.4379    -8.5881  C.ar    1  <O>11       0.0339
  14 C10       1.4799    -6.0860    -8.2096  C.ar    1  <O>11      -0.0405
  15 C11       2.0637    -5.1365    -9.0558  C.ar    1  <O>11      -0.0597
  16 C12       2.6098    -5.5276   -10.2811  C.ar    1  <O>11      -0.0581
  17 C13       2.5692    -6.8756   -10.6536  C.ar    1  <O>11      -0.0398
  18 C14       3.1486    -7.2836   -11.9481  C.3     1  <O>11       0.0172
  19 C15       4.5931    -6.9365   -11.9764  C.ar    1  <O>11       0.0736
  20 N2        5.1648    -6.2440   -10.9034  N.ar    1  <O>11      -0.1750
  21 N3        6.4517    -5.8287   -10.9593  N.ar    1  <O>11      -0.2425
  22 C16       7.1845    -6.1048   -12.0645  C.ar    1  <O>11       0.2725
  23 O4        8.4828    -5.5613   -12.1006  O.2     1  <O>11      -0.2658
  24 C17       6.7197    -6.8809   -13.1352  C.ar    1  <O>11       0.0496
  25 C18       7.5017    -7.2181   -14.2641  C.ar    1  <O>11      -0.0487
  26 C19       6.9664    -7.9693   -15.3105  C.ar    1  <O>11      -0.0610
  27 C20       5.6413    -8.3884   -15.2566  C.ar    1  <O>11      -0.0611
  28 C21       4.8534    -8.0583   -14.1548  C.ar    1  <O>11      -0.0521
  29 C22       5.3801    -7.3063   -13.0800  C.ar    1  <O>11       0.0106
  30 C23       1.9895    -7.8300    -9.8170  C.ar    1  <O>11      -0.0369
  31 H1        2.9041   -10.6687    -2.7201  H       1  <O>11       0.2954
  32 H2        0.0437    -8.9280    -8.0802  H       1  <O>11       0.1551
  33 H3        2.6346    -6.7633   -12.7565  H       1  <O>11       0.0377
  34 H4        3.0304    -8.3603   -12.0762  H       1  <O>11       0.0377
  35 H5        6.8586    -5.3208   -10.1877  H       1  <O>11       0.1921
  36 H6        1.4358   -11.5307    -2.9947  H       1  <O>11       0.0626
  37 H7       -0.8989   -12.1448    -3.2925  H       1  <O>11       0.0618
  38 H8       -2.2113   -11.1225    -5.0654  H       1  <O>11       0.0618
  39 H9       -1.1817    -9.4838    -6.5344  H       1  <O>11       0.0625
  40 H10       1.0819    -5.7918    -7.3040  H       1  <O>11       0.0636
  41 H11       2.0909    -4.1440    -8.7740  H       1  <O>11       0.0618
  42 H12       3.0396    -4.8279   -10.9063  H       1  <O>11       0.0620
  43 H13       8.4833    -6.9035   -14.3147  H       1  <O>11       0.0625
  44 H14       7.5529    -8.2138   -16.1236  H       1  <O>11       0.0618
  45 H15       5.2422    -8.9424   -16.0304  H       1  <O>11       0.0618
  46 H16       3.8694    -8.3680   -14.1234  H       1  <O>11       0.0624
  47 H17       1.9692    -8.8221   -10.1006  H       1  <O>11       0.0639
@<TRIPOS>BOND
     1     1     2    2
     2     2     3    1
     3     2     4    1
     4     4     5   ar
     5     5     6   ar
     6     6     7   ar
     7     7     8   ar
     8     8     9   ar
     9     4     9   ar
    10     9    10    1
    11    10    11    2
    12    10    12   am
    13    12    13    1
    14    13    14   ar
    15    14    15   ar
    16    15    16   ar
    17    16    17   ar
    18    17    18    1
    19    18    19    1
    20    19    20   ar
    21    20    21   ar
    22    21    22   ar
    23    22    23    2
    24    22    24   ar
    25    24    25   ar
    26    25    26   ar
    27    26    27   ar
    28    27    28   ar
    29    28    29   ar
    30    19    29   ar
    31    24    29   ar
    32    17    30   ar
    33    13    30   ar
    34     3    31    1
    35    12    32    1
    36    18    33    1
    37    18    34    1
    38    21    35    1
    39     5    36    1
    40     6    37    1
    41     7    38    1
    42     8    39    1
    43    14    40    1
    44    15    41    1
    45    16    42    1
    46    25    43    1
    47    26    44    1
    48    27    45    1
    49    28    46    1
    50    30    47    1
@<TRIPOS>MOLECULE
mol81_1_28
 47 50 0 0 0
SMALL
USER_CHARGES
****
VDW energy = -64.98
@<TRIPOS>ATOM
   1 O1        3.4420    -9.1855    -5.2979  O.2     1  <O>11      -0.2451
   2 C1        2.8552    -9.8129    -4.4288  C.2     1  <O>11       0.3375
   3 O2        3.5096   -10.1823    -3.3012  O.3     1  <O>11      -0.4771
   4 C2        1.4620   -10.1610    -4.6040  C.ar    1  <O>11       0.0709
   5 C3        0.8788   -11.0990    -3.7486  C.ar    1  <O>11      -0.0470
   6 C4       -0.4648   -11.4499    -3.9199  C.ar    1  <O>11      -0.0609
   7 C5       -1.2208   -10.8626    -4.9377  C.ar    1  <O>11      -0.0610
   8 C6       -0.6252    -9.9195    -5.7824  C.ar    1  <O>11      -0.0488
   9 C7        0.7138    -9.5619    -5.6186  C.ar    1  <O>11       0.0510
  10 C8        1.3290    -8.5804    -6.4867  C.2     1  <O>11       0.2490
  11 O3        2.2842    -7.9292    -6.0929  O.2     1  <O>11      -0.2698
  12 N1        0.8402    -8.3834    -7.7504  N.am    1  <O>11      -0.2815
  13 C9        1.4335    -7.4379    -8.5881  C.ar    1  <O>11       0.0339
  14 C10       2.7870    -7.5576    -8.9446  C.ar    1  <O>11      -0.0405
  15 C11       3.3846    -6.6022    -9.7744  C.ar    1  <O>11      -0.0597
  16 C12       2.6375    -5.5253   -10.2589  C.ar    1  <O>11      -0.0581
  17 C13       1.2878    -5.4113    -9.9087  C.ar    1  <O>11      -0.0398
  18 C14       0.5029    -4.2729   -10.4242  C.3     1  <O>11       0.0172
  19 C15       0.4969    -4.3067   -11.9096  C.ar    1  <O>11       0.0736
  20 N2        1.2440    -5.2759   -12.5879  N.ar    1  <O>11      -0.1750
  21 N3        1.3333    -5.2560   -13.9382  N.ar    1  <O>11      -0.2425
  22 C16       0.6775    -4.2913   -14.6266  C.ar    1  <O>11       0.2725
  23 O4        0.8904    -4.2676   -16.0182  O.2     1  <O>11      -0.2658
  24 C17      -0.1732    -3.3495   -14.0317  C.ar    1  <O>11       0.0496
  25 C18      -0.9033    -2.3773   -14.7540  C.ar    1  <O>11      -0.0487
  26 C19      -1.7092    -1.4484   -14.0958  C.ar    1  <O>11      -0.0610
  27 C20      -1.7938    -1.4637   -12.7076  C.ar    1  <O>11      -0.0611
  28 C21      -1.0746    -2.4100   -11.9789  C.ar    1  <O>11      -0.0521
  29 C22      -0.2602    -3.3660   -12.6279  C.ar    1  <O>11       0.0106
  30 C23       0.6825    -6.3586    -9.0820  C.ar    1  <O>11      -0.0369
  31 H1        2.9041   -10.6687    -2.7201  H       1  <O>11       0.2954
  32 H2        0.0437    -8.9280    -8.0802  H       1  <O>11       0.1551
  33 H3        0.9509    -3.3390   -10.0844  H       1  <O>11       0.0377
  34 H4       -0.5211    -4.3400   -10.0544  H       1  <O>11       0.0377
  35 H5        1.8811    -5.9508   -14.4243  H       1  <O>11       0.1921
  36 H6        1.4358   -11.5307    -2.9947  H       1  <O>11       0.0626
  37 H7       -0.8989   -12.1448    -3.2925  H       1  <O>11       0.0618
  38 H8       -2.2113   -11.1225    -5.0654  H       1  <O>11       0.0618
  39 H9       -1.1817    -9.4838    -6.5344  H       1  <O>11       0.0625
  40 H10       3.3427    -8.3530    -8.5932  H       1  <O>11       0.0636
  41 H11       4.3805    -6.6932   -10.0294  H       1  <O>11       0.0618
  42 H12       3.0778    -4.8197   -10.8700  H       1  <O>11       0.0620
  43 H13      -0.8388    -2.3548   -15.7838  H       1  <O>11       0.0625
  44 H14      -2.2420    -0.7505   -14.6381  H       1  <O>11       0.0618
  45 H15      -2.3876    -0.7761   -12.2180  H       1  <O>11       0.0618
  46 H16      -1.1378    -2.4127   -10.9488  H       1  <O>11       0.0624
  47 H17      -0.3150    -6.2663    -8.8340  H       1  <O>11       0.0639
@<TRIPOS>BOND
     1     1     2    2
     2     2     3    1
     3     2     4    1
     4     4     5   ar
     5     5     6   ar
     6     6     7   ar
     7     7     8   ar
     8     8     9   ar
     9     4     9   ar
    10     9    10    1
    11    10    11    2
    12    10    12   am
    13    12    13    1
    14    13    14   ar
    15    14    15   ar
    16    15    16   ar
    17    16    17   ar
    18    17    18    1
    19    18    19    1
    20    19    20   ar
    21    20    21   ar
    22    21    22   ar
    23    22    23    2
    24    22    24   ar
    25    24    25   ar
    26    25    26   ar
    27    26    27   ar
    28    27    28   ar
    29    28    29   ar
    30    19    29   ar
    31    24    29   ar
    32    17    30   ar
    33    13    30   ar
    34     3    31    1
    35    12    32    1
    36    18    33    1
    37    18    34    1
    38    21    35    1
    39     5    36    1
    40     6    37    1
    41     7    38    1
    42     8    39    1
    43    14    40    1
    44    15    41    1
    45    16    42    1
    46    25    43    1
    47    26    44    1
    48    27    45    1
    49    28    46    1
    50    30    47    1
@<TRIPOS>MOLECULE
mol81_1_29
 47 50 0 0 0
SMALL
USER_CHARGES
****
VDW energy = -64.82
@<TRIPOS>ATOM
   1 O1        3.4420    -9.1855    -5.2979  O.2     1  <O>11      -0.2451
   2 C1        2.8552    -9.8129    -4.4288  C.2     1  <O>11       0.3375
   3 O2        3.5096   -10.1823    -3.3012  O.3     1  <O>11      -0.4771
   4 C2        1.4620   -10.1610    -4.6040  C.ar    1  <O>11       0.0709
   5 C3        0.4753    -9.2800    -4.1544  C.ar    1  <O>11      -0.0470
   6 C4       -0.8742    -9.6157    -4.3092  C.ar    1  <O>11      -0.0609
   7 C5       -1.2337   -10.8229    -4.9139  C.ar    1  <O>11      -0.0610
   8 C6       -0.2346   -11.6922    -5.3656  C.ar    1  <O>11      -0.0488
   9 C7        1.1140   -11.3656    -5.2170  C.ar    1  <O>11       0.0510
  10 C8        2.1485   -12.2604    -5.6912  C.2     1  <O>11       0.2490
  11 O3        2.0569   -12.7688    -6.7978  O.2     1  <O>11      -0.2698
  12 N1        3.2305   -12.5355    -4.8986  N.am    1  <O>11      -0.2815
  13 C9        4.2286   -13.3973    -5.3556  C.ar    1  <O>11       0.0339
  14 C10       5.4514   -13.4915    -4.6708  C.ar    1  <O>11      -0.0405
  15 C11       6.4566   -14.3464    -5.1369  C.ar    1  <O>11      -0.0597
  16 C12       6.2486   -15.1169    -6.2840  C.ar    1  <O>11      -0.0581
  17 C13       5.0275   -15.0273    -6.9609  C.ar    1  <O>11      -0.0398
  18 C14       4.8125   -15.8442    -8.1710  C.3     1  <O>11       0.0172
  19 C15       3.4206   -15.6560    -8.6557  C.ar    1  <O>11       0.0736
  20 N2        3.1920   -15.1493    -9.9397  N.ar    1  <O>11      -0.1750
  21 N3        1.9345   -14.8736   -10.3572  N.ar    1  <O>11      -0.2425
  22 C16       0.8968   -15.1078    -9.5187  C.ar    1  <O>11       0.2725
  23 O4       -0.3735   -14.7086    -9.9761  O.2     1  <O>11      -0.2658
  24 C17       1.0313   -15.7090    -8.2597  C.ar    1  <O>11       0.0496
  25 C18      -0.0564   -16.0064    -7.4064  C.ar    1  <O>11      -0.0487
  26 C19       0.1507   -16.5780    -6.1509  C.ar    1  <O>11      -0.0610
  27 C20       1.4438   -16.8531    -5.7187  C.ar    1  <O>11      -0.0611
  28 C21       2.5286   -16.5591    -6.5437  C.ar    1  <O>11      -0.0521
  29 C22       2.3388   -15.9889    -7.8232  C.ar    1  <O>11       0.0106
  30 C23       4.0190   -14.1780    -6.5044  C.ar    1  <O>11      -0.0369
  31 H1        2.9041   -10.6687    -2.7201  H       1  <O>11       0.2954
  32 H2        3.3081   -12.1100    -3.9752  H       1  <O>11       0.1551
  33 H3        4.9748   -16.8956    -7.9334  H       1  <O>11       0.0377
  34 H4        5.5133   -15.5351    -8.9477  H       1  <O>11       0.0377
  35 H5        1.7735   -14.4989   -11.2806  H       1  <O>11       0.1921
  36 H6        0.7403    -8.3868    -3.7107  H       1  <O>11       0.0626
  37 H7       -1.6064    -8.9695    -3.9756  H       1  <O>11       0.0618
  38 H8       -2.2289   -11.0716    -5.0266  H       1  <O>11       0.0618
  39 H9       -0.4978   -12.5841    -5.8131  H       1  <O>11       0.0625
  40 H10       5.6092   -12.9280    -3.8207  H       1  <O>11       0.0636
  41 H11       7.3544   -14.4081    -4.6318  H       1  <O>11       0.0618
  42 H12       6.9897   -15.7468    -6.6290  H       1  <O>11       0.0620
  43 H13      -1.0181   -15.7974    -7.7171  H       1  <O>11       0.0625
  44 H14      -0.6544   -16.7964    -5.5435  H       1  <O>11       0.0618
  45 H15       1.5999   -17.2740    -4.7894  H       1  <O>11       0.0618
  46 H16       3.4857   -16.7611    -6.2149  H       1  <O>11       0.0624
  47 H17       3.1208   -14.1236    -7.0097  H       1  <O>11       0.0639
@<TRIPOS>BOND
     1     1     2    2
     2     2     3    1
     3     2     4    1
     4     4     5   ar
     5     5     6   ar
     6     6     7   ar
     7     7     8   ar
     8     8     9   ar
     9     4     9   ar
    10     9    10    1
    11    10    11    2
    12    10    12   am
    13    12    13    1
    14    13    14   ar
    15    14    15   ar
    16    15    16   ar
    17    16    17   ar
    18    17    18    1
    19    18    19    1
    20    19    20   ar
    21    20    21   ar
    22    21    22   ar
    23    22    23    2
    24    22    24   ar
    25    24    25   ar
    26    25    26   ar
    27    26    27   ar
    28    27    28   ar
    29    28    29   ar
    30    19    29   ar
    31    24    29   ar
    32    17    30   ar
    33    13    30   ar
    34     3    31    1
    35    12    32    1
    36    18    33    1
    37    18    34    1
    38    21    35    1
    39     5    36    1
    40     6    37    1
    41     7    38    1
    42     8    39    1
    43    14    40    1
    44    15    41    1
    45    16    42    1
    46    25    43    1
    47    26    44    1
    48    27    45    1
    49    28    46    1
    50    30    47    1
@<TRIPOS>MOLECULE
mol81_1_30
 47 50 0 0 0
SMALL
USER_CHARGES
****
VDW energy = -64.24
@<TRIPOS>ATOM
   1 O1        3.4420    -9.1855    -5.2979  O.2     1  <O>11      -0.2451
   2 C1        2.8552    -9.8129    -4.4288  C.2     1  <O>11       0.3375
   3 O2        3.5096   -10.1823    -3.3012  O.3     1  <O>11      -0.4771
   4 C2        1.4620   -10.1610    -4.6040  C.ar    1  <O>11       0.0709
   5 C3        0.4753    -9.2800    -4.1544  C.ar    1  <O>11      -0.0470
   6 C4       -0.8742    -9.6157    -4.3092  C.ar    1  <O>11      -0.0609
   7 C5       -1.2337   -10.8229    -4.9139  C.ar    1  <O>11      -0.0610
   8 C6       -0.2346   -11.6922    -5.3656  C.ar    1  <O>11      -0.0488
   9 C7        1.1140   -11.3656    -5.2170  C.ar    1  <O>11       0.0510
  10 C8        2.1485   -12.2604    -5.6912  C.2     1  <O>11       0.2490
  11 O3        3.3247   -11.9622    -5.5539  O.2     1  <O>11      -0.2698
  12 N1        1.8073   -13.4422    -6.2926  N.am    1  <O>11      -0.2815
  13 C9        2.8042   -14.3057    -6.7490  C.ar    1  <O>11       0.0339
  14 C10       2.4831   -15.6178    -7.1341  C.ar    1  <O>11      -0.0405
  15 C11       3.4852   -16.4872    -7.5796  C.ar    1  <O>11      -0.0597
  16 C12       4.8119   -16.0541    -7.6498  C.ar    1  <O>11      -0.0581
  17 C13       5.1292   -14.7447    -7.2727  C.ar    1  <O>11      -0.0398
  18 C14       6.5316   -14.2919    -7.3501  C.3     1  <O>11       0.0172
  19 C15       6.6078   -12.8510    -6.9957  C.ar    1  <O>11       0.0736
  20 N2        7.3835   -12.4412    -5.9057  N.ar    1  <O>11      -0.1750
  21 N3        7.3806   -11.1482    -5.5060  N.ar    1  <O>11      -0.2425
  22 C16       6.6257   -10.2515    -6.1848  C.ar    1  <O>11       0.2725
  23 O4        6.5900    -8.9457    -5.6595  O.2     1  <O>11      -0.2658
  24 C17       5.9042   -10.5595    -7.3464  C.ar    1  <O>11       0.0496
  25 C18       5.1612    -9.6128    -8.0890  C.ar    1  <O>11      -0.0487
  26 C19       4.4395    -9.9934    -9.2204  C.ar    1  <O>11      -0.0610
  27 C20       4.4359   -11.3239    -9.6258  C.ar    1  <O>11      -0.0611
  28 C21       5.1563   -12.2722    -8.9010  C.ar    1  <O>11      -0.0521
  29 C22       5.9018   -11.9047    -7.7575  C.ar    1  <O>11       0.0106
  30 C23       4.1373   -13.8701    -6.8271  C.ar    1  <O>11      -0.0369
  31 H1        2.9041   -10.6687    -2.7201  H       1  <O>11       0.2954
  32 H2        0.8253   -13.6923    -6.4060  H       1  <O>11       0.1551
  33 H3        6.9047   -14.4363    -8.3641  H       1  <O>11       0.0377
  34 H4        7.1396   -14.8707    -6.6535  H       1  <O>11       0.0377
  35 H5        7.9336   -10.8573    -4.7132  H       1  <O>11       0.1921
  36 H6        0.7403    -8.3868    -3.7107  H       1  <O>11       0.0626
  37 H7       -1.6064    -8.9695    -3.9756  H       1  <O>11       0.0618
  38 H8       -2.2289   -11.0716    -5.0266  H       1  <O>11       0.0618
  39 H9       -0.4978   -12.5841    -5.8131  H       1  <O>11       0.0625
  40 H10       1.5043   -15.9420    -7.0883  H       1  <O>11       0.0636
  41 H11       3.2436   -17.4514    -7.8571  H       1  <O>11       0.0618
  42 H12       5.5517   -16.6949    -7.9773  H       1  <O>11       0.0620
  43 H13       5.1528    -8.6253    -7.7892  H       1  <O>11       0.0625
  44 H14       3.9090    -9.2887    -9.7560  H       1  <O>11       0.0618
  45 H15       3.9010   -11.6084   -10.4612  H       1  <O>11       0.0618
  46 H16       5.1452   -13.2586    -9.2042  H       1  <O>11       0.0624
  47 H17       4.3828   -12.9052    -6.5556  H       1  <O>11       0.0639
@<TRIPOS>BOND
     1     1     2    2
     2     2     3    1
     3     2     4    1
     4     4     5   ar
     5     5     6   ar
     6     6     7   ar
     7     7     8   ar
     8     8     9   ar
     9     4     9   ar
    10     9    10    1
    11    10    11    2
    12    10    12   am
    13    12    13    1
    14    13    14   ar
    15    14    15   ar
    16    15    16   ar
    17    16    17   ar
    18    17    18    1
    19    18    19    1
    20    19    20   ar
    21    20    21   ar
    22    21    22   ar
    23    22    23    2
    24    22    24   ar
    25    24    25   ar
    26    25    26   ar
    27    26    27   ar
    28    27    28   ar
    29    28    29   ar
    30    19    29   ar
    31    24    29   ar
    32    17    30   ar
    33    13    30   ar
    34     3    31    1
    35    12    32    1
    36    18    33    1
    37    18    34    1
    38    21    35    1
    39     5    36    1
    40     6    37    1
    41     7    38    1
    42     8    39    1
    43    14    40    1
    44    15    41    1
    45    16    42    1
    46    25    43    1
    47    26    44    1
    48    27    45    1
    49    28    46    1
    50    30    47    1
