@<TRIPOS>MOLECULE
mol87_1_1
 48 50 0 0 0
SMALL
USER_CHARGES
****
VDW energy = 215.62
@<TRIPOS>ATOM
   1 C1       -4.2066     0.8720    -2.4778  C.3     1  <O>11      -0.0624
   2 C2       -4.7601     0.2037    -3.7270  C.3     1  <O>11      -0.0421
   3 C3       -5.0692     1.2349    -4.8110  C.3     1  <O>11      -0.0487
   4 C4       -4.9361     0.4781    -6.1320  C.3     1  <O>11      -0.0301
   5 C5       -4.2353    -0.8404    -5.8060  C.3     1  <O>11       0.0822
   6 S1       -5.3820    -2.1890    -5.8910  S.O2    1  <O>11      -0.0002
   7 O1       -6.9020    -1.6482    -5.4930  O.2     1  <O>11      -0.1691
   8 O2       -4.9206    -3.3761    -4.8265  O.2     1  <O>11      -0.1691
   9 C6       -5.4010    -2.8447    -7.5352  C.ar    1  <O>11       0.0892
  10 C7       -4.5211    -3.8807    -7.8956  C.ar    1  <O>11      -0.0368
  11 C8       -4.5289    -4.3900    -9.1990  C.ar    1  <O>11      -0.0592
  12 C9       -5.4122    -3.8750   -10.1503  C.ar    1  <O>11      -0.0495
  13 C10      -6.2914    -2.8479    -9.7889  C.ar    1  <O>11       0.0400
  14 C11      -7.2062    -2.3195   -10.7784  C.2     1  <O>11       0.2602
  15 O3       -6.8690    -1.3786   -11.4816  O.2     1  <O>11      -0.2687
  16 N1       -8.4493    -2.8752   -10.9280  N.am    1  <O>11      -0.2301
  17 N2       -8.8267    -3.9333   -10.1377  N.am    1  <O>11      -0.2289
  18 C12      -9.4704    -5.0077   -10.6897  C.2     1  <O>11       0.2784
  19 O4       -9.8057    -5.9479    -9.9869  O.2     1  <O>11      -0.2670
  20 C13      -9.7560    -5.0295   -12.1180  C.ar    1  <O>11       0.1268
  21 C14      -9.0112    -5.8896   -12.9665  C.ar    1  <O>11      -0.0311
  22 C15      -9.2968    -5.9122   -14.3272  C.ar    1  <O>11      -0.0582
  23 C16     -10.2964    -5.0609   -14.8103  C.ar    1  <O>11      -0.0436
  24 C17     -10.9913    -4.2390   -13.9205  C.ar    1  <O>11       0.0284
  25 N3      -10.7239    -4.2317   -12.6077  N.ar    1  <O>11      -0.2503
  26 C18      -6.2943    -2.3343    -8.4919  C.ar    1  <O>11      -0.0247
  27 C19      -3.7089    -0.6788    -4.3880  C.3     1  <O>11      -0.0277
  28 H1       -3.9958     0.1141    -1.7234  H       1  <O>11       0.0232
  29 H2       -4.9399     1.5782    -2.0884  H       1  <O>11       0.0232
  30 H3       -3.2876     1.4026    -2.7266  H       1  <O>11       0.0232
  31 H4       -5.6489    -0.3718    -3.4683  H       1  <O>11       0.0299
  32 H5       -6.0811     1.6223    -4.6927  H       1  <O>11       0.0268
  33 H6       -4.3569     2.0589    -4.7690  H       1  <O>11       0.0268
  34 H7       -5.9213     0.2861    -6.5571  H       1  <O>11       0.0284
  35 H8       -4.3411     1.0562    -6.8391  H       1  <O>11       0.0284
  36 H9       -3.4134    -1.0169    -6.4999  H       1  <O>11       0.0540
  37 H10      -9.0919    -2.5036   -11.6267  H       1  <O>11       0.1731
  38 H11      -8.6276    -3.9181    -9.1363  H       1  <O>11       0.1732
  39 H12      -3.6361    -1.6434    -3.8856  H       1  <O>11       0.0286
  40 H13      -2.7332    -0.1930    -4.3861  H       1  <O>11       0.0286
  41 H14      -3.8675    -4.2668    -7.1965  H       1  <O>11       0.0636
  42 H15      -3.8796    -5.1491    -9.4582  H       1  <O>11       0.0618
  43 H16      -5.4166    -4.2488   -11.1122  H       1  <O>11       0.0625
  44 H17      -8.2672    -6.4905   -12.5786  H       1  <O>11       0.0640
  45 H18      -8.7842    -6.5413   -14.9648  H       1  <O>11       0.0619
  46 H19     -10.5188    -5.0403   -15.8178  H       1  <O>11       0.0633
  47 H20     -11.7321    -3.6195   -14.2847  H       1  <O>11       0.0830
  48 H21      -6.9513    -1.5808    -8.2357  H       1  <O>11       0.0644
@<TRIPOS>BOND
     1     1     2    1
     2     2     3    1
     3     3     4    1
     4     4     5    1
     5     5     6    1
     6     6     7    2
     7     6     8    2
     8     6     9    1
     9     9    10   ar
    10    10    11   ar
    11    11    12   ar
    12    12    13   ar
    13    13    14    1
    14    14    15    2
    15    14    16   am
    16    16    17    1
    17    17    18   am
    18    18    19    2
    19    18    20    1
    20    20    21   ar
    21    21    22   ar
    22    22    23   ar
    23    23    24   ar
    24    24    25   ar
    25    20    25   ar
    26    13    26   ar
    27     9    26   ar
    28     5    27    1
    29     2    27    1
    30     1    28    1
    31     1    29    1
    32     1    30    1
    33     2    31    1
    34     3    32    1
    35     3    33    1
    36     4    34    1
    37     4    35    1
    38     5    36    1
    39    16    37    1
    40    17    38    1
    41    27    39    1
    42    27    40    1
    43    10    41    1
    44    11    42    1
    45    12    43    1
    46    21    44    1
    47    22    45    1
    48    23    46    1
    49    24    47    1
    50    26    48    1
@<TRIPOS>MOLECULE
mol87_1_2
 48 50 0 0 0
SMALL
USER_CHARGES
****
VDW energy = 216.13
@<TRIPOS>ATOM
   1 C1       -4.2066     0.8720    -2.4778  C.3     1  <O>11      -0.0624
   2 C2       -4.7601     0.2037    -3.7270  C.3     1  <O>11      -0.0421
   3 C3       -5.0692     1.2349    -4.8110  C.3     1  <O>11      -0.0487
   4 C4       -4.9361     0.4781    -6.1320  C.3     1  <O>11      -0.0301
   5 C5       -4.2353    -0.8404    -5.8060  C.3     1  <O>11       0.0822
   6 S1       -5.3820    -2.1890    -5.8910  S.O2    1  <O>11      -0.0002
   7 O1       -6.9020    -1.6482    -5.4930  O.2     1  <O>11      -0.1691
   8 O2       -4.9206    -3.3761    -4.8265  O.2     1  <O>11      -0.1691
   9 C6       -5.4010    -2.8447    -7.5352  C.ar    1  <O>11       0.0892
  10 C7       -4.2257    -3.3666    -8.1041  C.ar    1  <O>11      -0.0368
  11 C8       -4.2393    -3.8737    -9.4082  C.ar    1  <O>11      -0.0592
  12 C9       -5.4206    -3.8676   -10.1531  C.ar    1  <O>11      -0.0495
  13 C10      -6.5911    -3.3533    -9.5838  C.ar    1  <O>11       0.0400
  14 C11      -7.8130    -3.3517   -10.3598  C.2     1  <O>11       0.2602
  15 O3       -8.0885    -2.3914   -11.0636  O.2     1  <O>11      -0.2687
  16 N1       -8.6597    -4.4271   -10.3066  N.am    1  <O>11      -0.2301
  17 N2       -8.3483    -5.5062    -9.5159  N.am    1  <O>11      -0.2289
  18 C12      -8.5104    -6.7782    -9.9947  C.2     1  <O>11       0.2784
  19 O4       -8.2335    -7.7369    -9.2916  O.2     1  <O>11      -0.2670
  20 C13      -9.0140    -6.9884   -11.3453  C.ar    1  <O>11       0.1268
  21 C14      -8.1283    -7.4374   -12.3595  C.ar    1  <O>11      -0.0311
  22 C15      -8.6189    -7.6456   -13.6438  C.ar    1  <O>11      -0.0582
  23 C16      -9.9697    -7.3771   -13.8903  C.ar    1  <O>11      -0.0436
  24 C17     -10.7867    -6.9371   -12.8469  C.ar    1  <O>11       0.0284
  25 N3      -10.3137    -6.7528   -11.6071  N.ar    1  <O>11      -0.2503
  26 C18      -6.5899    -2.8476    -8.2838  C.ar    1  <O>11      -0.0247
  27 C19      -3.7089    -0.6788    -4.3880  C.3     1  <O>11      -0.0277
  28 H1       -3.9958     0.1141    -1.7234  H       1  <O>11       0.0232
  29 H2       -4.9399     1.5782    -2.0884  H       1  <O>11       0.0232
  30 H3       -3.2876     1.4026    -2.7266  H       1  <O>11       0.0232
  31 H4       -5.6489    -0.3718    -3.4683  H       1  <O>11       0.0299
  32 H5       -6.0811     1.6223    -4.6927  H       1  <O>11       0.0268
  33 H6       -4.3569     2.0589    -4.7690  H       1  <O>11       0.0268
  34 H7       -5.9213     0.2861    -6.5571  H       1  <O>11       0.0284
  35 H8       -4.3411     1.0562    -6.8391  H       1  <O>11       0.0284
  36 H9       -3.4134    -1.0169    -6.4999  H       1  <O>11       0.0540
  37 H10      -9.5189    -4.4258   -10.8552  H       1  <O>11       0.1731
  38 H11      -7.9961    -5.3594    -8.5688  H       1  <O>11       0.1732
  39 H12      -3.6361    -1.6434    -3.8856  H       1  <O>11       0.0286
  40 H13      -2.7332    -0.1930    -4.3861  H       1  <O>11       0.0286
  41 H14      -3.3501    -3.3756    -7.5579  H       1  <O>11       0.0636
  42 H15      -3.3732    -4.2537    -9.8211  H       1  <O>11       0.0618
  43 H16      -5.4304    -4.2395   -11.1157  H       1  <O>11       0.0625
  44 H17      -7.1329    -7.6071   -12.1464  H       1  <O>11       0.0640
  45 H18      -8.0021    -7.9897   -14.3962  H       1  <O>11       0.0619
  46 H19     -10.3597    -7.5034   -14.8374  H       1  <O>11       0.0633
  47 H20     -11.7836    -6.7484   -13.0363  H       1  <O>11       0.0830
  48 H21      -7.4606    -2.4762    -7.8727  H       1  <O>11       0.0644
@<TRIPOS>BOND
     1     1     2    1
     2     2     3    1
     3     3     4    1
     4     4     5    1
     5     5     6    1
     6     6     7    2
     7     6     8    2
     8     6     9    1
     9     9    10   ar
    10    10    11   ar
    11    11    12   ar
    12    12    13   ar
    13    13    14    1
    14    14    15    2
    15    14    16   am
    16    16    17    1
    17    17    18   am
    18    18    19    2
    19    18    20    1
    20    20    21   ar
    21    21    22   ar
    22    22    23   ar
    23    23    24   ar
    24    24    25   ar
    25    20    25   ar
    26    13    26   ar
    27     9    26   ar
    28     5    27    1
    29     2    27    1
    30     1    28    1
    31     1    29    1
    32     1    30    1
    33     2    31    1
    34     3    32    1
    35     3    33    1
    36     4    34    1
    37     4    35    1
    38     5    36    1
    39    16    37    1
    40    17    38    1
    41    27    39    1
    42    27    40    1
    43    10    41    1
    44    11    42    1
    45    12    43    1
    46    21    44    1
    47    22    45    1
    48    23    46    1
    49    24    47    1
    50    26    48    1
@<TRIPOS>MOLECULE
mol87_1_3
 48 50 0 0 0
SMALL
USER_CHARGES
****
VDW energy = 216.29
@<TRIPOS>ATOM
   1 C1       -4.2066     0.8720    -2.4778  C.3     1  <O>11      -0.0624
   2 C2       -4.7601     0.2037    -3.7270  C.3     1  <O>11      -0.0421
   3 C3       -5.0692     1.2349    -4.8110  C.3     1  <O>11      -0.0487
   4 C4       -4.9361     0.4781    -6.1320  C.3     1  <O>11      -0.0301
   5 C5       -4.2353    -0.8404    -5.8060  C.3     1  <O>11       0.0822
   6 S1       -5.3820    -2.1890    -5.8910  S.O2    1  <O>11      -0.0002
   7 O1       -6.1172    -2.1965    -7.3812  O.2     1  <O>11      -0.1691
   8 O2       -6.5322    -2.0133    -4.7072  O.2     1  <O>11      -0.1691
   9 C6       -4.5171    -3.7149    -5.6524  C.ar    1  <O>11       0.0892
  10 C7       -3.9852    -4.4084    -6.7541  C.ar    1  <O>11      -0.0368
  11 C8       -3.3120    -5.6205    -6.5653  C.ar    1  <O>11      -0.0592
  12 C9       -3.1612    -6.1490    -5.2814  C.ar    1  <O>11      -0.0495
  13 C10      -3.6859    -5.4551    -4.1850  C.ar    1  <O>11       0.0400
  14 C11      -3.5246    -6.0065    -2.8564  C.2     1  <O>11       0.2602
  15 O3       -2.5085    -5.7752    -2.2181  O.2     1  <O>11      -0.2687
  16 N1       -4.5115    -6.7861    -2.3139  N.am    1  <O>11      -0.2301
  17 N2       -5.6535    -7.0445    -3.0321  N.am    1  <O>11      -0.2289
  18 C12      -6.8781    -6.9700    -2.4253  C.2     1  <O>11       0.2784
  19 O4       -7.8928    -7.1997    -3.0639  O.2     1  <O>11      -0.2670
  20 C13      -6.9711    -6.6159    -1.0153  C.ar    1  <O>11       0.1268
  21 C14      -7.4562    -5.3338    -0.6472  C.ar    1  <O>11      -0.0311
  22 C15      -7.5517    -5.0073     0.7011  C.ar    1  <O>11      -0.0582
  23 C16      -7.1381    -5.9538     1.6446  C.ar    1  <O>11      -0.0436
  24 C17      -6.6702    -7.1972     1.2144  C.ar    1  <O>11       0.0284
  25 N3       -6.5946    -7.5139    -0.0852  N.ar    1  <O>11      -0.2503
  26 C18      -4.3565    -4.2447    -4.3611  C.ar    1  <O>11      -0.0247
  27 C19      -3.7089    -0.6788    -4.3880  C.3     1  <O>11      -0.0277
  28 H1       -3.9958     0.1141    -1.7234  H       1  <O>11       0.0232
  29 H2       -4.9399     1.5782    -2.0884  H       1  <O>11       0.0232
  30 H3       -3.2876     1.4026    -2.7266  H       1  <O>11       0.0232
  31 H4       -5.6489    -0.3718    -3.4683  H       1  <O>11       0.0299
  32 H5       -6.0811     1.6223    -4.6927  H       1  <O>11       0.0268
  33 H6       -4.3569     2.0589    -4.7690  H       1  <O>11       0.0268
  34 H7       -5.9213     0.2861    -6.5571  H       1  <O>11       0.0284
  35 H8       -4.3411     1.0562    -6.8391  H       1  <O>11       0.0284
  36 H9       -3.4134    -1.0169    -6.4999  H       1  <O>11       0.0540
  37 H10      -4.3978    -7.1721    -1.3772  H       1  <O>11       0.1731
  38 H11      -5.5889    -7.2936    -4.0202  H       1  <O>11       0.1732
  39 H12      -3.6361    -1.6434    -3.8856  H       1  <O>11       0.0286
  40 H13      -2.7332    -0.1930    -4.3861  H       1  <O>11       0.0286
  41 H14      -4.0917    -4.0219    -7.7050  H       1  <O>11       0.0636
  42 H15      -2.9255    -6.1259    -7.3778  H       1  <O>11       0.0618
  43 H16      -2.6668    -7.0441    -5.1421  H       1  <O>11       0.0625
  44 H17      -7.7346    -4.6528    -1.3709  H       1  <O>11       0.0640
  45 H18      -7.9185    -4.0895     0.9982  H       1  <O>11       0.0619
  46 H19      -7.1786    -5.7346     2.6522  H       1  <O>11       0.0633
  47 H20      -6.3740    -7.8920     1.9177  H       1  <O>11       0.0830
  48 H21      -4.7340    -3.7392    -3.5443  H       1  <O>11       0.0644
@<TRIPOS>BOND
     1     1     2    1
     2     2     3    1
     3     3     4    1
     4     4     5    1
     5     5     6    1
     6     6     7    2
     7     6     8    2
     8     6     9    1
     9     9    10   ar
    10    10    11   ar
    11    11    12   ar
    12    12    13   ar
    13    13    14    1
    14    14    15    2
    15    14    16   am
    16    16    17    1
    17    17    18   am
    18    18    19    2
    19    18    20    1
    20    20    21   ar
    21    21    22   ar
    22    22    23   ar
    23    23    24   ar
    24    24    25   ar
    25    20    25   ar
    26    13    26   ar
    27     9    26   ar
    28     5    27    1
    29     2    27    1
    30     1    28    1
    31     1    29    1
    32     1    30    1
    33     2    31    1
    34     3    32    1
    35     3    33    1
    36     4    34    1
    37     4    35    1
    38     5    36    1
    39    16    37    1
    40    17    38    1
    41    27    39    1
    42    27    40    1
    43    10    41    1
    44    11    42    1
    45    12    43    1
    46    21    44    1
    47    22    45    1
    48    23    46    1
    49    24    47    1
    50    26    48    1
@<TRIPOS>MOLECULE
mol87_1_4
 48 50 0 0 0
SMALL
USER_CHARGES
****
VDW energy = 216.42
@<TRIPOS>ATOM
   1 C1       -4.2066     0.8720    -2.4778  C.3     1  <O>11      -0.0624
   2 C2       -4.7601     0.2037    -3.7270  C.3     1  <O>11      -0.0421
   3 C3       -5.0692     1.2349    -4.8110  C.3     1  <O>11      -0.0487
   4 C4       -4.9361     0.4781    -6.1320  C.3     1  <O>11      -0.0301
   5 C5       -4.2353    -0.8404    -5.8060  C.3     1  <O>11       0.0822
   6 S1       -5.3820    -2.1890    -5.8910  S.O2    1  <O>11      -0.0002
   7 O1       -6.9020    -1.6482    -5.4930  O.2     1  <O>11      -0.1691
   8 O2       -4.9206    -3.3761    -4.8265  O.2     1  <O>11      -0.1691
   9 C6       -5.4010    -2.8447    -7.5352  C.ar    1  <O>11       0.0892
  10 C7       -4.2257    -3.3666    -8.1041  C.ar    1  <O>11      -0.0368
  11 C8       -4.2393    -3.8737    -9.4082  C.ar    1  <O>11      -0.0592
  12 C9       -5.4206    -3.8676   -10.1531  C.ar    1  <O>11      -0.0495
  13 C10      -6.5911    -3.3533    -9.5838  C.ar    1  <O>11       0.0400
  14 C11      -7.8130    -3.3517   -10.3598  C.2     1  <O>11       0.2602
  15 O3       -8.5690    -4.3106   -10.3111  O.2     1  <O>11      -0.2687
  16 N1       -8.1228    -2.2747   -11.1474  N.am    1  <O>11      -0.2301
  17 N2       -7.2727    -1.1972   -11.2005  N.am    1  <O>11      -0.2289
  18 C12      -7.7725     0.0757   -11.1420  C.2     1  <O>11       0.2784
  19 O4       -7.0166     1.0331   -11.1893  O.2     1  <O>11      -0.2670
  20 C13      -9.2087     0.2885   -11.0232  C.ar    1  <O>11       0.1268
  21 C14      -9.7491     0.7370    -9.7898  C.ar    1  <O>11      -0.0311
  22 C15     -11.1198     0.9478    -9.6875  C.ar    1  <O>11      -0.0582
  23 C16     -11.9178     0.6822   -10.8055  C.ar    1  <O>11      -0.0436
  24 C17     -11.3217     0.2425   -11.9892  C.ar    1  <O>11       0.0284
  25 N3       -9.9987     0.0558   -12.0886  N.ar    1  <O>11      -0.2503
  26 C18      -6.5899    -2.8476    -8.2838  C.ar    1  <O>11      -0.0247
  27 C19      -3.7089    -0.6788    -4.3880  C.3     1  <O>11      -0.0277
  28 H1       -3.9958     0.1141    -1.7234  H       1  <O>11       0.0232
  29 H2       -4.9399     1.5782    -2.0884  H       1  <O>11       0.0232
  30 H3       -3.2876     1.4026    -2.7266  H       1  <O>11       0.0232
  31 H4       -5.6489    -0.3718    -3.4683  H       1  <O>11       0.0299
  32 H5       -6.0811     1.6223    -4.6927  H       1  <O>11       0.0268
  33 H6       -4.3569     2.0589    -4.7690  H       1  <O>11       0.0268
  34 H7       -5.9213     0.2861    -6.5571  H       1  <O>11       0.0284
  35 H8       -4.3411     1.0562    -6.8391  H       1  <O>11       0.0284
  36 H9       -3.4134    -1.0169    -6.4999  H       1  <O>11       0.0540
  37 H10      -8.9848    -2.2737   -11.6918  H       1  <O>11       0.1731
  38 H11      -6.2660    -1.3458   -11.2847  H       1  <O>11       0.1732
  39 H12      -3.6361    -1.6434    -3.8856  H       1  <O>11       0.0286
  40 H13      -2.7332    -0.1930    -4.3861  H       1  <O>11       0.0286
  41 H14      -3.3501    -3.3756    -7.5579  H       1  <O>11       0.0636
  42 H15      -3.3732    -4.2537    -9.8211  H       1  <O>11       0.0618
  43 H16      -5.4304    -4.2395   -11.1157  H       1  <O>11       0.0625
  44 H17      -9.1326     0.9046    -8.9793  H       1  <O>11       0.0640
  45 H18     -11.5378     1.2916    -8.8088  H       1  <O>11       0.0619
  46 H19     -12.9406     0.8104   -10.7557  H       1  <O>11       0.0633
  47 H20     -11.9174     0.0560   -12.8112  H       1  <O>11       0.0830
  48 H21      -7.4606    -2.4762    -7.8727  H       1  <O>11       0.0644
@<TRIPOS>BOND
     1     1     2    1
     2     2     3    1
     3     3     4    1
     4     4     5    1
     5     5     6    1
     6     6     7    2
     7     6     8    2
     8     6     9    1
     9     9    10   ar
    10    10    11   ar
    11    11    12   ar
    12    12    13   ar
    13    13    14    1
    14    14    15    2
    15    14    16   am
    16    16    17    1
    17    17    18   am
    18    18    19    2
    19    18    20    1
    20    20    21   ar
    21    21    22   ar
    22    22    23   ar
    23    23    24   ar
    24    24    25   ar
    25    20    25   ar
    26    13    26   ar
    27     9    26   ar
    28     5    27    1
    29     2    27    1
    30     1    28    1
    31     1    29    1
    32     1    30    1
    33     2    31    1
    34     3    32    1
    35     3    33    1
    36     4    34    1
    37     4    35    1
    38     5    36    1
    39    16    37    1
    40    17    38    1
    41    27    39    1
    42    27    40    1
    43    10    41    1
    44    11    42    1
    45    12    43    1
    46    21    44    1
    47    22    45    1
    48    23    46    1
    49    24    47    1
    50    26    48    1
@<TRIPOS>MOLECULE
mol87_1_5
 48 50 0 0 0
SMALL
USER_CHARGES
****
VDW energy = 217.42
@<TRIPOS>ATOM
   1 C1       -4.2066     0.8720    -2.4778  C.3     1  <O>11      -0.0624
   2 C2       -4.7601     0.2037    -3.7270  C.3     1  <O>11      -0.0421
   3 C3       -5.0692     1.2349    -4.8110  C.3     1  <O>11      -0.0487
   4 C4       -4.9361     0.4781    -6.1320  C.3     1  <O>11      -0.0301
   5 C5       -4.2353    -0.8404    -5.8060  C.3     1  <O>11       0.0822
   6 S1       -5.3820    -2.1890    -5.8910  S.O2    1  <O>11      -0.0002
   7 O1       -6.9020    -1.6482    -5.4930  O.2     1  <O>11      -0.1691
   8 O2       -4.9206    -3.3761    -4.8265  O.2     1  <O>11      -0.1691
   9 C6       -5.4010    -2.8447    -7.5352  C.ar    1  <O>11       0.0892
  10 C7       -6.2960    -2.3340    -8.4920  C.ar    1  <O>11      -0.0368
  11 C8       -6.3182    -2.8613    -9.7880  C.ar    1  <O>11      -0.0592
  12 C9       -5.4499    -3.8966   -10.1412  C.ar    1  <O>11      -0.0495
  13 C10      -4.5556    -4.4002    -9.1898  C.ar    1  <O>11       0.0400
  14 C11      -3.6565    -5.4717    -9.5623  C.2     1  <O>11       0.2602
  15 O3       -4.0002    -6.6355    -9.4182  O.2     1  <O>11      -0.2687
  16 N1       -2.4211    -5.1813   -10.0778  N.am    1  <O>11      -0.2301
  17 N2       -2.0365    -3.8727   -10.2401  N.am    1  <O>11      -0.2289
  18 C12      -1.4124    -3.4781   -11.3926  C.2     1  <O>11       0.2784
  19 O4       -1.0707    -2.3150   -11.5365  O.2     1  <O>11      -0.2670
  20 C13      -1.1555    -4.4473   -12.4493  C.ar    1  <O>11       0.1268
  21 C14      -1.9238    -4.4012   -13.6418  C.ar    1  <O>11      -0.0311
  22 C15      -1.6655    -5.3233   -14.6501  C.ar    1  <O>11      -0.0582
  23 C16      -0.6690    -6.2814   -14.4346  C.ar    1  <O>11      -0.0436
  24 C17       0.0499    -6.2710   -13.2375  C.ar    1  <O>11       0.0284
  25 N3       -0.1912    -5.3709   -12.2749  N.ar    1  <O>11      -0.2503
  26 C18      -4.5228    -3.8805    -7.8957  C.ar    1  <O>11      -0.0247
  27 C19      -3.7089    -0.6788    -4.3880  C.3     1  <O>11      -0.0277
  28 H1       -3.9958     0.1141    -1.7234  H       1  <O>11       0.0232
  29 H2       -4.9399     1.5782    -2.0884  H       1  <O>11       0.0232
  30 H3       -3.2876     1.4026    -2.7266  H       1  <O>11       0.0232
  31 H4       -5.6489    -0.3718    -3.4683  H       1  <O>11       0.0299
  32 H5       -6.0811     1.6223    -4.6927  H       1  <O>11       0.0268
  33 H6       -4.3569     2.0589    -4.7690  H       1  <O>11       0.0268
  34 H7       -5.9213     0.2861    -6.5571  H       1  <O>11       0.0284
  35 H8       -4.3411     1.0562    -6.8391  H       1  <O>11       0.0284
  36 H9       -3.4134    -1.0169    -6.4999  H       1  <O>11       0.0540
  37 H10      -1.7896    -5.9368   -10.3418  H       1  <O>11       0.1731
  38 H11      -2.2155    -3.1931    -9.4993  H       1  <O>11       0.1732
  39 H12      -3.6361    -1.6434    -3.8856  H       1  <O>11       0.0286
  40 H13      -2.7332    -0.1930    -4.3861  H       1  <O>11       0.0286
  41 H14      -6.9386    -1.5677    -8.2375  H       1  <O>11       0.0636
  42 H15      -6.9786    -2.4838   -10.4853  H       1  <O>11       0.0618
  43 H16      -5.4677    -4.2873   -11.0963  H       1  <O>11       0.0625
  44 H17      -2.6647    -3.6924   -13.7591  H       1  <O>11       0.0640
  45 H18      -2.1957    -5.3014   -15.5352  H       1  <O>11       0.0619
  46 H19      -0.4666    -6.9913   -15.1557  H       1  <O>11       0.0633
  47 H20       0.7882    -6.9769   -13.0901  H       1  <O>11       0.0830
  48 H21      -3.8549    -4.2561    -7.2045  H       1  <O>11       0.0644
@<TRIPOS>BOND
     1     1     2    1
     2     2     3    1
     3     3     4    1
     4     4     5    1
     5     5     6    1
     6     6     7    2
     7     6     8    2
     8     6     9    1
     9     9    10   ar
    10    10    11   ar
    11    11    12   ar
    12    12    13   ar
    13    13    14    1
    14    14    15    2
    15    14    16   am
    16    16    17    1
    17    17    18   am
    18    18    19    2
    19    18    20    1
    20    20    21   ar
    21    21    22   ar
    22    22    23   ar
    23    23    24   ar
    24    24    25   ar
    25    20    25   ar
    26    13    26   ar
    27     9    26   ar
    28     5    27    1
    29     2    27    1
    30     1    28    1
    31     1    29    1
    32     1    30    1
    33     2    31    1
    34     3    32    1
    35     3    33    1
    36     4    34    1
    37     4    35    1
    38     5    36    1
    39    16    37    1
    40    17    38    1
    41    27    39    1
    42    27    40    1
    43    10    41    1
    44    11    42    1
    45    12    43    1
    46    21    44    1
    47    22    45    1
    48    23    46    1
    49    24    47    1
    50    26    48    1
@<TRIPOS>MOLECULE
mol87_1_6
 48 50 0 0 0
SMALL
USER_CHARGES
****
VDW energy = 217.46
@<TRIPOS>ATOM
   1 C1       -4.2066     0.8720    -2.4778  C.3     1  <O>11      -0.0624
   2 C2       -4.7601     0.2037    -3.7270  C.3     1  <O>11      -0.0421
   3 C3       -5.0692     1.2349    -4.8110  C.3     1  <O>11      -0.0487
   4 C4       -4.9361     0.4781    -6.1320  C.3     1  <O>11      -0.0301
   5 C5       -4.2353    -0.8404    -5.8060  C.3     1  <O>11       0.0822
   6 S1       -5.3820    -2.1890    -5.8910  S.O2    1  <O>11      -0.0002
   7 O1       -6.1172    -2.1965    -7.3812  O.2     1  <O>11      -0.1691
   8 O2       -6.5322    -2.0133    -4.7072  O.2     1  <O>11      -0.1691
   9 C6       -4.5171    -3.7149    -5.6524  C.ar    1  <O>11       0.0892
  10 C7       -5.2299    -4.9092    -5.4453  C.ar    1  <O>11      -0.0368
  11 C8       -4.5448    -6.1128    -5.2449  C.ar    1  <O>11      -0.0592
  12 C9       -3.1484    -6.1371    -5.2519  C.ar    1  <O>11      -0.0495
  13 C10      -2.4400    -4.9489    -5.4639  C.ar    1  <O>11       0.0400
  14 C11      -0.9929    -4.9805    -5.4723  C.2     1  <O>11       0.2602
  15 O3       -0.3936    -5.2464    -6.5035  O.2     1  <O>11      -0.2687
  16 N1       -0.2952    -4.7106    -4.3249  N.am    1  <O>11      -0.2301
  17 N2       -0.9701    -4.4109    -3.1668  N.am    1  <O>11      -0.2289
  18 C12      -0.5507    -3.3756    -2.3756  C.2     1  <O>11       0.2784
  19 O4       -1.1508    -3.1096    -1.3464  O.2     1  <O>11      -0.2670
  20 C13       0.6134    -2.5900    -2.7623  C.ar    1  <O>11       0.1268
  21 C14       0.4349    -1.2671    -3.2446  C.ar    1  <O>11      -0.0311
  22 C15       1.5519    -0.5199    -3.6019  C.ar    1  <O>11      -0.0582
  23 C16       2.8126    -1.1170    -3.4944  C.ar    1  <O>11      -0.0436
  24 C17       2.9177    -2.4233    -3.0123  C.ar    1  <O>11       0.0284
  25 N3        1.8402    -3.1345    -2.6541  N.ar    1  <O>11      -0.2503
  26 C18      -3.1125    -3.7437    -5.6673  C.ar    1  <O>11      -0.0247
  27 C19      -3.7089    -0.6788    -4.3880  C.3     1  <O>11      -0.0277
  28 H1       -3.9958     0.1141    -1.7234  H       1  <O>11       0.0232
  29 H2       -4.9399     1.5782    -2.0884  H       1  <O>11       0.0232
  30 H3       -3.2876     1.4026    -2.7266  H       1  <O>11       0.0232
  31 H4       -5.6489    -0.3718    -3.4683  H       1  <O>11       0.0299
  32 H5       -6.0811     1.6223    -4.6927  H       1  <O>11       0.0268
  33 H6       -4.3569     2.0589    -4.7690  H       1  <O>11       0.0268
  34 H7       -5.9213     0.2861    -6.5571  H       1  <O>11       0.0284
  35 H8       -4.3411     1.0562    -6.8391  H       1  <O>11       0.0284
  36 H9       -3.4134    -1.0169    -6.4999  H       1  <O>11       0.0540
  37 H10       0.7240    -4.7310    -4.3325  H       1  <O>11       0.1731
  38 H11      -1.7856    -4.9619    -2.8948  H       1  <O>11       0.1732
  39 H12      -3.6361    -1.6434    -3.8856  H       1  <O>11       0.0286
  40 H13      -2.7332    -0.1930    -4.3861  H       1  <O>11       0.0286
  41 H14      -6.2618    -4.8980    -5.4410  H       1  <O>11       0.0636
  42 H15      -5.0733    -6.9858    -5.0915  H       1  <O>11       0.0618
  43 H16      -2.6429    -7.0242    -5.1018  H       1  <O>11       0.0625
  44 H17      -0.5117    -0.8649    -3.3291  H       1  <O>11       0.0640
  45 H18       1.4534     0.4509    -3.9379  H       1  <O>11       0.0619
  46 H19       3.6594    -0.5955    -3.7697  H       1  <O>11       0.0633
  47 H20       3.8523    -2.8533    -2.9295  H       1  <O>11       0.0830
  48 H21      -2.5792    -2.8750    -5.8284  H       1  <O>11       0.0644
@<TRIPOS>BOND
     1     1     2    1
     2     2     3    1
     3     3     4    1
     4     4     5    1
     5     5     6    1
     6     6     7    2
     7     6     8    2
     8     6     9    1
     9     9    10   ar
    10    10    11   ar
    11    11    12   ar
    12    12    13   ar
    13    13    14    1
    14    14    15    2
    15    14    16   am
    16    16    17    1
    17    17    18   am
    18    18    19    2
    19    18    20    1
    20    20    21   ar
    21    21    22   ar
    22    22    23   ar
    23    23    24   ar
    24    24    25   ar
    25    20    25   ar
    26    13    26   ar
    27     9    26   ar
    28     5    27    1
    29     2    27    1
    30     1    28    1
    31     1    29    1
    32     1    30    1
    33     2    31    1
    34     3    32    1
    35     3    33    1
    36     4    34    1
    37     4    35    1
    38     5    36    1
    39    16    37    1
    40    17    38    1
    41    27    39    1
    42    27    40    1
    43    10    41    1
    44    11    42    1
    45    12    43    1
    46    21    44    1
    47    22    45    1
    48    23    46    1
    49    24    47    1
    50    26    48    1
@<TRIPOS>MOLECULE
mol87_1_7
 48 50 0 0 0
SMALL
USER_CHARGES
****
VDW energy = 217.48
@<TRIPOS>ATOM
   1 C1       -4.2066     0.8720    -2.4778  C.3     1  <O>11      -0.0624
   2 C2       -4.7601     0.2037    -3.7270  C.3     1  <O>11      -0.0421
   3 C3       -5.0692     1.2349    -4.8110  C.3     1  <O>11      -0.0487
   4 C4       -4.9361     0.4781    -6.1320  C.3     1  <O>11      -0.0301
   5 C5       -4.2353    -0.8404    -5.8060  C.3     1  <O>11       0.0822
   6 S1       -5.3820    -2.1890    -5.8910  S.O2    1  <O>11      -0.0002
   7 O1       -6.9020    -1.6482    -5.4930  O.2     1  <O>11      -0.1691
   8 O2       -4.9206    -3.3761    -4.8265  O.2     1  <O>11      -0.1691
   9 C6       -5.4010    -2.8447    -7.5352  C.ar    1  <O>11       0.0892
  10 C7       -5.7627    -2.0271    -8.6205  C.ar    1  <O>11      -0.0368
  11 C8       -5.7888    -2.5499    -9.9183  C.ar    1  <O>11      -0.0592
  12 C9       -5.4533    -3.8864   -10.1452  C.ar    1  <O>11      -0.0495
  13 C10      -5.0878    -4.6977    -9.0650  C.ar    1  <O>11       0.0400
  14 C11      -4.7388    -6.0816    -9.3066  C.2     1  <O>11       0.2602
  15 O3       -5.6041    -6.9440    -9.2767  O.2     1  <O>11      -0.2687
  16 N1       -3.4391    -6.4243    -9.5703  N.am    1  <O>11      -0.2301
  17 N2       -2.4678    -5.4538    -9.6046  N.am    1  <O>11      -0.2289
  18 C12      -1.5319    -5.4535   -10.6034  C.2     1  <O>11       0.2784
  19 O4       -0.6688    -4.5908   -10.6335  O.2     1  <O>11      -0.2670
  20 C13      -1.5658    -6.4842   -11.6323  C.ar    1  <O>11       0.1268
  21 C14      -1.9905    -6.1484   -12.9443  C.ar    1  <O>11      -0.0311
  22 C15      -2.0101    -7.1356   -13.9234  C.ar    1  <O>11      -0.0582
  23 C16      -1.6321    -8.4341   -13.5650  C.ar    1  <O>11      -0.0436
  24 C17      -1.2247    -8.6968   -12.2554  C.ar    1  <O>11       0.0284
  25 N3       -1.1921    -7.7394   -11.3188  N.ar    1  <O>11      -0.2503
  26 C18      -5.0557    -4.1866    -7.7675  C.ar    1  <O>11      -0.0247
  27 C19      -3.7089    -0.6788    -4.3880  C.3     1  <O>11      -0.0277
  28 H1       -3.9958     0.1141    -1.7234  H       1  <O>11       0.0232
  29 H2       -4.9399     1.5782    -2.0884  H       1  <O>11       0.0232
  30 H3       -3.2876     1.4026    -2.7266  H       1  <O>11       0.0232
  31 H4       -5.6489    -0.3718    -3.4683  H       1  <O>11       0.0299
  32 H5       -6.0811     1.6223    -4.6927  H       1  <O>11       0.0268
  33 H6       -4.3569     2.0589    -4.7690  H       1  <O>11       0.0268
  34 H7       -5.9213     0.2861    -6.5571  H       1  <O>11       0.0284
  35 H8       -4.3411     1.0562    -6.8391  H       1  <O>11       0.0284
  36 H9       -3.4134    -1.0169    -6.4999  H       1  <O>11       0.0540
  37 H10      -3.1949    -7.3990    -9.7425  H       1  <O>11       0.1731
  38 H11      -2.4430    -4.7316    -8.8832  H       1  <O>11       0.1732
  39 H12      -3.6361    -1.6434    -3.8856  H       1  <O>11       0.0286
  40 H13      -2.7332    -0.1930    -4.3861  H       1  <O>11       0.0286
  41 H14      -6.0098    -1.0381    -8.4594  H       1  <O>11       0.0636
  42 H15      -6.0570    -1.9455   -10.7106  H       1  <O>11       0.0618
  43 H16      -5.4747    -4.2728   -11.1020  H       1  <O>11       0.0625
  44 H17      -2.2809    -5.1839   -13.1687  H       1  <O>11       0.0640
  45 H18      -2.2963    -6.9159   -14.8902  H       1  <O>11       0.0619
  46 H19      -1.6543    -9.1930   -14.2640  H       1  <O>11       0.0633
  47 H20      -0.9407    -9.6560   -12.0018  H       1  <O>11       0.0830
  48 H21      -4.7790    -4.7931    -6.9796  H       1  <O>11       0.0644
@<TRIPOS>BOND
     1     1     2    1
     2     2     3    1
     3     3     4    1
     4     4     5    1
     5     5     6    1
     6     6     7    2
     7     6     8    2
     8     6     9    1
     9     9    10   ar
    10    10    11   ar
    11    11    12   ar
    12    12    13   ar
    13    13    14    1
    14    14    15    2
    15    14    16   am
    16    16    17    1
    17    17    18   am
    18    18    19    2
    19    18    20    1
    20    20    21   ar
    21    21    22   ar
    22    22    23   ar
    23    23    24   ar
    24    24    25   ar
    25    20    25   ar
    26    13    26   ar
    27     9    26   ar
    28     5    27    1
    29     2    27    1
    30     1    28    1
    31     1    29    1
    32     1    30    1
    33     2    31    1
    34     3    32    1
    35     3    33    1
    36     4    34    1
    37     4    35    1
    38     5    36    1
    39    16    37    1
    40    17    38    1
    41    27    39    1
    42    27    40    1
    43    10    41    1
    44    11    42    1
    45    12    43    1
    46    21    44    1
    47    22    45    1
    48    23    46    1
    49    24    47    1
    50    26    48    1
@<TRIPOS>MOLECULE
mol87_1_8
 48 50 0 0 0
SMALL
USER_CHARGES
****
VDW energy = 217.73
@<TRIPOS>ATOM
   1 C1       -4.2066     0.8720    -2.4778  C.3     1  <O>11      -0.0624
   2 C2       -4.7601     0.2037    -3.7270  C.3     1  <O>11      -0.0421
   3 C3       -5.0692     1.2349    -4.8110  C.3     1  <O>11      -0.0487
   4 C4       -4.9361     0.4781    -6.1320  C.3     1  <O>11      -0.0301
   5 C5       -4.2353    -0.8404    -5.8060  C.3     1  <O>11       0.0822
   6 S1       -5.3820    -2.1890    -5.8910  S.O2    1  <O>11      -0.0002
   7 O1       -6.9020    -1.6482    -5.4930  O.2     1  <O>11      -0.1691
   8 O2       -4.9206    -3.3761    -4.8265  O.2     1  <O>11      -0.1691
   9 C6       -5.4010    -2.8447    -7.5352  C.ar    1  <O>11       0.0892
  10 C7       -6.0523    -4.0612    -7.8060  C.ar    1  <O>11      -0.0368
  11 C8       -6.0563    -4.5843    -9.1039  C.ar    1  <O>11      -0.0592
  12 C9       -5.4159    -3.9010   -10.1399  C.ar    1  <O>11      -0.0495
  13 C10      -4.7730    -2.6874    -9.8703  C.ar    1  <O>11       0.0400
  14 C11      -4.1129    -1.9824   -10.9485  C.2     1  <O>11       0.2602
  15 O3       -4.7492    -1.2180   -11.6585  O.2     1  <O>11      -0.2687
  16 N1       -2.7746    -2.1708   -11.1720  N.am    1  <O>11      -0.2301
  17 N2       -2.0605    -3.0296   -10.3725  N.am    1  <O>11      -0.2289
  18 C12      -0.8258    -2.6671    -9.9059  C.2     1  <O>11       0.2784
  19 O4       -0.1914    -3.4306    -9.1955  O.2     1  <O>11      -0.2670
  20 C13      -0.2678    -1.3682   -10.2575  C.ar    1  <O>11       0.1268
  21 C14      -0.1998    -0.3474    -9.2737  C.ar    1  <O>11      -0.0311
  22 C15       0.3437     0.8864    -9.6143  C.ar    1  <O>11      -0.0582
  23 C16       0.7804     1.0795   -10.9294  C.ar    1  <O>11      -0.0436
  24 C17       0.6844     0.0326   -11.8485  C.ar    1  <O>11       0.0284
  25 N3        0.1746    -1.1599   -11.5121  N.ar    1  <O>11      -0.2503
  26 C18      -4.7648    -2.1551    -8.5810  C.ar    1  <O>11      -0.0247
  27 C19      -3.7089    -0.6788    -4.3880  C.3     1  <O>11      -0.0277
  28 H1       -3.9958     0.1141    -1.7234  H       1  <O>11       0.0232
  29 H2       -4.9399     1.5782    -2.0884  H       1  <O>11       0.0232
  30 H3       -3.2876     1.4026    -2.7266  H       1  <O>11       0.0232
  31 H4       -5.6489    -0.3718    -3.4683  H       1  <O>11       0.0299
  32 H5       -6.0811     1.6223    -4.6927  H       1  <O>11       0.0268
  33 H6       -4.3569     2.0589    -4.7690  H       1  <O>11       0.0268
  34 H7       -5.9213     0.2861    -6.5571  H       1  <O>11       0.0284
  35 H8       -4.3411     1.0562    -6.8391  H       1  <O>11       0.0284
  36 H9       -3.4134    -1.0169    -6.4999  H       1  <O>11       0.0540
  37 H10      -2.3104    -1.6721   -11.9302  H       1  <O>11       0.1731
  38 H11      -2.4507    -3.9405   -10.1266  H       1  <O>11       0.1732
  39 H12      -3.6361    -1.6434    -3.8856  H       1  <O>11       0.0286
  40 H13      -2.7332    -0.1930    -4.3861  H       1  <O>11       0.0286
  41 H14      -6.5289    -4.5698    -7.0450  H       1  <O>11       0.0636
  42 H15      -6.5343    -5.4785    -9.2962  H       1  <O>11       0.0618
  43 H16      -5.4168    -4.2877   -11.0967  H       1  <O>11       0.0625
  44 H17      -0.5492    -0.5186    -8.3179  H       1  <O>11       0.0640
  45 H18       0.4231     1.6407    -8.9145  H       1  <O>11       0.0619
  46 H19       1.1709     1.9900   -11.2185  H       1  <O>11       0.0633
  47 H20       1.0156     0.1817   -12.8145  H       1  <O>11       0.0830
  48 H21      -4.2923    -1.2566    -8.3956  H       1  <O>11       0.0644
@<TRIPOS>BOND
     1     1     2    1
     2     2     3    1
     3     3     4    1
     4     4     5    1
     5     5     6    1
     6     6     7    2
     7     6     8    2
     8     6     9    1
     9     9    10   ar
    10    10    11   ar
    11    11    12   ar
    12    12    13   ar
    13    13    14    1
    14    14    15    2
    15    14    16   am
    16    16    17    1
    17    17    18   am
    18    18    19    2
    19    18    20    1
    20    20    21   ar
    21    21    22   ar
    22    22    23   ar
    23    23    24   ar
    24    24    25   ar
    25    20    25   ar
    26    13    26   ar
    27     9    26   ar
    28     5    27    1
    29     2    27    1
    30     1    28    1
    31     1    29    1
    32     1    30    1
    33     2    31    1
    34     3    32    1
    35     3    33    1
    36     4    34    1
    37     4    35    1
    38     5    36    1
    39    16    37    1
    40    17    38    1
    41    27    39    1
    42    27    40    1
    43    10    41    1
    44    11    42    1
    45    12    43    1
    46    21    44    1
    47    22    45    1
    48    23    46    1
    49    24    47    1
    50    26    48    1
@<TRIPOS>MOLECULE
mol87_1_9
 48 50 0 0 0
SMALL
USER_CHARGES
****
VDW energy = 217.95
@<TRIPOS>ATOM
   1 C1       -4.2066     0.8720    -2.4778  C.3     1  <O>11      -0.0624
   2 C2       -4.7601     0.2037    -3.7270  C.3     1  <O>11      -0.0421
   3 C3       -5.0692     1.2349    -4.8110  C.3     1  <O>11      -0.0487
   4 C4       -4.9361     0.4781    -6.1320  C.3     1  <O>11      -0.0301
   5 C5       -4.2353    -0.8404    -5.8060  C.3     1  <O>11       0.0822
   6 S1       -5.3820    -2.1890    -5.8910  S.O2    1  <O>11      -0.0002
   7 O1       -6.9020    -1.6482    -5.4930  O.2     1  <O>11      -0.1691
   8 O2       -4.9206    -3.3761    -4.8265  O.2     1  <O>11      -0.1691
   9 C6       -5.4010    -2.8447    -7.5352  C.ar    1  <O>11       0.0892
  10 C7       -6.0523    -4.0612    -7.8060  C.ar    1  <O>11      -0.0368
  11 C8       -6.0563    -4.5843    -9.1039  C.ar    1  <O>11      -0.0592
  12 C9       -5.4159    -3.9010   -10.1399  C.ar    1  <O>11      -0.0495
  13 C10      -4.7730    -2.6874    -9.8703  C.ar    1  <O>11       0.0400
  14 C11      -4.1129    -1.9824   -10.9485  C.2     1  <O>11       0.2602
  15 O3       -2.9376    -2.2075   -11.1964  O.2     1  <O>11      -0.2687
  16 N1       -4.8059    -1.0643   -11.6921  N.am    1  <O>11      -0.2301
  17 N2       -6.1272    -0.8131   -11.4131  N.am    1  <O>11      -0.2289
  18 C12      -7.0370    -0.7124   -12.4307  C.2     1  <O>11       0.2784
  19 O4       -8.2112    -0.4890   -12.1823  O.2     1  <O>11      -0.2670
  20 C13      -6.6038    -0.8720   -13.8123  C.ar    1  <O>11       0.1268
  21 C14      -6.9465    -2.0536   -14.5202  C.ar    1  <O>11      -0.0311
  22 C15      -6.5381    -2.1938   -15.8419  C.ar    1  <O>11      -0.0582
  23 C16      -5.7788    -1.1679   -16.4149  C.ar    1  <O>11      -0.0436
  24 C17      -5.4762    -0.0313   -15.6622  C.ar    1  <O>11       0.0284
  25 N3       -5.8850     0.1070   -14.3938  N.ar    1  <O>11      -0.2503
  26 C18      -4.7648    -2.1551    -8.5810  C.ar    1  <O>11      -0.0247
  27 C19      -3.7089    -0.6788    -4.3880  C.3     1  <O>11      -0.0277
  28 H1       -3.9958     0.1141    -1.7234  H       1  <O>11       0.0232
  29 H2       -4.9399     1.5782    -2.0884  H       1  <O>11       0.0232
  30 H3       -3.2876     1.4026    -2.7266  H       1  <O>11       0.0232
  31 H4       -5.6489    -0.3718    -3.4683  H       1  <O>11       0.0299
  32 H5       -6.0811     1.6223    -4.6927  H       1  <O>11       0.0268
  33 H6       -4.3569     2.0589    -4.7690  H       1  <O>11       0.0268
  34 H7       -5.9213     0.2861    -6.5571  H       1  <O>11       0.0284
  35 H8       -4.3411     1.0562    -6.8391  H       1  <O>11       0.0284
  36 H9       -3.4134    -1.0169    -6.4999  H       1  <O>11       0.0540
  37 H10      -4.3406    -0.5700   -12.4526  H       1  <O>11       0.1731
  38 H11      -6.4312    -0.7002   -10.4449  H       1  <O>11       0.1732
  39 H12      -3.6361    -1.6434    -3.8856  H       1  <O>11       0.0286
  40 H13      -2.7332    -0.1930    -4.3861  H       1  <O>11       0.0286
  41 H14      -6.5289    -4.5698    -7.0450  H       1  <O>11       0.0636
  42 H15      -6.5343    -5.4785    -9.2962  H       1  <O>11       0.0618
  43 H16      -5.4168    -4.2877   -11.0967  H       1  <O>11       0.0625
  44 H17      -7.4918    -2.7990   -14.0597  H       1  <O>11       0.0640
  45 H18      -6.7889    -3.0337   -16.3866  H       1  <O>11       0.0619
  46 H19      -5.4443    -1.2506   -17.3877  H       1  <O>11       0.0633
  47 H20      -4.9217     0.7237   -16.0953  H       1  <O>11       0.0830
  48 H21      -4.2923    -1.2566    -8.3956  H       1  <O>11       0.0644
@<TRIPOS>BOND
     1     1     2    1
     2     2     3    1
     3     3     4    1
     4     4     5    1
     5     5     6    1
     6     6     7    2
     7     6     8    2
     8     6     9    1
     9     9    10   ar
    10    10    11   ar
    11    11    12   ar
    12    12    13   ar
    13    13    14    1
    14    14    15    2
    15    14    16   am
    16    16    17    1
    17    17    18   am
    18    18    19    2
    19    18    20    1
    20    20    21   ar
    21    21    22   ar
    22    22    23   ar
    23    23    24   ar
    24    24    25   ar
    25    20    25   ar
    26    13    26   ar
    27     9    26   ar
    28     5    27    1
    29     2    27    1
    30     1    28    1
    31     1    29    1
    32     1    30    1
    33     2    31    1
    34     3    32    1
    35     3    33    1
    36     4    34    1
    37     4    35    1
    38     5    36    1
    39    16    37    1
    40    17    38    1
    41    27    39    1
    42    27    40    1
    43    10    41    1
    44    11    42    1
    45    12    43    1
    46    21    44    1
    47    22    45    1
    48    23    46    1
    49    24    47    1
    50    26    48    1
@<TRIPOS>MOLECULE
mol87_1_10
 48 50 0 0 0
SMALL
USER_CHARGES
****
VDW energy = 218.81
@<TRIPOS>ATOM
   1 C1       -4.2066     0.8720    -2.4778  C.3     1  <O>11      -0.0624
   2 C2       -4.7601     0.2037    -3.7270  C.3     1  <O>11      -0.0421
   3 C3       -5.0692     1.2349    -4.8110  C.3     1  <O>11      -0.0487
   4 C4       -4.9361     0.4781    -6.1320  C.3     1  <O>11      -0.0301
   5 C5       -4.2353    -0.8404    -5.8060  C.3     1  <O>11       0.0822
   6 S1       -5.3820    -2.1890    -5.8910  S.O2    1  <O>11      -0.0002
   7 O1       -6.1172    -2.1965    -7.3812  O.2     1  <O>11      -0.1691
   8 O2       -6.5322    -2.0133    -4.7072  O.2     1  <O>11      -0.1691
   9 C6       -4.5171    -3.7149    -5.6524  C.ar    1  <O>11       0.0892
  10 C7       -3.4885    -4.0924    -6.5338  C.ar    1  <O>11      -0.0368
  11 C8       -2.8136    -5.3045    -6.3511  C.ar    1  <O>11      -0.0592
  12 C9       -3.1548    -6.1468    -5.2906  C.ar    1  <O>11      -0.0495
  13 C10      -4.1747    -5.7674    -4.4105  C.ar    1  <O>11       0.0400
  14 C11      -4.5225    -6.6433    -3.3119  C.2     1  <O>11       0.2602
  15 O3       -3.9081    -6.5747    -2.2577  O.2     1  <O>11      -0.2687
  16 N1       -5.5413    -7.5480    -3.4531  N.am    1  <O>11      -0.2301
  17 N2       -6.2316    -7.6233    -4.6382  N.am    1  <O>11      -0.2289
  18 C12      -7.5967    -7.7225    -4.6329  C.2     1  <O>11       0.2784
  19 O4       -8.2099    -7.7894    -5.6863  O.2     1  <O>11      -0.2670
  20 C13      -8.3193    -7.7481    -3.3682  C.ar    1  <O>11       0.1268
  21 C14      -9.5459    -7.0438    -3.2497  C.ar    1  <O>11      -0.0311
  22 C15     -10.2348    -7.0817    -2.0424  C.ar    1  <O>11      -0.0582
  23 C16      -9.6728    -7.7967    -0.9792  C.ar    1  <O>11      -0.0436
  24 C17      -8.4620    -8.4675    -1.1632  C.ar    1  <O>11       0.0284
  25 N3       -7.8091    -8.4416    -2.3328  N.ar    1  <O>11      -0.2503
  26 C18      -4.8525    -4.5602    -4.5815  C.ar    1  <O>11      -0.0247
  27 C19      -3.7089    -0.6788    -4.3880  C.3     1  <O>11      -0.0277
  28 H1       -3.9958     0.1141    -1.7234  H       1  <O>11       0.0232
  29 H2       -4.9399     1.5782    -2.0884  H       1  <O>11       0.0232
  30 H3       -3.2876     1.4026    -2.7266  H       1  <O>11       0.0232
  31 H4       -5.6489    -0.3718    -3.4683  H       1  <O>11       0.0299
  32 H5       -6.0811     1.6223    -4.6927  H       1  <O>11       0.0268
  33 H6       -4.3569     2.0589    -4.7690  H       1  <O>11       0.0268
  34 H7       -5.9213     0.2861    -6.5571  H       1  <O>11       0.0284
  35 H8       -4.3411     1.0562    -6.8391  H       1  <O>11       0.0284
  36 H9       -3.4134    -1.0169    -6.4999  H       1  <O>11       0.0540
  37 H10      -5.7868    -8.1629    -2.6779  H       1  <O>11       0.1731
  38 H11      -5.7255    -7.6064    -5.5249  H       1  <O>11       0.1732
  39 H12      -3.6361    -1.6434    -3.8856  H       1  <O>11       0.0286
  40 H13      -2.7332    -0.1930    -4.3861  H       1  <O>11       0.0286
  41 H14      -3.2305    -3.4733    -7.3182  H       1  <O>11       0.0636
  42 H15      -2.0609    -5.5770    -7.0023  H       1  <O>11       0.0618
  43 H16      -2.6587    -7.0418    -5.1569  H       1  <O>11       0.0625
  44 H17      -9.9216    -6.5105    -4.0494  H       1  <O>11       0.0640
  45 H18     -11.1380    -6.5946    -1.9335  H       1  <O>11       0.0619
  46 H19     -10.1501    -7.8281    -0.0648  H       1  <O>11       0.0633
  47 H20      -8.0584    -8.9984    -0.3755  H       1  <O>11       0.0830
  48 H21      -5.5989    -4.2886    -3.9226  H       1  <O>11       0.0644
@<TRIPOS>BOND
     1     1     2    1
     2     2     3    1
     3     3     4    1
     4     4     5    1
     5     5     6    1
     6     6     7    2
     7     6     8    2
     8     6     9    1
     9     9    10   ar
    10    10    11   ar
    11    11    12   ar
    12    12    13   ar
    13    13    14    1
    14    14    15    2
    15    14    16   am
    16    16    17    1
    17    17    18   am
    18    18    19    2
    19    18    20    1
    20    20    21   ar
    21    21    22   ar
    22    22    23   ar
    23    23    24   ar
    24    24    25   ar
    25    20    25   ar
    26    13    26   ar
    27     9    26   ar
    28     5    27    1
    29     2    27    1
    30     1    28    1
    31     1    29    1
    32     1    30    1
    33     2    31    1
    34     3    32    1
    35     3    33    1
    36     4    34    1
    37     4    35    1
    38     5    36    1
    39    16    37    1
    40    17    38    1
    41    27    39    1
    42    27    40    1
    43    10    41    1
    44    11    42    1
    45    12    43    1
    46    21    44    1
    47    22    45    1
    48    23    46    1
    49    24    47    1
    50    26    48    1
@<TRIPOS>MOLECULE
mol87_1_11
 48 50 0 0 0
SMALL
USER_CHARGES
****
VDW energy = 218.96
@<TRIPOS>ATOM
   1 C1       -4.2066     0.8720    -2.4778  C.3     1  <O>11      -0.0624
   2 C2       -4.7601     0.2037    -3.7270  C.3     1  <O>11      -0.0421
   3 C3       -5.0692     1.2349    -4.8110  C.3     1  <O>11      -0.0487
   4 C4       -4.9361     0.4781    -6.1320  C.3     1  <O>11      -0.0301
   5 C5       -4.2353    -0.8404    -5.8060  C.3     1  <O>11       0.0822
   6 S1       -5.3820    -2.1890    -5.8910  S.O2    1  <O>11      -0.0002
   7 O1       -6.9020    -1.6482    -5.4930  O.2     1  <O>11      -0.1691
   8 O2       -4.9206    -3.3761    -4.8265  O.2     1  <O>11      -0.1691
   9 C6       -5.4010    -2.8447    -7.5352  C.ar    1  <O>11       0.0892
  10 C7       -4.2257    -3.3666    -8.1041  C.ar    1  <O>11      -0.0368
  11 C8       -4.2393    -3.8737    -9.4082  C.ar    1  <O>11      -0.0592
  12 C9       -5.4206    -3.8676   -10.1531  C.ar    1  <O>11      -0.0495
  13 C10      -6.5911    -3.3533    -9.5838  C.ar    1  <O>11       0.0400
  14 C11      -7.8130    -3.3517   -10.3598  C.2     1  <O>11       0.2602
  15 O3       -8.0885    -2.3914   -11.0636  O.2     1  <O>11      -0.2687
  16 N1       -8.6597    -4.4271   -10.3066  N.am    1  <O>11      -0.2301
  17 N2       -8.3483    -5.5062    -9.5159  N.am    1  <O>11      -0.2289
  18 C12      -8.5104    -6.7782    -9.9947  C.2     1  <O>11       0.2784
  19 O4       -8.2335    -7.7369    -9.2916  O.2     1  <O>11      -0.2670
  20 C13      -9.0140    -6.9884   -11.3453  C.ar    1  <O>11       0.1268
  21 C14      -8.4577    -8.0199   -12.1459  C.ar    1  <O>11      -0.0311
  22 C15      -8.9510    -8.2210   -13.4304  C.ar    1  <O>11      -0.0582
  23 C16      -9.9649    -7.3749   -13.8925  C.ar    1  <O>11      -0.0436
  24 C17     -10.4677    -6.3789   -13.0527  C.ar    1  <O>11       0.0284
  25 N3      -10.0006    -6.1986   -11.8100  N.ar    1  <O>11      -0.2503
  26 C18      -6.5899    -2.8476    -8.2838  C.ar    1  <O>11      -0.0247
  27 C19      -3.7089    -0.6788    -4.3880  C.3     1  <O>11      -0.0277
  28 H1       -3.9958     0.1141    -1.7234  H       1  <O>11       0.0232
  29 H2       -4.9399     1.5782    -2.0884  H       1  <O>11       0.0232
  30 H3       -3.2876     1.4026    -2.7266  H       1  <O>11       0.0232
  31 H4       -5.6489    -0.3718    -3.4683  H       1  <O>11       0.0299
  32 H5       -6.0811     1.6223    -4.6927  H       1  <O>11       0.0268
  33 H6       -4.3569     2.0589    -4.7690  H       1  <O>11       0.0268
  34 H7       -5.9213     0.2861    -6.5571  H       1  <O>11       0.0284
  35 H8       -4.3411     1.0562    -6.8391  H       1  <O>11       0.0284
  36 H9       -3.4134    -1.0169    -6.4999  H       1  <O>11       0.0540
  37 H10      -9.5189    -4.4258   -10.8552  H       1  <O>11       0.1731
  38 H11      -7.9961    -5.3594    -8.5688  H       1  <O>11       0.1732
  39 H12      -3.6361    -1.6434    -3.8856  H       1  <O>11       0.0286
  40 H13      -2.7332    -0.1930    -4.3861  H       1  <O>11       0.0286
  41 H14      -3.3501    -3.3756    -7.5579  H       1  <O>11       0.0636
  42 H15      -3.3732    -4.2537    -9.8211  H       1  <O>11       0.0618
  43 H16      -5.4304    -4.2395   -11.1157  H       1  <O>11       0.0625
  44 H17      -7.6969    -8.6132   -11.7795  H       1  <O>11       0.0640
  45 H18      -8.5784    -8.9755   -14.0279  H       1  <O>11       0.0619
  46 H19     -10.3389    -7.4862   -14.8478  H       1  <O>11       0.0633
  47 H20     -11.2207    -5.7641   -13.3994  H       1  <O>11       0.0830
  48 H21      -7.4606    -2.4762    -7.8727  H       1  <O>11       0.0644
@<TRIPOS>BOND
     1     1     2    1
     2     2     3    1
     3     3     4    1
     4     4     5    1
     5     5     6    1
     6     6     7    2
     7     6     8    2
     8     6     9    1
     9     9    10   ar
    10    10    11   ar
    11    11    12   ar
    12    12    13   ar
    13    13    14    1
    14    14    15    2
    15    14    16   am
    16    16    17    1
    17    17    18   am
    18    18    19    2
    19    18    20    1
    20    20    21   ar
    21    21    22   ar
    22    22    23   ar
    23    23    24   ar
    24    24    25   ar
    25    20    25   ar
    26    13    26   ar
    27     9    26   ar
    28     5    27    1
    29     2    27    1
    30     1    28    1
    31     1    29    1
    32     1    30    1
    33     2    31    1
    34     3    32    1
    35     3    33    1
    36     4    34    1
    37     4    35    1
    38     5    36    1
    39    16    37    1
    40    17    38    1
    41    27    39    1
    42    27    40    1
    43    10    41    1
    44    11    42    1
    45    12    43    1
    46    21    44    1
    47    22    45    1
    48    23    46    1
    49    24    47    1
    50    26    48    1
@<TRIPOS>MOLECULE
mol87_1_12
 48 50 0 0 0
SMALL
USER_CHARGES
****
VDW energy = 219.11
@<TRIPOS>ATOM
   1 C1       -4.2066     0.8720    -2.4778  C.3     1  <O>11      -0.0624
   2 C2       -4.7601     0.2037    -3.7270  C.3     1  <O>11      -0.0421
   3 C3       -5.0692     1.2349    -4.8110  C.3     1  <O>11      -0.0487
   4 C4       -4.9361     0.4781    -6.1320  C.3     1  <O>11      -0.0301
   5 C5       -4.2353    -0.8404    -5.8060  C.3     1  <O>11       0.0822
   6 S1       -5.3820    -2.1890    -5.8910  S.O2    1  <O>11      -0.0002
   7 O1       -6.1172    -2.1965    -7.3812  O.2     1  <O>11      -0.1691
   8 O2       -6.5322    -2.0133    -4.7072  O.2     1  <O>11      -0.1691
   9 C6       -4.5171    -3.7149    -5.6524  C.ar    1  <O>11       0.0892
  10 C7       -5.2299    -4.9092    -5.4453  C.ar    1  <O>11      -0.0368
  11 C8       -4.5448    -6.1128    -5.2449  C.ar    1  <O>11      -0.0592
  12 C9       -3.1484    -6.1371    -5.2519  C.ar    1  <O>11      -0.0495
  13 C10      -2.4400    -4.9489    -5.4639  C.ar    1  <O>11       0.0400
  14 C11      -0.9929    -4.9805    -5.4723  C.2     1  <O>11       0.2602
  15 O3       -0.3936    -5.2464    -6.5035  O.2     1  <O>11      -0.2687
  16 N1       -0.2952    -4.7106    -4.3249  N.am    1  <O>11      -0.2301
  17 N2       -0.9701    -4.4109    -3.1668  N.am    1  <O>11      -0.2289
  18 C12      -0.5507    -3.3756    -2.3756  C.2     1  <O>11       0.2784
  19 O4       -1.1508    -3.1096    -1.3464  O.2     1  <O>11      -0.2670
  20 C13       0.6134    -2.5900    -2.7623  C.ar    1  <O>11       0.1268
  21 C14       1.9028    -2.9879    -2.3220  C.ar    1  <O>11      -0.0311
  22 C15       3.0101    -2.2386    -2.7040  C.ar    1  <O>11      -0.0582
  23 C16       2.8026    -1.1005    -3.4908  C.ar    1  <O>11      -0.0436
  24 C17       1.5071    -0.7649    -3.8895  C.ar    1  <O>11       0.0284
  25 N3        0.4443    -1.4984    -3.5325  N.ar    1  <O>11      -0.2503
  26 C18      -3.1125    -3.7437    -5.6673  C.ar    1  <O>11      -0.0247
  27 C19      -3.7089    -0.6788    -4.3880  C.3     1  <O>11      -0.0277
  28 H1       -3.9958     0.1141    -1.7234  H       1  <O>11       0.0232
  29 H2       -4.9399     1.5782    -2.0884  H       1  <O>11       0.0232
  30 H3       -3.2876     1.4026    -2.7266  H       1  <O>11       0.0232
  31 H4       -5.6489    -0.3718    -3.4683  H       1  <O>11       0.0299
  32 H5       -6.0811     1.6223    -4.6927  H       1  <O>11       0.0268
  33 H6       -4.3569     2.0589    -4.7690  H       1  <O>11       0.0268
  34 H7       -5.9213     0.2861    -6.5571  H       1  <O>11       0.0284
  35 H8       -4.3411     1.0562    -6.8391  H       1  <O>11       0.0284
  36 H9       -3.4134    -1.0169    -6.4999  H       1  <O>11       0.0540
  37 H10       0.7240    -4.7310    -4.3325  H       1  <O>11       0.1731
  38 H11      -1.7856    -4.9619    -2.8948  H       1  <O>11       0.1732
  39 H12      -3.6361    -1.6434    -3.8856  H       1  <O>11       0.0286
  40 H13      -2.7332    -0.1930    -4.3861  H       1  <O>11       0.0286
  41 H14      -6.2618    -4.8980    -5.4410  H       1  <O>11       0.0636
  42 H15      -5.0733    -6.9858    -5.0915  H       1  <O>11       0.0618
  43 H16      -2.6429    -7.0242    -5.1018  H       1  <O>11       0.0625
  44 H17       2.0169    -3.8227    -1.7261  H       1  <O>11       0.0640
  45 H18       3.9612    -2.5151    -2.4142  H       1  <O>11       0.0619
  46 H19       3.6019    -0.5128    -3.7748  H       1  <O>11       0.0633
  47 H20       1.3642     0.0723    -4.4759  H       1  <O>11       0.0830
  48 H21      -2.5792    -2.8750    -5.8284  H       1  <O>11       0.0644
@<TRIPOS>BOND
     1     1     2    1
     2     2     3    1
     3     3     4    1
     4     4     5    1
     5     5     6    1
     6     6     7    2
     7     6     8    2
     8     6     9    1
     9     9    10   ar
    10    10    11   ar
    11    11    12   ar
    12    12    13   ar
    13    13    14    1
    14    14    15    2
    15    14    16   am
    16    16    17    1
    17    17    18   am
    18    18    19    2
    19    18    20    1
    20    20    21   ar
    21    21    22   ar
    22    22    23   ar
    23    23    24   ar
    24    24    25   ar
    25    20    25   ar
    26    13    26   ar
    27     9    26   ar
    28     5    27    1
    29     2    27    1
    30     1    28    1
    31     1    29    1
    32     1    30    1
    33     2    31    1
    34     3    32    1
    35     3    33    1
    36     4    34    1
    37     4    35    1
    38     5    36    1
    39    16    37    1
    40    17    38    1
    41    27    39    1
    42    27    40    1
    43    10    41    1
    44    11    42    1
    45    12    43    1
    46    21    44    1
    47    22    45    1
    48    23    46    1
    49    24    47    1
    50    26    48    1
@<TRIPOS>MOLECULE
mol87_1_13
 48 50 0 0 0
SMALL
USER_CHARGES
****
VDW energy = 219.82
@<TRIPOS>ATOM
   1 C1       -4.2066     0.8720    -2.4778  C.3     1  <O>11      -0.0624
   2 C2       -4.7601     0.2037    -3.7270  C.3     1  <O>11      -0.0421
   3 C3       -5.0692     1.2349    -4.8110  C.3     1  <O>11      -0.0487
   4 C4       -4.9361     0.4781    -6.1320  C.3     1  <O>11      -0.0301
   5 C5       -4.2353    -0.8404    -5.8060  C.3     1  <O>11       0.0822
   6 S1       -5.3820    -2.1890    -5.8910  S.O2    1  <O>11      -0.0002
   7 O1       -6.1172    -2.1965    -7.3812  O.2     1  <O>11      -0.1691
   8 O2       -6.5322    -2.0133    -4.7072  O.2     1  <O>11      -0.1691
   9 C6       -4.5171    -3.7149    -5.6524  C.ar    1  <O>11       0.0892
  10 C7       -5.2299    -4.9092    -5.4453  C.ar    1  <O>11      -0.0368
  11 C8       -4.5448    -6.1128    -5.2449  C.ar    1  <O>11      -0.0592
  12 C9       -3.1484    -6.1371    -5.2519  C.ar    1  <O>11      -0.0495
  13 C10      -2.4400    -4.9489    -5.4639  C.ar    1  <O>11       0.0400
  14 C11      -0.9929    -4.9805    -5.4723  C.2     1  <O>11       0.2602
  15 O3       -0.3936    -5.2464    -6.5035  O.2     1  <O>11      -0.2687
  16 N1       -0.2952    -4.7106    -4.3249  N.am    1  <O>11      -0.2301
  17 N2       -0.9701    -4.4109    -3.1668  N.am    1  <O>11      -0.2289
  18 C12      -0.5507    -3.3756    -2.3756  C.2     1  <O>11       0.2784
  19 O4        0.4246    -2.7156    -2.6971  O.2     1  <O>11      -0.2670
  20 C13      -1.2692    -3.0609    -1.1481  C.ar    1  <O>11       0.1268
  21 C14      -0.5408    -2.6927     0.0131  C.ar    1  <O>11      -0.0311
  22 C15      -1.2344    -2.3837     1.1780  C.ar    1  <O>11      -0.0582
  23 C16      -2.6305    -2.4743     1.1637  C.ar    1  <O>11      -0.0436
  24 C17      -3.2853    -2.8430    -0.0133  C.ar    1  <O>11       0.0284
  25 N3       -2.6142    -3.1247    -1.1381  N.ar    1  <O>11      -0.2503
  26 C18      -3.1125    -3.7437    -5.6673  C.ar    1  <O>11      -0.0247
  27 C19      -3.7089    -0.6788    -4.3880  C.3     1  <O>11      -0.0277
  28 H1       -3.9958     0.1141    -1.7234  H       1  <O>11       0.0232
  29 H2       -4.9399     1.5782    -2.0884  H       1  <O>11       0.0232
  30 H3       -3.2876     1.4026    -2.7266  H       1  <O>11       0.0232
  31 H4       -5.6489    -0.3718    -3.4683  H       1  <O>11       0.0299
  32 H5       -6.0811     1.6223    -4.6927  H       1  <O>11       0.0268
  33 H6       -4.3569     2.0589    -4.7690  H       1  <O>11       0.0268
  34 H7       -5.9213     0.2861    -6.5571  H       1  <O>11       0.0284
  35 H8       -4.3411     1.0562    -6.8391  H       1  <O>11       0.0284
  36 H9       -3.4134    -1.0169    -6.4999  H       1  <O>11       0.0540
  37 H10       0.7240    -4.7310    -4.3325  H       1  <O>11       0.1731
  38 H11      -1.7856    -4.9619    -2.8948  H       1  <O>11       0.1732
  39 H12      -3.6361    -1.6434    -3.8856  H       1  <O>11       0.0286
  40 H13      -2.7332    -0.1930    -4.3861  H       1  <O>11       0.0286
  41 H14      -6.2618    -4.8980    -5.4410  H       1  <O>11       0.0636
  42 H15      -5.0733    -6.9858    -5.0915  H       1  <O>11       0.0618
  43 H16      -2.6429    -7.0242    -5.1018  H       1  <O>11       0.0625
  44 H17       0.4903    -2.6548    -0.0068  H       1  <O>11       0.0640
  45 H18      -0.7319    -2.0946     2.0318  H       1  <O>11       0.0619
  46 H19      -3.1729    -2.2699     2.0175  H       1  <O>11       0.0633
  47 H20      -4.3158    -2.9002    -0.0167  H       1  <O>11       0.0830
  48 H21      -2.5792    -2.8750    -5.8284  H       1  <O>11       0.0644
@<TRIPOS>BOND
     1     1     2    1
     2     2     3    1
     3     3     4    1
     4     4     5    1
     5     5     6    1
     6     6     7    2
     7     6     8    2
     8     6     9    1
     9     9    10   ar
    10    10    11   ar
    11    11    12   ar
    12    12    13   ar
    13    13    14    1
    14    14    15    2
    15    14    16   am
    16    16    17    1
    17    17    18   am
    18    18    19    2
    19    18    20    1
    20    20    21   ar
    21    21    22   ar
    22    22    23   ar
    23    23    24   ar
    24    24    25   ar
    25    20    25   ar
    26    13    26   ar
    27     9    26   ar
    28     5    27    1
    29     2    27    1
    30     1    28    1
    31     1    29    1
    32     1    30    1
    33     2    31    1
    34     3    32    1
    35     3    33    1
    36     4    34    1
    37     4    35    1
    38     5    36    1
    39    16    37    1
    40    17    38    1
    41    27    39    1
    42    27    40    1
    43    10    41    1
    44    11    42    1
    45    12    43    1
    46    21    44    1
    47    22    45    1
    48    23    46    1
    49    24    47    1
    50    26    48    1
@<TRIPOS>MOLECULE
mol87_1_14
 48 50 0 0 0
SMALL
USER_CHARGES
****
VDW energy = 220.13
@<TRIPOS>ATOM
   1 C1       -4.2066     0.8720    -2.4778  C.3     1  <O>11      -0.0624
   2 C2       -4.7601     0.2037    -3.7270  C.3     1  <O>11      -0.0421
   3 C3       -5.0692     1.2349    -4.8110  C.3     1  <O>11      -0.0487
   4 C4       -4.9361     0.4781    -6.1320  C.3     1  <O>11      -0.0301
   5 C5       -4.2353    -0.8404    -5.8060  C.3     1  <O>11       0.0822
   6 S1       -5.3820    -2.1890    -5.8910  S.O2    1  <O>11      -0.0002
   7 O1       -6.1172    -2.1965    -7.3812  O.2     1  <O>11      -0.1691
   8 O2       -6.5322    -2.0133    -4.7072  O.2     1  <O>11      -0.1691
   9 C6       -4.5171    -3.7149    -5.6524  C.ar    1  <O>11       0.0892
  10 C7       -3.9852    -4.4084    -6.7541  C.ar    1  <O>11      -0.0368
  11 C8       -3.3120    -5.6205    -6.5653  C.ar    1  <O>11      -0.0592
  12 C9       -3.1612    -6.1490    -5.2814  C.ar    1  <O>11      -0.0495
  13 C10      -3.6859    -5.4551    -4.1850  C.ar    1  <O>11       0.0400
  14 C11      -3.5246    -6.0065    -2.8564  C.2     1  <O>11       0.2602
  15 O3       -2.5085    -5.7752    -2.2181  O.2     1  <O>11      -0.2687
  16 N1       -4.5115    -6.7861    -2.3139  N.am    1  <O>11      -0.2301
  17 N2       -5.6535    -7.0445    -3.0321  N.am    1  <O>11      -0.2289
  18 C12      -6.8781    -6.9700    -2.4253  C.2     1  <O>11       0.2784
  19 O4       -7.8928    -7.1997    -3.0639  O.2     1  <O>11      -0.2670
  20 C13      -6.9711    -6.6159    -1.0153  C.ar    1  <O>11       0.1268
  21 C14      -6.9366    -7.6405    -0.0337  C.ar    1  <O>11      -0.0311
  22 C15      -7.0154    -7.2936     1.3105  C.ar    1  <O>11      -0.0582
  23 C16      -7.1523    -5.9409     1.6404  C.ar    1  <O>11      -0.0436
  24 C17      -7.1797    -4.9830     0.6248  C.ar    1  <O>11       0.0284
  25 N3       -7.0876    -5.3200    -0.6686  N.ar    1  <O>11      -0.2503
  26 C18      -4.3565    -4.2447    -4.3611  C.ar    1  <O>11      -0.0247
  27 C19      -3.7089    -0.6788    -4.3880  C.3     1  <O>11      -0.0277
  28 H1       -3.9958     0.1141    -1.7234  H       1  <O>11       0.0232
  29 H2       -4.9399     1.5782    -2.0884  H       1  <O>11       0.0232
  30 H3       -3.2876     1.4026    -2.7266  H       1  <O>11       0.0232
  31 H4       -5.6489    -0.3718    -3.4683  H       1  <O>11       0.0299
  32 H5       -6.0811     1.6223    -4.6927  H       1  <O>11       0.0268
  33 H6       -4.3569     2.0589    -4.7690  H       1  <O>11       0.0268
  34 H7       -5.9213     0.2861    -6.5571  H       1  <O>11       0.0284
  35 H8       -4.3411     1.0562    -6.8391  H       1  <O>11       0.0284
  36 H9       -3.4134    -1.0169    -6.4999  H       1  <O>11       0.0540
  37 H10      -4.3978    -7.1721    -1.3772  H       1  <O>11       0.1731
  38 H11      -5.5889    -7.2936    -4.0202  H       1  <O>11       0.1732
  39 H12      -3.6361    -1.6434    -3.8856  H       1  <O>11       0.0286
  40 H13      -2.7332    -0.1930    -4.3861  H       1  <O>11       0.0286
  41 H14      -4.0917    -4.0219    -7.7050  H       1  <O>11       0.0636
  42 H15      -2.9255    -6.1259    -7.3778  H       1  <O>11       0.0618
  43 H16      -2.6668    -7.0441    -5.1421  H       1  <O>11       0.0625
  44 H17      -6.8541    -8.6303    -0.3141  H       1  <O>11       0.0640
  45 H18      -6.9739    -8.0159     2.0464  H       1  <O>11       0.0619
  46 H19      -7.2325    -5.6529     2.6281  H       1  <O>11       0.0633
  47 H20      -7.2737    -3.9868     0.8778  H       1  <O>11       0.0830
  48 H21      -4.7340    -3.7392    -3.5443  H       1  <O>11       0.0644
@<TRIPOS>BOND
     1     1     2    1
     2     2     3    1
     3     3     4    1
     4     4     5    1
     5     5     6    1
     6     6     7    2
     7     6     8    2
     8     6     9    1
     9     9    10   ar
    10    10    11   ar
    11    11    12   ar
    12    12    13   ar
    13    13    14    1
    14    14    15    2
    15    14    16   am
    16    16    17    1
    17    17    18   am
    18    18    19    2
    19    18    20    1
    20    20    21   ar
    21    21    22   ar
    22    22    23   ar
    23    23    24   ar
    24    24    25   ar
    25    20    25   ar
    26    13    26   ar
    27     9    26   ar
    28     5    27    1
    29     2    27    1
    30     1    28    1
    31     1    29    1
    32     1    30    1
    33     2    31    1
    34     3    32    1
    35     3    33    1
    36     4    34    1
    37     4    35    1
    38     5    36    1
    39    16    37    1
    40    17    38    1
    41    27    39    1
    42    27    40    1
    43    10    41    1
    44    11    42    1
    45    12    43    1
    46    21    44    1
    47    22    45    1
    48    23    46    1
    49    24    47    1
    50    26    48    1
@<TRIPOS>MOLECULE
mol87_1_15
 48 50 0 0 0
SMALL
USER_CHARGES
****
VDW energy = 220.34
@<TRIPOS>ATOM
   1 C1       -4.2066     0.8720    -2.4778  C.3     1  <O>11      -0.0624
   2 C2       -4.7601     0.2037    -3.7270  C.3     1  <O>11      -0.0421
   3 C3       -5.0692     1.2349    -4.8110  C.3     1  <O>11      -0.0487
   4 C4       -4.9361     0.4781    -6.1320  C.3     1  <O>11      -0.0301
   5 C5       -4.2353    -0.8404    -5.8060  C.3     1  <O>11       0.0822
   6 S1       -5.3820    -2.1890    -5.8910  S.O2    1  <O>11      -0.0002
   7 O1       -6.1172    -2.1965    -7.3812  O.2     1  <O>11      -0.1691
   8 O2       -6.5322    -2.0133    -4.7072  O.2     1  <O>11      -0.1691
   9 C6       -4.5171    -3.7149    -5.6524  C.ar    1  <O>11       0.0892
  10 C7       -5.2299    -4.9092    -5.4453  C.ar    1  <O>11      -0.0368
  11 C8       -4.5448    -6.1128    -5.2449  C.ar    1  <O>11      -0.0592
  12 C9       -3.1484    -6.1371    -5.2519  C.ar    1  <O>11      -0.0495
  13 C10      -2.4400    -4.9489    -5.4639  C.ar    1  <O>11       0.0400
  14 C11      -0.9929    -4.9805    -5.4723  C.2     1  <O>11       0.2602
  15 O3       -0.3936    -5.2464    -6.5035  O.2     1  <O>11      -0.2687
  16 N1       -0.2952    -4.7106    -4.3249  N.am    1  <O>11      -0.2301
  17 N2       -0.9701    -4.4109    -3.1668  N.am    1  <O>11      -0.2289
  18 C12      -0.5507    -3.3756    -2.3756  C.2     1  <O>11       0.2784
  19 O4       -1.1508    -3.1095    -1.3464  O.2     1  <O>11      -0.2670
  20 C13       0.6135    -2.5900    -2.7623  C.ar    1  <O>11       0.1268
  21 C14       0.6038    -1.1841    -2.5678  C.ar    1  <O>11      -0.0311
  22 C15       1.7230    -0.4425    -2.9298  C.ar    1  <O>11      -0.0582
  23 C16       2.8098    -1.1151    -3.4987  C.ar    1  <O>11      -0.0436
  24 C17       2.7540    -2.5007    -3.6624  C.ar    1  <O>11       0.0284
  25 N3        1.6800    -3.2138    -3.2977  N.ar    1  <O>11      -0.2503
  26 C18      -3.1125    -3.7437    -5.6673  C.ar    1  <O>11      -0.0247
  27 C19      -3.7089    -0.6788    -4.3880  C.3     1  <O>11      -0.0277
  28 H1       -3.9958     0.1141    -1.7234  H       1  <O>11       0.0232
  29 H2       -4.9399     1.5782    -2.0884  H       1  <O>11       0.0232
  30 H3       -3.2876     1.4026    -2.7266  H       1  <O>11       0.0232
  31 H4       -5.6489    -0.3718    -3.4683  H       1  <O>11       0.0299
  32 H5       -6.0811     1.6223    -4.6927  H       1  <O>11       0.0268
  33 H6       -4.3569     2.0589    -4.7690  H       1  <O>11       0.0268
  34 H7       -5.9213     0.2861    -6.5571  H       1  <O>11       0.0284
  35 H8       -4.3411     1.0562    -6.8391  H       1  <O>11       0.0284
  36 H9       -3.4134    -1.0169    -6.4999  H       1  <O>11       0.0540
  37 H10       0.7240    -4.7310    -4.3325  H       1  <O>11       0.1731
  38 H11      -1.7856    -4.9619    -2.8948  H       1  <O>11       0.1732
  39 H12      -3.6361    -1.6434    -3.8856  H       1  <O>11       0.0286
  40 H13      -2.7332    -0.1930    -4.3861  H       1  <O>11       0.0286
  41 H14      -6.2618    -4.8980    -5.4410  H       1  <O>11       0.0636
  42 H15      -5.0733    -6.9858    -5.0915  H       1  <O>11       0.0618
  43 H16      -2.6429    -7.0242    -5.1018  H       1  <O>11       0.0625
  44 H17      -0.2233    -0.7182    -2.1628  H       1  <O>11       0.0640
  45 H18       1.7511     0.5786    -2.7825  H       1  <O>11       0.0619
  46 H19       3.6475    -0.5906    -3.7955  H       1  <O>11       0.0633
  47 H20       3.5633    -2.9896    -4.0763  H       1  <O>11       0.0830
  48 H21      -2.5792    -2.8750    -5.8284  H       1  <O>11       0.0644
@<TRIPOS>BOND
     1     1     2    1
     2     2     3    1
     3     3     4    1
     4     4     5    1
     5     5     6    1
     6     6     7    2
     7     6     8    2
     8     6     9    1
     9     9    10   ar
    10    10    11   ar
    11    11    12   ar
    12    12    13   ar
    13    13    14    1
    14    14    15    2
    15    14    16   am
    16    16    17    1
    17    17    18   am
    18    18    19    2
    19    18    20    1
    20    20    21   ar
    21    21    22   ar
    22    22    23   ar
    23    23    24   ar
    24    24    25   ar
    25    20    25   ar
    26    13    26   ar
    27     9    26   ar
    28     5    27    1
    29     2    27    1
    30     1    28    1
    31     1    29    1
    32     1    30    1
    33     2    31    1
    34     3    32    1
    35     3    33    1
    36     4    34    1
    37     4    35    1
    38     5    36    1
    39    16    37    1
    40    17    38    1
    41    27    39    1
    42    27    40    1
    43    10    41    1
    44    11    42    1
    45    12    43    1
    46    21    44    1
    47    22    45    1
    48    23    46    1
    49    24    47    1
    50    26    48    1
@<TRIPOS>MOLECULE
mol87_1_16
 48 50 0 0 0
SMALL
USER_CHARGES
****
VDW energy = 220.46
@<TRIPOS>ATOM
   1 C1       -4.2066     0.8720    -2.4778  C.3     1  <O>11      -0.0624
   2 C2       -4.7601     0.2037    -3.7270  C.3     1  <O>11      -0.0421
   3 C3       -5.0692     1.2349    -4.8110  C.3     1  <O>11      -0.0487
   4 C4       -4.9361     0.4781    -6.1320  C.3     1  <O>11      -0.0301
   5 C5       -4.2353    -0.8404    -5.8060  C.3     1  <O>11       0.0822
   6 S1       -5.3820    -2.1890    -5.8910  S.O2    1  <O>11      -0.0002
   7 O1       -6.9020    -1.6482    -5.4930  O.2     1  <O>11      -0.1691
   8 O2       -4.9206    -3.3761    -4.8265  O.2     1  <O>11      -0.1691
   9 C6       -5.4010    -2.8447    -7.5352  C.ar    1  <O>11       0.0892
  10 C7       -6.0523    -4.0612    -7.8060  C.ar    1  <O>11      -0.0368
  11 C8       -6.0563    -4.5843    -9.1039  C.ar    1  <O>11      -0.0592
  12 C9       -5.4159    -3.9010   -10.1399  C.ar    1  <O>11      -0.0495
  13 C10      -4.7730    -2.6874    -9.8703  C.ar    1  <O>11       0.0400
  14 C11      -4.1129    -1.9824   -10.9485  C.2     1  <O>11       0.2602
  15 O3       -2.9376    -2.2075   -11.1964  O.2     1  <O>11      -0.2687
  16 N1       -4.8059    -1.0643   -11.6921  N.am    1  <O>11      -0.2301
  17 N2       -4.1781    -0.3962   -12.7149  N.am    1  <O>11      -0.2289
  18 C12      -4.3618     0.9513   -12.8699  C.2     1  <O>11       0.2784
  19 O4       -3.8037     1.5448   -13.7790  O.2     1  <O>11      -0.2670
  20 C13      -5.2246     1.6786   -11.9486  C.ar    1  <O>11       0.1268
  21 C14      -4.6455     2.5459   -10.9858  C.ar    1  <O>11      -0.0311
  22 C15      -5.4763     3.2445   -10.1168  C.ar    1  <O>11      -0.0582
  23 C16      -6.8574     3.0420   -10.2117  C.ar    1  <O>11      -0.0436
  24 C17      -7.3618     2.1738   -11.1822  C.ar    1  <O>11       0.0284
  25 N3       -6.5588     1.5145   -12.0281  N.ar    1  <O>11      -0.2503
  26 C18      -4.7648    -2.1551    -8.5810  C.ar    1  <O>11      -0.0247
  27 C19      -3.7089    -0.6788    -4.3880  C.3     1  <O>11      -0.0277
  28 H1       -3.9958     0.1141    -1.7234  H       1  <O>11       0.0232
  29 H2       -4.9399     1.5782    -2.0884  H       1  <O>11       0.0232
  30 H3       -3.2876     1.4026    -2.7266  H       1  <O>11       0.0232
  31 H4       -5.6489    -0.3718    -3.4683  H       1  <O>11       0.0299
  32 H5       -6.0811     1.6223    -4.6927  H       1  <O>11       0.0268
  33 H6       -4.3569     2.0589    -4.7690  H       1  <O>11       0.0268
  34 H7       -5.9213     0.2861    -6.5571  H       1  <O>11       0.0284
  35 H8       -4.3411     1.0562    -6.8391  H       1  <O>11       0.0284
  36 H9       -3.4134    -1.0169    -6.4999  H       1  <O>11       0.0540
  37 H10      -5.7863    -0.8770   -11.4843  H       1  <O>11       0.1731
  38 H11      -3.5740    -0.9056   -13.3615  H       1  <O>11       0.1732
  39 H12      -3.6361    -1.6434    -3.8856  H       1  <O>11       0.0286
  40 H13      -2.7332    -0.1930    -4.3861  H       1  <O>11       0.0286
  41 H14      -6.5289    -4.5698    -7.0450  H       1  <O>11       0.0636
  42 H15      -6.5343    -5.4785    -9.2962  H       1  <O>11       0.0618
  43 H16      -5.4168    -4.2877   -11.0967  H       1  <O>11       0.0625
  44 H17      -3.6209     2.6566   -10.9315  H       1  <O>11       0.0640
  45 H18      -5.0840     3.8961    -9.4194  H       1  <O>11       0.0619
  46 H19      -7.4993     3.5310    -9.5685  H       1  <O>11       0.0633
  47 H20      -8.3824     2.0360   -11.2497  H       1  <O>11       0.0830
  48 H21      -4.2923    -1.2566    -8.3956  H       1  <O>11       0.0644
@<TRIPOS>BOND
     1     1     2    1
     2     2     3    1
     3     3     4    1
     4     4     5    1
     5     5     6    1
     6     6     7    2
     7     6     8    2
     8     6     9    1
     9     9    10   ar
    10    10    11   ar
    11    11    12   ar
    12    12    13   ar
    13    13    14    1
    14    14    15    2
    15    14    16   am
    16    16    17    1
    17    17    18   am
    18    18    19    2
    19    18    20    1
    20    20    21   ar
    21    21    22   ar
    22    22    23   ar
    23    23    24   ar
    24    24    25   ar
    25    20    25   ar
    26    13    26   ar
    27     9    26   ar
    28     5    27    1
    29     2    27    1
    30     1    28    1
    31     1    29    1
    32     1    30    1
    33     2    31    1
    34     3    32    1
    35     3    33    1
    36     4    34    1
    37     4    35    1
    38     5    36    1
    39    16    37    1
    40    17    38    1
    41    27    39    1
    42    27    40    1
    43    10    41    1
    44    11    42    1
    45    12    43    1
    46    21    44    1
    47    22    45    1
    48    23    46    1
    49    24    47    1
    50    26    48    1
@<TRIPOS>MOLECULE
mol87_1_17
 48 50 0 0 0
SMALL
USER_CHARGES
****
VDW energy = 220.73
@<TRIPOS>ATOM
   1 C1       -4.2066     0.8720    -2.4778  C.3     1  <O>11      -0.0624
   2 C2       -4.7601     0.2037    -3.7270  C.3     1  <O>11      -0.0421
   3 C3       -5.0692     1.2349    -4.8110  C.3     1  <O>11      -0.0487
   4 C4       -4.9361     0.4781    -6.1320  C.3     1  <O>11      -0.0301
   5 C5       -4.2353    -0.8404    -5.8060  C.3     1  <O>11       0.0822
   6 S1       -5.3820    -2.1890    -5.8910  S.O2    1  <O>11      -0.0002
   7 O1       -6.9020    -1.6482    -5.4930  O.2     1  <O>11      -0.1691
   8 O2       -4.9206    -3.3761    -4.8265  O.2     1  <O>11      -0.1691
   9 C6       -5.4010    -2.8447    -7.5352  C.ar    1  <O>11       0.0892
  10 C7       -5.7627    -2.0271    -8.6205  C.ar    1  <O>11      -0.0368
  11 C8       -5.7888    -2.5499    -9.9183  C.ar    1  <O>11      -0.0592
  12 C9       -5.4533    -3.8864   -10.1452  C.ar    1  <O>11      -0.0495
  13 C10      -5.0878    -4.6977    -9.0650  C.ar    1  <O>11       0.0400
  14 C11      -4.7388    -6.0816    -9.3066  C.2     1  <O>11       0.2602
  15 O3       -5.6041    -6.9440    -9.2767  O.2     1  <O>11      -0.2687
  16 N1       -3.4391    -6.4243    -9.5703  N.am    1  <O>11      -0.2301
  17 N2       -3.1096    -7.7379    -9.7993  N.am    1  <O>11      -0.2289
  18 C12      -1.9953    -8.2782    -9.2164  C.2     1  <O>11       0.2784
  19 O4       -1.7027    -9.4457    -9.4202  O.2     1  <O>11      -0.2670
  20 C13      -1.1570    -7.4590    -8.3515  C.ar    1  <O>11       0.1268
  21 C14      -1.1768    -7.6768    -6.9490  C.ar    1  <O>11      -0.0311
  22 C15      -0.3659    -6.8976    -6.1311  C.ar    1  <O>11      -0.0582
  23 C16       0.4220    -5.9069    -6.7269  C.ar    1  <O>11      -0.0436
  24 C17       0.3942    -5.7451    -8.1136  C.ar    1  <O>11       0.0284
  25 N3       -0.3766    -6.5085    -8.8998  N.ar    1  <O>11      -0.2503
  26 C18      -5.0557    -4.1866    -7.7675  C.ar    1  <O>11      -0.0247
  27 C19      -3.7089    -0.6788    -4.3880  C.3     1  <O>11      -0.0277
  28 H1       -3.9958     0.1141    -1.7234  H       1  <O>11       0.0232
  29 H2       -4.9399     1.5782    -2.0884  H       1  <O>11       0.0232
  30 H3       -3.2876     1.4026    -2.7266  H       1  <O>11       0.0232
  31 H4       -5.6489    -0.3718    -3.4683  H       1  <O>11       0.0299
  32 H5       -6.0811     1.6223    -4.6927  H       1  <O>11       0.0268
  33 H6       -4.3569     2.0589    -4.7690  H       1  <O>11       0.0268
  34 H7       -5.9213     0.2861    -6.5571  H       1  <O>11       0.0284
  35 H8       -4.3411     1.0562    -6.8391  H       1  <O>11       0.0284
  36 H9       -3.4134    -1.0169    -6.4999  H       1  <O>11       0.0540
  37 H10      -2.7180    -5.7041    -9.5947  H       1  <O>11       0.1731
  38 H11      -3.6963    -8.3123   -10.4063  H       1  <O>11       0.1732
  39 H12      -3.6361    -1.6434    -3.8856  H       1  <O>11       0.0286
  40 H13      -2.7332    -0.1930    -4.3861  H       1  <O>11       0.0286
  41 H14      -6.0098    -1.0381    -8.4594  H       1  <O>11       0.0636
  42 H15      -6.0570    -1.9455   -10.7106  H       1  <O>11       0.0618
  43 H16      -5.4747    -4.2728   -11.1020  H       1  <O>11       0.0625
  44 H17      -1.7851    -8.4041    -6.5417  H       1  <O>11       0.0640
  45 H18      -0.3459    -7.0465    -5.1101  H       1  <O>11       0.0619
  46 H19       1.0201    -5.2995    -6.1452  H       1  <O>11       0.0633
  47 H20       0.9842    -5.0166    -8.5452  H       1  <O>11       0.0830
  48 H21      -4.7790    -4.7931    -6.9796  H       1  <O>11       0.0644
@<TRIPOS>BOND
     1     1     2    1
     2     2     3    1
     3     3     4    1
     4     4     5    1
     5     5     6    1
     6     6     7    2
     7     6     8    2
     8     6     9    1
     9     9    10   ar
    10    10    11   ar
    11    11    12   ar
    12    12    13   ar
    13    13    14    1
    14    14    15    2
    15    14    16   am
    16    16    17    1
    17    17    18   am
    18    18    19    2
    19    18    20    1
    20    20    21   ar
    21    21    22   ar
    22    22    23   ar
    23    23    24   ar
    24    24    25   ar
    25    20    25   ar
    26    13    26   ar
    27     9    26   ar
    28     5    27    1
    29     2    27    1
    30     1    28    1
    31     1    29    1
    32     1    30    1
    33     2    31    1
    34     3    32    1
    35     3    33    1
    36     4    34    1
    37     4    35    1
    38     5    36    1
    39    16    37    1
    40    17    38    1
    41    27    39    1
    42    27    40    1
    43    10    41    1
    44    11    42    1
    45    12    43    1
    46    21    44    1
    47    22    45    1
    48    23    46    1
    49    24    47    1
    50    26    48    1
@<TRIPOS>MOLECULE
mol87_1_18
 48 50 0 0 0
SMALL
USER_CHARGES
****
VDW energy = 220.81
@<TRIPOS>ATOM
   1 C1       -4.2066     0.8720    -2.4778  C.3     1  <O>11      -0.0624
   2 C2       -4.7601     0.2037    -3.7270  C.3     1  <O>11      -0.0421
   3 C3       -5.0692     1.2349    -4.8110  C.3     1  <O>11      -0.0487
   4 C4       -4.9361     0.4781    -6.1320  C.3     1  <O>11      -0.0301
   5 C5       -4.2353    -0.8404    -5.8060  C.3     1  <O>11       0.0822
   6 S1       -5.3820    -2.1890    -5.8910  S.O2    1  <O>11      -0.0002
   7 O1       -6.9020    -1.6482    -5.4930  O.2     1  <O>11      -0.1691
   8 O2       -4.9206    -3.3761    -4.8265  O.2     1  <O>11      -0.1691
   9 C6       -5.4010    -2.8447    -7.5352  C.ar    1  <O>11       0.0892
  10 C7       -4.2257    -3.3666    -8.1041  C.ar    1  <O>11      -0.0368
  11 C8       -4.2393    -3.8737    -9.4082  C.ar    1  <O>11      -0.0592
  12 C9       -5.4206    -3.8676   -10.1531  C.ar    1  <O>11      -0.0495
  13 C10      -6.5911    -3.3533    -9.5838  C.ar    1  <O>11       0.0400
  14 C11      -7.8130    -3.3517   -10.3598  C.2     1  <O>11       0.2602
  15 O3       -8.0885    -2.3914   -11.0636  O.2     1  <O>11      -0.2687
  16 N1       -8.6597    -4.4271   -10.3066  N.am    1  <O>11      -0.2301
  17 N2       -8.3483    -5.5062    -9.5159  N.am    1  <O>11      -0.2289
  18 C12      -8.5104    -6.7782    -9.9947  C.2     1  <O>11       0.2784
  19 O4       -8.9323    -6.9574   -11.1261  O.2     1  <O>11      -0.2670
  20 C13      -8.1790    -7.9200    -9.1530  C.ar    1  <O>11       0.1268
  21 C14      -9.2226    -8.7109    -8.6054  C.ar    1  <O>11      -0.0311
  22 C15      -8.8979    -9.8053    -7.8115  C.ar    1  <O>11      -0.0582
  23 C16      -7.5463   -10.0676    -7.5627  C.ar    1  <O>11      -0.0436
  24 C17      -6.5689    -9.2491    -8.1324  C.ar    1  <O>11       0.0284
  25 N3       -6.8855    -8.2049    -8.9099  N.ar    1  <O>11      -0.2503
  26 C18      -6.5899    -2.8476    -8.2838  C.ar    1  <O>11      -0.0247
  27 C19      -3.7089    -0.6788    -4.3880  C.3     1  <O>11      -0.0277
  28 H1       -3.9958     0.1141    -1.7234  H       1  <O>11       0.0232
  29 H2       -4.9399     1.5782    -2.0884  H       1  <O>11       0.0232
  30 H3       -3.2876     1.4026    -2.7266  H       1  <O>11       0.0232
  31 H4       -5.6489    -0.3718    -3.4683  H       1  <O>11       0.0299
  32 H5       -6.0811     1.6223    -4.6927  H       1  <O>11       0.0268
  33 H6       -4.3569     2.0589    -4.7690  H       1  <O>11       0.0268
  34 H7       -5.9213     0.2861    -6.5571  H       1  <O>11       0.0284
  35 H8       -4.3411     1.0562    -6.8391  H       1  <O>11       0.0284
  36 H9       -3.4134    -1.0169    -6.4999  H       1  <O>11       0.0540
  37 H10      -9.5189    -4.4258   -10.8552  H       1  <O>11       0.1731
  38 H11      -7.9961    -5.3594    -8.5688  H       1  <O>11       0.1732
  39 H12      -3.6361    -1.6434    -3.8856  H       1  <O>11       0.0286
  40 H13      -2.7332    -0.1930    -4.3861  H       1  <O>11       0.0286
  41 H14      -3.3501    -3.3756    -7.5579  H       1  <O>11       0.0636
  42 H15      -3.3732    -4.2537    -9.8211  H       1  <O>11       0.0618
  43 H16      -5.4304    -4.2395   -11.1157  H       1  <O>11       0.0625
  44 H17     -10.2098    -8.4768    -8.7942  H       1  <O>11       0.0640
  45 H18      -9.6354   -10.4090    -7.4157  H       1  <O>11       0.0619
  46 H19      -7.2734   -10.8610    -6.9618  H       1  <O>11       0.0633
  47 H20      -5.5742    -9.4544    -7.9494  H       1  <O>11       0.0830
  48 H21      -7.4606    -2.4762    -7.8727  H       1  <O>11       0.0644
@<TRIPOS>BOND
     1     1     2    1
     2     2     3    1
     3     3     4    1
     4     4     5    1
     5     5     6    1
     6     6     7    2
     7     6     8    2
     8     6     9    1
     9     9    10   ar
    10    10    11   ar
    11    11    12   ar
    12    12    13   ar
    13    13    14    1
    14    14    15    2
    15    14    16   am
    16    16    17    1
    17    17    18   am
    18    18    19    2
    19    18    20    1
    20    20    21   ar
    21    21    22   ar
    22    22    23   ar
    23    23    24   ar
    24    24    25   ar
    25    20    25   ar
    26    13    26   ar
    27     9    26   ar
    28     5    27    1
    29     2    27    1
    30     1    28    1
    31     1    29    1
    32     1    30    1
    33     2    31    1
    34     3    32    1
    35     3    33    1
    36     4    34    1
    37     4    35    1
    38     5    36    1
    39    16    37    1
    40    17    38    1
    41    27    39    1
    42    27    40    1
    43    10    41    1
    44    11    42    1
    45    12    43    1
    46    21    44    1
    47    22    45    1
    48    23    46    1
    49    24    47    1
    50    26    48    1
@<TRIPOS>MOLECULE
mol87_1_19
 48 50 0 0 0
SMALL
USER_CHARGES
****
VDW energy = 221.09
@<TRIPOS>ATOM
   1 C1       -4.2066     0.8720    -2.4778  C.3     1  <O>11      -0.0624
   2 C2       -4.7601     0.2037    -3.7270  C.3     1  <O>11      -0.0421
   3 C3       -5.0692     1.2349    -4.8110  C.3     1  <O>11      -0.0487
   4 C4       -4.9361     0.4781    -6.1320  C.3     1  <O>11      -0.0301
   5 C5       -4.2353    -0.8404    -5.8060  C.3     1  <O>11       0.0822
   6 S1       -5.3820    -2.1890    -5.8910  S.O2    1  <O>11      -0.0002
   7 O1       -6.1172    -2.1965    -7.3812  O.2     1  <O>11      -0.1691
   8 O2       -6.5322    -2.0133    -4.7072  O.2     1  <O>11      -0.1691
   9 C6       -4.5171    -3.7149    -5.6524  C.ar    1  <O>11       0.0892
  10 C7       -5.2299    -4.9092    -5.4453  C.ar    1  <O>11      -0.0368
  11 C8       -4.5448    -6.1128    -5.2449  C.ar    1  <O>11      -0.0592
  12 C9       -3.1484    -6.1371    -5.2519  C.ar    1  <O>11      -0.0495
  13 C10      -2.4400    -4.9489    -5.4639  C.ar    1  <O>11       0.0400
  14 C11      -0.9929    -4.9805    -5.4723  C.2     1  <O>11       0.2602
  15 O3       -0.3936    -5.2464    -6.5035  O.2     1  <O>11      -0.2687
  16 N1       -0.2952    -4.7106    -4.3249  N.am    1  <O>11      -0.2301
  17 N2       -0.9701    -4.4109    -3.1668  N.am    1  <O>11      -0.2289
  18 C12      -0.5507    -3.3756    -2.3756  C.2     1  <O>11       0.2784
  19 O4        0.4246    -2.7156    -2.6971  O.2     1  <O>11      -0.2670
  20 C13      -1.2692    -3.0609    -1.1481  C.ar    1  <O>11       0.1268
  21 C14      -0.6820    -3.3747     0.1054  C.ar    1  <O>11      -0.0311
  22 C15      -1.3696    -3.0616     1.2728  C.ar    1  <O>11      -0.0582
  23 C16      -2.6322    -2.4694     1.1614  C.ar    1  <O>11      -0.0436
  24 C17      -3.1522    -2.1874    -0.1035  C.ar    1  <O>11       0.0284
  25 N3       -2.4797    -2.4762    -1.2257  N.ar    1  <O>11      -0.2503
  26 C18      -3.1125    -3.7437    -5.6673  C.ar    1  <O>11      -0.0247
  27 C19      -3.7089    -0.6788    -4.3880  C.3     1  <O>11      -0.0277
  28 H1       -3.9958     0.1141    -1.7234  H       1  <O>11       0.0232
  29 H2       -4.9399     1.5782    -2.0884  H       1  <O>11       0.0232
  30 H3       -3.2876     1.4026    -2.7266  H       1  <O>11       0.0232
  31 H4       -5.6489    -0.3718    -3.4683  H       1  <O>11       0.0299
  32 H5       -6.0811     1.6223    -4.6927  H       1  <O>11       0.0268
  33 H6       -4.3569     2.0589    -4.7690  H       1  <O>11       0.0268
  34 H7       -5.9213     0.2861    -6.5571  H       1  <O>11       0.0284
  35 H8       -4.3411     1.0562    -6.8391  H       1  <O>11       0.0284
  36 H9       -3.4134    -1.0169    -6.4999  H       1  <O>11       0.0540
  37 H10       0.7240    -4.7310    -4.3325  H       1  <O>11       0.1731
  38 H11      -1.7856    -4.9619    -2.8948  H       1  <O>11       0.1732
  39 H12      -3.6361    -1.6434    -3.8856  H       1  <O>11       0.0286
  40 H13      -2.7332    -0.1930    -4.3861  H       1  <O>11       0.0286
  41 H14      -6.2618    -4.8980    -5.4410  H       1  <O>11       0.0636
  42 H15      -5.0733    -6.9858    -5.0915  H       1  <O>11       0.0618
  43 H16      -2.6429    -7.0242    -5.1018  H       1  <O>11       0.0625
  44 H17       0.2434    -3.8293     0.1498  H       1  <O>11       0.0640
  45 H18      -0.9587    -3.2611     2.1982  H       1  <O>11       0.0619
  46 H19      -3.1759    -2.2425     2.0087  H       1  <O>11       0.0633
  47 H20      -4.0813    -1.7438    -0.1760  H       1  <O>11       0.0830
  48 H21      -2.5792    -2.8750    -5.8284  H       1  <O>11       0.0644
@<TRIPOS>BOND
     1     1     2    1
     2     2     3    1
     3     3     4    1
     4     4     5    1
     5     5     6    1
     6     6     7    2
     7     6     8    2
     8     6     9    1
     9     9    10   ar
    10    10    11   ar
    11    11    12   ar
    12    12    13   ar
    13    13    14    1
    14    14    15    2
    15    14    16   am
    16    16    17    1
    17    17    18   am
    18    18    19    2
    19    18    20    1
    20    20    21   ar
    21    21    22   ar
    22    22    23   ar
    23    23    24   ar
    24    24    25   ar
    25    20    25   ar
    26    13    26   ar
    27     9    26   ar
    28     5    27    1
    29     2    27    1
    30     1    28    1
    31     1    29    1
    32     1    30    1
    33     2    31    1
    34     3    32    1
    35     3    33    1
    36     4    34    1
    37     4    35    1
    38     5    36    1
    39    16    37    1
    40    17    38    1
    41    27    39    1
    42    27    40    1
    43    10    41    1
    44    11    42    1
    45    12    43    1
    46    21    44    1
    47    22    45    1
    48    23    46    1
    49    24    47    1
    50    26    48    1
@<TRIPOS>MOLECULE
mol87_1_20
 48 50 0 0 0
SMALL
USER_CHARGES
****
VDW energy = 221.51
@<TRIPOS>ATOM
   1 C1       -4.2066     0.8720    -2.4778  C.3     1  <O>11      -0.0624
   2 C2       -4.7601     0.2037    -3.7270  C.3     1  <O>11      -0.0421
   3 C3       -5.0692     1.2349    -4.8110  C.3     1  <O>11      -0.0487
   4 C4       -4.9361     0.4781    -6.1320  C.3     1  <O>11      -0.0301
   5 C5       -4.2353    -0.8404    -5.8060  C.3     1  <O>11       0.0822
   6 S1       -5.3820    -2.1890    -5.8910  S.O2    1  <O>11      -0.0002
   7 O1       -6.9020    -1.6482    -5.4930  O.2     1  <O>11      -0.1691
   8 O2       -4.9206    -3.3761    -4.8265  O.2     1  <O>11      -0.1691
   9 C6       -5.4010    -2.8447    -7.5352  C.ar    1  <O>11       0.0892
  10 C7       -6.0523    -4.0612    -7.8060  C.ar    1  <O>11      -0.0368
  11 C8       -6.0563    -4.5843    -9.1039  C.ar    1  <O>11      -0.0592
  12 C9       -5.4159    -3.9010   -10.1399  C.ar    1  <O>11      -0.0495
  13 C10      -4.7730    -2.6874    -9.8703  C.ar    1  <O>11       0.0400
  14 C11      -4.1129    -1.9824   -10.9485  C.2     1  <O>11       0.2602
  15 O3       -4.7492    -1.2180   -11.6585  O.2     1  <O>11      -0.2687
  16 N1       -2.7746    -2.1708   -11.1720  N.am    1  <O>11      -0.2301
  17 N2       -2.0605    -3.0296   -10.3725  N.am    1  <O>11      -0.2289
  18 C12      -0.8258    -2.6671    -9.9059  C.2     1  <O>11       0.2784
  19 O4       -0.1914    -3.4306    -9.1955  O.2     1  <O>11      -0.2670
  20 C13      -0.2678    -1.3682   -10.2575  C.ar    1  <O>11       0.1268
  21 C14       1.1146    -1.2603   -10.5607  C.ar    1  <O>11      -0.0311
  22 C15       1.6375    -0.0189   -10.9055  C.ar    1  <O>11      -0.0582
  23 C16       0.7778     1.0848   -10.9140  C.ar    1  <O>11      -0.0436
  24 C17      -0.5727     0.9091   -10.6052  C.ar    1  <O>11       0.0284
  25 N3       -1.0760    -0.2916   -10.2889  N.ar    1  <O>11      -0.2503
  26 C18      -4.7648    -2.1551    -8.5810  C.ar    1  <O>11      -0.0247
  27 C19      -3.7089    -0.6788    -4.3880  C.3     1  <O>11      -0.0277
  28 H1       -3.9958     0.1141    -1.7234  H       1  <O>11       0.0232
  29 H2       -4.9399     1.5782    -2.0884  H       1  <O>11       0.0232
  30 H3       -3.2876     1.4026    -2.7266  H       1  <O>11       0.0232
  31 H4       -5.6489    -0.3718    -3.4683  H       1  <O>11       0.0299
  32 H5       -6.0811     1.6223    -4.6927  H       1  <O>11       0.0268
  33 H6       -4.3569     2.0589    -4.7690  H       1  <O>11       0.0268
  34 H7       -5.9213     0.2861    -6.5571  H       1  <O>11       0.0284
  35 H8       -4.3411     1.0562    -6.8391  H       1  <O>11       0.0284
  36 H9       -3.4134    -1.0169    -6.4999  H       1  <O>11       0.0540
  37 H10      -2.3104    -1.6721   -11.9302  H       1  <O>11       0.1731
  38 H11      -2.4507    -3.9405   -10.1266  H       1  <O>11       0.1732
  39 H12      -3.6361    -1.6434    -3.8856  H       1  <O>11       0.0286
  40 H13      -2.7332    -0.1930    -4.3861  H       1  <O>11       0.0286
  41 H14      -6.5289    -4.5698    -7.0450  H       1  <O>11       0.0636
  42 H15      -6.5343    -5.4785    -9.2962  H       1  <O>11       0.0618
  43 H16      -5.4168    -4.2877   -11.0967  H       1  <O>11       0.0625
  44 H17       1.7237    -2.0926   -10.5257  H       1  <O>11       0.0640
  45 H18       2.6349     0.0857   -11.1490  H       1  <O>11       0.0619
  46 H19       1.1393     2.0229   -11.1470  H       1  <O>11       0.0633
  47 H20      -1.2011     1.7277   -10.6211  H       1  <O>11       0.0830
  48 H21      -4.2923    -1.2566    -8.3956  H       1  <O>11       0.0644
@<TRIPOS>BOND
     1     1     2    1
     2     2     3    1
     3     3     4    1
     4     4     5    1
     5     5     6    1
     6     6     7    2
     7     6     8    2
     8     6     9    1
     9     9    10   ar
    10    10    11   ar
    11    11    12   ar
    12    12    13   ar
    13    13    14    1
    14    14    15    2
    15    14    16   am
    16    16    17    1
    17    17    18   am
    18    18    19    2
    19    18    20    1
    20    20    21   ar
    21    21    22   ar
    22    22    23   ar
    23    23    24   ar
    24    24    25   ar
    25    20    25   ar
    26    13    26   ar
    27     9    26   ar
    28     5    27    1
    29     2    27    1
    30     1    28    1
    31     1    29    1
    32     1    30    1
    33     2    31    1
    34     3    32    1
    35     3    33    1
    36     4    34    1
    37     4    35    1
    38     5    36    1
    39    16    37    1
    40    17    38    1
    41    27    39    1
    42    27    40    1
    43    10    41    1
    44    11    42    1
    45    12    43    1
    46    21    44    1
    47    22    45    1
    48    23    46    1
    49    24    47    1
    50    26    48    1
@<TRIPOS>MOLECULE
mol87_1_21
 48 50 0 0 0
SMALL
USER_CHARGES
****
VDW energy = 222.54
@<TRIPOS>ATOM
   1 C1       -4.2066     0.8720    -2.4778  C.3     1  <O>11      -0.0624
   2 C2       -4.7601     0.2037    -3.7270  C.3     1  <O>11      -0.0421
   3 C3       -5.0692     1.2349    -4.8110  C.3     1  <O>11      -0.0487
   4 C4       -4.9361     0.4781    -6.1320  C.3     1  <O>11      -0.0301
   5 C5       -4.2353    -0.8404    -5.8060  C.3     1  <O>11       0.0822
   6 S1       -5.3820    -2.1890    -5.8910  S.O2    1  <O>11      -0.0002
   7 O1       -6.9020    -1.6482    -5.4930  O.2     1  <O>11      -0.1691
   8 O2       -4.9206    -3.3761    -4.8265  O.2     1  <O>11      -0.1691
   9 C6       -5.4010    -2.8447    -7.5352  C.ar    1  <O>11       0.0892
  10 C7       -4.2257    -3.3666    -8.1041  C.ar    1  <O>11      -0.0368
  11 C8       -4.2393    -3.8737    -9.4082  C.ar    1  <O>11      -0.0592
  12 C9       -5.4206    -3.8676   -10.1531  C.ar    1  <O>11      -0.0495
  13 C10      -6.5911    -3.3533    -9.5838  C.ar    1  <O>11       0.0400
  14 C11      -7.8130    -3.3517   -10.3598  C.2     1  <O>11       0.2602
  15 O3       -8.0885    -2.3914   -11.0636  O.2     1  <O>11      -0.2687
  16 N1       -8.6597    -4.4271   -10.3066  N.am    1  <O>11      -0.2301
  17 N2       -8.3483    -5.5062    -9.5159  N.am    1  <O>11      -0.2289
  18 C12      -8.5104    -6.7782    -9.9947  C.2     1  <O>11       0.2784
  19 O4       -8.9323    -6.9574   -11.1261  O.2     1  <O>11      -0.2670
  20 C13      -8.1790    -7.9200    -9.1530  C.ar    1  <O>11       0.1268
  21 C14      -6.8632    -8.4515    -9.1825  C.ar    1  <O>11      -0.0311
  22 C15      -6.5520    -9.5350    -8.3684  C.ar    1  <O>11      -0.0582
  23 C16      -7.5634   -10.0761    -7.5674  C.ar    1  <O>11      -0.0436
  24 C17      -8.8374    -9.5048    -7.5862  C.ar    1  <O>11       0.0284
  25 N3       -9.1292    -8.4509    -8.3602  N.ar    1  <O>11      -0.2503
  26 C18      -6.5899    -2.8476    -8.2838  C.ar    1  <O>11      -0.0247
  27 C19      -3.7089    -0.6788    -4.3880  C.3     1  <O>11      -0.0277
  28 H1       -3.9958     0.1141    -1.7234  H       1  <O>11       0.0232
  29 H2       -4.9399     1.5782    -2.0884  H       1  <O>11       0.0232
  30 H3       -3.2876     1.4026    -2.7266  H       1  <O>11       0.0232
  31 H4       -5.6489    -0.3718    -3.4683  H       1  <O>11       0.0299
  32 H5       -6.0811     1.6223    -4.6927  H       1  <O>11       0.0268
  33 H6       -4.3569     2.0589    -4.7690  H       1  <O>11       0.0268
  34 H7       -5.9213     0.2861    -6.5571  H       1  <O>11       0.0284
  35 H8       -4.3411     1.0562    -6.8391  H       1  <O>11       0.0284
  36 H9       -3.4134    -1.0169    -6.4999  H       1  <O>11       0.0540
  37 H10      -9.5189    -4.4258   -10.8552  H       1  <O>11       0.1731
  38 H11      -7.9961    -5.3594    -8.5688  H       1  <O>11       0.1732
  39 H12      -3.6361    -1.6434    -3.8856  H       1  <O>11       0.0286
  40 H13      -2.7332    -0.1930    -4.3861  H       1  <O>11       0.0286
  41 H14      -3.3501    -3.3756    -7.5579  H       1  <O>11       0.0636
  42 H15      -3.3732    -4.2537    -9.8211  H       1  <O>11       0.0618
  43 H16      -5.4304    -4.2395   -11.1157  H       1  <O>11       0.0625
  44 H17      -6.1468    -8.0391    -9.8003  H       1  <O>11       0.0640
  45 H18      -5.5987    -9.9301    -8.3554  H       1  <O>11       0.0619
  46 H19      -7.3691   -10.8923    -6.9665  H       1  <O>11       0.0633
  47 H20      -9.5755    -9.9059    -6.9866  H       1  <O>11       0.0830
  48 H21      -7.4606    -2.4762    -7.8727  H       1  <O>11       0.0644
@<TRIPOS>BOND
     1     1     2    1
     2     2     3    1
     3     3     4    1
     4     4     5    1
     5     5     6    1
     6     6     7    2
     7     6     8    2
     8     6     9    1
     9     9    10   ar
    10    10    11   ar
    11    11    12   ar
    12    12    13   ar
    13    13    14    1
    14    14    15    2
    15    14    16   am
    16    16    17    1
    17    17    18   am
    18    18    19    2
    19    18    20    1
    20    20    21   ar
    21    21    22   ar
    22    22    23   ar
    23    23    24   ar
    24    24    25   ar
    25    20    25   ar
    26    13    26   ar
    27     9    26   ar
    28     5    27    1
    29     2    27    1
    30     1    28    1
    31     1    29    1
    32     1    30    1
    33     2    31    1
    34     3    32    1
    35     3    33    1
    36     4    34    1
    37     4    35    1
    38     5    36    1
    39    16    37    1
    40    17    38    1
    41    27    39    1
    42    27    40    1
    43    10    41    1
    44    11    42    1
    45    12    43    1
    46    21    44    1
    47    22    45    1
    48    23    46    1
    49    24    47    1
    50    26    48    1
@<TRIPOS>MOLECULE
mol87_1_22
 48 50 0 0 0
SMALL
USER_CHARGES
****
VDW energy = 223.08
@<TRIPOS>ATOM
   1 C1       -4.2066     0.8720    -2.4778  C.3     1  <O>11      -0.0624
   2 C2       -4.7601     0.2037    -3.7270  C.3     1  <O>11      -0.0421
   3 C3       -5.0692     1.2349    -4.8110  C.3     1  <O>11      -0.0487
   4 C4       -4.9361     0.4781    -6.1320  C.3     1  <O>11      -0.0301
   5 C5       -4.2353    -0.8404    -5.8060  C.3     1  <O>11       0.0822
   6 S1       -5.3820    -2.1890    -5.8910  S.O2    1  <O>11      -0.0002
   7 O1       -6.1172    -2.1965    -7.3812  O.2     1  <O>11      -0.1691
   8 O2       -6.5322    -2.0133    -4.7072  O.2     1  <O>11      -0.1691
   9 C6       -4.5171    -3.7149    -5.6524  C.ar    1  <O>11       0.0892
  10 C7       -5.2299    -4.9092    -5.4453  C.ar    1  <O>11      -0.0368
  11 C8       -4.5448    -6.1128    -5.2449  C.ar    1  <O>11      -0.0592
  12 C9       -3.1484    -6.1371    -5.2519  C.ar    1  <O>11      -0.0495
  13 C10      -2.4400    -4.9489    -5.4639  C.ar    1  <O>11       0.0400
  14 C11      -0.9929    -4.9805    -5.4723  C.2     1  <O>11       0.2602
  15 O3       -0.3936    -5.2464    -6.5035  O.2     1  <O>11      -0.2687
  16 N1       -0.2952    -4.7106    -4.3249  N.am    1  <O>11      -0.2301
  17 N2        1.0780    -4.7410    -4.3345  N.am    1  <O>11      -0.2289
  18 C12       1.7587    -5.3506    -3.3154  C.2     1  <O>11       0.2784
  19 O4        2.9791    -5.3775    -3.3244  O.2     1  <O>11      -0.2670
  20 C13       1.0259    -5.9685    -2.2185  C.ar    1  <O>11       0.1268
  21 C14       1.4780    -7.2031    -1.6838  C.ar    1  <O>11      -0.0311
  22 C15       0.7791    -7.7814    -0.6299  C.ar    1  <O>11      -0.0582
  23 C16      -0.3640    -7.1298    -0.1542  C.ar    1  <O>11      -0.0436
  24 C17      -0.7543    -5.9170    -0.7257  C.ar    1  <O>11       0.0284
  25 N3       -0.0690    -5.3551    -1.7306  N.ar    1  <O>11      -0.2503
  26 C18      -3.1125    -3.7437    -5.6673  C.ar    1  <O>11      -0.0247
  27 C19      -3.7089    -0.6788    -4.3880  C.3     1  <O>11      -0.0277
  28 H1       -3.9958     0.1141    -1.7234  H       1  <O>11       0.0232
  29 H2       -4.9399     1.5782    -2.0884  H       1  <O>11       0.0232
  30 H3       -3.2876     1.4026    -2.7266  H       1  <O>11       0.0232
  31 H4       -5.6489    -0.3718    -3.4683  H       1  <O>11       0.0299
  32 H5       -6.0811     1.6223    -4.6927  H       1  <O>11       0.0268
  33 H6       -4.3569     2.0589    -4.7690  H       1  <O>11       0.0268
  34 H7       -5.9213     0.2861    -6.5571  H       1  <O>11       0.0284
  35 H8       -4.3411     1.0562    -6.8391  H       1  <O>11       0.0284
  36 H9       -3.4134    -1.0169    -6.4999  H       1  <O>11       0.0540
  37 H10      -0.7961    -4.4892    -3.4650  H       1  <O>11       0.1731
  38 H11       1.5921    -4.3072    -5.1027  H       1  <O>11       0.1732
  39 H12      -3.6361    -1.6434    -3.8856  H       1  <O>11       0.0286
  40 H13      -2.7332    -0.1930    -4.3861  H       1  <O>11       0.0286
  41 H14      -6.2618    -4.8980    -5.4410  H       1  <O>11       0.0636
  42 H15      -5.0733    -6.9858    -5.0915  H       1  <O>11       0.0618
  43 H16      -2.6429    -7.0242    -5.1018  H       1  <O>11       0.0625
  44 H17       2.3148    -7.6657    -2.0722  H       1  <O>11       0.0640
  45 H18       1.0957    -8.6689    -0.2091  H       1  <O>11       0.0619
  46 H19      -0.9153    -7.5430     0.6141  H       1  <O>11       0.0633
  47 H20      -1.5947    -5.4397    -0.3636  H       1  <O>11       0.0830
  48 H21      -2.5792    -2.8750    -5.8284  H       1  <O>11       0.0644
@<TRIPOS>BOND
     1     1     2    1
     2     2     3    1
     3     3     4    1
     4     4     5    1
     5     5     6    1
     6     6     7    2
     7     6     8    2
     8     6     9    1
     9     9    10   ar
    10    10    11   ar
    11    11    12   ar
    12    12    13   ar
    13    13    14    1
    14    14    15    2
    15    14    16   am
    16    16    17    1
    17    17    18   am
    18    18    19    2
    19    18    20    1
    20    20    21   ar
    21    21    22   ar
    22    22    23   ar
    23    23    24   ar
    24    24    25   ar
    25    20    25   ar
    26    13    26   ar
    27     9    26   ar
    28     5    27    1
    29     2    27    1
    30     1    28    1
    31     1    29    1
    32     1    30    1
    33     2    31    1
    34     3    32    1
    35     3    33    1
    36     4    34    1
    37     4    35    1
    38     5    36    1
    39    16    37    1
    40    17    38    1
    41    27    39    1
    42    27    40    1
    43    10    41    1
    44    11    42    1
    45    12    43    1
    46    21    44    1
    47    22    45    1
    48    23    46    1
    49    24    47    1
    50    26    48    1
@<TRIPOS>MOLECULE
mol87_1_23
 48 50 0 0 0
SMALL
USER_CHARGES
****
VDW energy = 223.19
@<TRIPOS>ATOM
   1 C1       -4.2066     0.8720    -2.4778  C.3     1  <O>11      -0.0624
   2 C2       -4.7601     0.2037    -3.7270  C.3     1  <O>11      -0.0421
   3 C3       -5.0692     1.2349    -4.8110  C.3     1  <O>11      -0.0487
   4 C4       -4.9361     0.4781    -6.1320  C.3     1  <O>11      -0.0301
   5 C5       -4.2353    -0.8404    -5.8060  C.3     1  <O>11       0.0822
   6 S1       -5.3820    -2.1890    -5.8910  S.O2    1  <O>11      -0.0002
   7 O1       -6.1172    -2.1965    -7.3812  O.2     1  <O>11      -0.1691
   8 O2       -6.5322    -2.0133    -4.7072  O.2     1  <O>11      -0.1691
   9 C6       -4.5171    -3.7149    -5.6524  C.ar    1  <O>11       0.0892
  10 C7       -5.2299    -4.9092    -5.4453  C.ar    1  <O>11      -0.0368
  11 C8       -4.5448    -6.1128    -5.2449  C.ar    1  <O>11      -0.0592
  12 C9       -3.1484    -6.1371    -5.2519  C.ar    1  <O>11      -0.0495
  13 C10      -2.4400    -4.9489    -5.4639  C.ar    1  <O>11       0.0400
  14 C11      -0.9929    -4.9805    -5.4723  C.2     1  <O>11       0.2602
  15 O3       -0.3936    -5.2464    -6.5035  O.2     1  <O>11      -0.2687
  16 N1       -0.2952    -4.7106    -4.3249  N.am    1  <O>11      -0.2301
  17 N2        1.0780    -4.7410    -4.3345  N.am    1  <O>11      -0.2289
  18 C12       1.7587    -5.3506    -3.3154  C.2     1  <O>11       0.2784
  19 O4        2.9791    -5.3775    -3.3244  O.2     1  <O>11      -0.2670
  20 C13       1.0259    -5.9685    -2.2185  C.ar    1  <O>11       0.1268
  21 C14       0.6469    -7.3331    -2.3122  C.ar    1  <O>11      -0.0311
  22 C15      -0.0433    -7.9184    -1.2565  C.ar    1  <O>11      -0.0582
  23 C16      -0.3601    -7.1247    -0.1488  C.ar    1  <O>11      -0.0436
  24 C17       0.0428    -5.7880    -0.1206  C.ar    1  <O>11       0.0284
  25 N3        0.7215    -5.2319    -1.1331  N.ar    1  <O>11      -0.2503
  26 C18      -3.1125    -3.7437    -5.6673  C.ar    1  <O>11      -0.0247
  27 C19      -3.7089    -0.6788    -4.3880  C.3     1  <O>11      -0.0277
  28 H1       -3.9958     0.1141    -1.7234  H       1  <O>11       0.0232
  29 H2       -4.9399     1.5782    -2.0884  H       1  <O>11       0.0232
  30 H3       -3.2876     1.4026    -2.7266  H       1  <O>11       0.0232
  31 H4       -5.6489    -0.3718    -3.4683  H       1  <O>11       0.0299
  32 H5       -6.0811     1.6223    -4.6927  H       1  <O>11       0.0268
  33 H6       -4.3569     2.0589    -4.7690  H       1  <O>11       0.0268
  34 H7       -5.9213     0.2861    -6.5571  H       1  <O>11       0.0284
  35 H8       -4.3411     1.0562    -6.8391  H       1  <O>11       0.0284
  36 H9       -3.4134    -1.0169    -6.4999  H       1  <O>11       0.0540
  37 H10      -0.7961    -4.4892    -3.4650  H       1  <O>11       0.1731
  38 H11       1.5921    -4.3072    -5.1027  H       1  <O>11       0.1732
  39 H12      -3.6361    -1.6434    -3.8856  H       1  <O>11       0.0286
  40 H13      -2.7332    -0.1930    -4.3861  H       1  <O>11       0.0286
  41 H14      -6.2618    -4.8980    -5.4410  H       1  <O>11       0.0636
  42 H15      -5.0733    -6.9858    -5.0915  H       1  <O>11       0.0618
  43 H16      -2.6429    -7.0242    -5.1018  H       1  <O>11       0.0625
  44 H17       0.8806    -7.8838    -3.1531  H       1  <O>11       0.0640
  45 H18      -0.3150    -8.9135    -1.2892  H       1  <O>11       0.0619
  46 H19      -0.8882    -7.5246     0.6426  H       1  <O>11       0.0633
  47 H20      -0.1889    -5.2119     0.7037  H       1  <O>11       0.0830
  48 H21      -2.5792    -2.8750    -5.8284  H       1  <O>11       0.0644
@<TRIPOS>BOND
     1     1     2    1
     2     2     3    1
     3     3     4    1
     4     4     5    1
     5     5     6    1
     6     6     7    2
     7     6     8    2
     8     6     9    1
     9     9    10   ar
    10    10    11   ar
    11    11    12   ar
    12    12    13   ar
    13    13    14    1
    14    14    15    2
    15    14    16   am
    16    16    17    1
    17    17    18   am
    18    18    19    2
    19    18    20    1
    20    20    21   ar
    21    21    22   ar
    22    22    23   ar
    23    23    24   ar
    24    24    25   ar
    25    20    25   ar
    26    13    26   ar
    27     9    26   ar
    28     5    27    1
    29     2    27    1
    30     1    28    1
    31     1    29    1
    32     1    30    1
    33     2    31    1
    34     3    32    1
    35     3    33    1
    36     4    34    1
    37     4    35    1
    38     5    36    1
    39    16    37    1
    40    17    38    1
    41    27    39    1
    42    27    40    1
    43    10    41    1
    44    11    42    1
    45    12    43    1
    46    21    44    1
    47    22    45    1
    48    23    46    1
    49    24    47    1
    50    26    48    1
@<TRIPOS>MOLECULE
mol87_1_24
 48 50 0 0 0
SMALL
USER_CHARGES
****
VDW energy = 223.48
@<TRIPOS>ATOM
   1 C1       -4.2066     0.8720    -2.4778  C.3     1  <O>11      -0.0624
   2 C2       -4.7601     0.2037    -3.7270  C.3     1  <O>11      -0.0421
   3 C3       -5.0692     1.2349    -4.8110  C.3     1  <O>11      -0.0487
   4 C4       -4.9361     0.4781    -6.1320  C.3     1  <O>11      -0.0301
   5 C5       -4.2353    -0.8404    -5.8060  C.3     1  <O>11       0.0822
   6 S1       -5.3820    -2.1890    -5.8910  S.O2    1  <O>11      -0.0002
   7 O1       -6.9020    -1.6482    -5.4930  O.2     1  <O>11      -0.1691
   8 O2       -4.9206    -3.3761    -4.8265  O.2     1  <O>11      -0.1691
   9 C6       -5.4010    -2.8447    -7.5352  C.ar    1  <O>11       0.0892
  10 C7       -5.7627    -2.0271    -8.6205  C.ar    1  <O>11      -0.0368
  11 C8       -5.7888    -2.5499    -9.9183  C.ar    1  <O>11      -0.0592
  12 C9       -5.4533    -3.8864   -10.1452  C.ar    1  <O>11      -0.0495
  13 C10      -5.0878    -4.6977    -9.0650  C.ar    1  <O>11       0.0400
  14 C11      -4.7388    -6.0816    -9.3066  C.2     1  <O>11       0.2602
  15 O3       -5.6041    -6.9440    -9.2767  O.2     1  <O>11      -0.2687
  16 N1       -3.4391    -6.4243    -9.5703  N.am    1  <O>11      -0.2301
  17 N2       -2.4678    -5.4538    -9.6046  N.am    1  <O>11      -0.2289
  18 C12      -1.5319    -5.4535   -10.6034  C.2     1  <O>11       0.2784
  19 O4       -1.5577    -6.3161   -11.4669  O.2     1  <O>11      -0.2670
  20 C13      -0.5033    -4.4225   -10.6363  C.ar    1  <O>11       0.1268
  21 C14       0.8336    -4.7580   -10.2978  C.ar    1  <O>11      -0.0311
  22 C15       1.8116    -3.7705   -10.3417  C.ar    1  <O>11      -0.0582
  23 C16       1.4291    -2.4721   -10.6953  C.ar    1  <O>11      -0.0436
  24 C17       0.0957    -2.2097   -11.0166  C.ar    1  <O>11       0.0284
  25 N3       -0.8408    -3.1674   -10.9885  N.ar    1  <O>11      -0.2503
  26 C18      -5.0557    -4.1866    -7.7675  C.ar    1  <O>11      -0.0247
  27 C19      -3.7089    -0.6788    -4.3880  C.3     1  <O>11      -0.0277
  28 H1       -3.9958     0.1141    -1.7234  H       1  <O>11       0.0232
  29 H2       -4.9399     1.5782    -2.0884  H       1  <O>11       0.0232
  30 H3       -3.2876     1.4026    -2.7266  H       1  <O>11       0.0232
  31 H4       -5.6489    -0.3718    -3.4683  H       1  <O>11       0.0299
  32 H5       -6.0811     1.6223    -4.6927  H       1  <O>11       0.0268
  33 H6       -4.3569     2.0589    -4.7690  H       1  <O>11       0.0268
  34 H7       -5.9213     0.2861    -6.5571  H       1  <O>11       0.0284
  35 H8       -4.3411     1.0562    -6.8391  H       1  <O>11       0.0284
  36 H9       -3.4134    -1.0169    -6.4999  H       1  <O>11       0.0540
  37 H10      -3.1949    -7.3990    -9.7425  H       1  <O>11       0.1731
  38 H11      -2.4430    -4.7316    -8.8832  H       1  <O>11       0.1732
  39 H12      -3.6361    -1.6434    -3.8856  H       1  <O>11       0.0286
  40 H13      -2.7332    -0.1930    -4.3861  H       1  <O>11       0.0286
  41 H14      -6.0098    -1.0381    -8.4594  H       1  <O>11       0.0636
  42 H15      -6.0570    -1.9455   -10.7106  H       1  <O>11       0.0618
  43 H16      -5.4747    -4.2728   -11.1020  H       1  <O>11       0.0625
  44 H17       1.0767    -5.7226   -10.0228  H       1  <O>11       0.0640
  45 H18       2.7951    -3.9900   -10.1190  H       1  <O>11       0.0619
  46 H19       2.1278    -1.7130   -10.7185  H       1  <O>11       0.0633
  47 H20      -0.1762    -1.2505   -11.2834  H       1  <O>11       0.0830
  48 H21      -4.7790    -4.7931    -6.9796  H       1  <O>11       0.0644
@<TRIPOS>BOND
     1     1     2    1
     2     2     3    1
     3     3     4    1
     4     4     5    1
     5     5     6    1
     6     6     7    2
     7     6     8    2
     8     6     9    1
     9     9    10   ar
    10    10    11   ar
    11    11    12   ar
    12    12    13   ar
    13    13    14    1
    14    14    15    2
    15    14    16   am
    16    16    17    1
    17    17    18   am
    18    18    19    2
    19    18    20    1
    20    20    21   ar
    21    21    22   ar
    22    22    23   ar
    23    23    24   ar
    24    24    25   ar
    25    20    25   ar
    26    13    26   ar
    27     9    26   ar
    28     5    27    1
    29     2    27    1
    30     1    28    1
    31     1    29    1
    32     1    30    1
    33     2    31    1
    34     3    32    1
    35     3    33    1
    36     4    34    1
    37     4    35    1
    38     5    36    1
    39    16    37    1
    40    17    38    1
    41    27    39    1
    42    27    40    1
    43    10    41    1
    44    11    42    1
    45    12    43    1
    46    21    44    1
    47    22    45    1
    48    23    46    1
    49    24    47    1
    50    26    48    1
@<TRIPOS>MOLECULE
mol87_1_25
 48 50 0 0 0
SMALL
USER_CHARGES
****
VDW energy = 226.38
@<TRIPOS>ATOM
   1 C1       -4.2066     0.8720    -2.4778  C.3     1  <O>11      -0.0624
   2 C2       -4.7601     0.2037    -3.7270  C.3     1  <O>11      -0.0421
   3 C3       -5.0692     1.2349    -4.8110  C.3     1  <O>11      -0.0487
   4 C4       -4.9361     0.4781    -6.1320  C.3     1  <O>11      -0.0301
   5 C5       -4.2353    -0.8404    -5.8060  C.3     1  <O>11       0.0822
   6 S1       -5.3820    -2.1890    -5.8910  S.O2    1  <O>11      -0.0002
   7 O1       -6.1172    -2.1965    -7.3812  O.2     1  <O>11      -0.1691
   8 O2       -6.5322    -2.0133    -4.7072  O.2     1  <O>11      -0.1691
   9 C6       -4.5171    -3.7149    -5.6524  C.ar    1  <O>11       0.0892
  10 C7       -4.3559    -4.2441    -4.3596  C.ar    1  <O>11      -0.0368
  11 C8       -3.6616    -5.4444    -4.1712  C.ar    1  <O>11      -0.0592
  12 C9       -3.1261    -6.1266    -5.2658  C.ar    1  <O>11      -0.0495
  13 C10      -3.2922    -5.6021    -6.5526  C.ar    1  <O>11       0.0400
  14 C11      -2.7369    -6.3148    -7.6835  C.2     1  <O>11       0.2602
  15 O3       -3.3786    -7.2066    -8.2186  O.2     1  <O>11      -0.2687
  16 N1       -1.4930    -5.9885    -8.1552  N.am    1  <O>11      -0.2301
  17 N2       -0.9675    -6.6657    -9.2284  N.am    1  <O>11      -0.2289
  18 C12       0.3376    -7.0776    -9.2086  C.2     1  <O>11       0.2784
  19 O4        1.0386    -6.8443    -8.2368  O.2     1  <O>11      -0.2670
  20 C13       0.8912    -7.7956   -10.3488  C.ar    1  <O>11       0.1268
  21 C14       1.5034    -7.0680   -11.4026  C.ar    1  <O>11      -0.0311
  22 C15       2.0387    -7.7613   -12.4826  C.ar    1  <O>11      -0.0582
  23 C16       1.9277    -9.1558   -12.4976  C.ar    1  <O>11      -0.0436
  24 C17       1.3127    -9.8100   -11.4281  C.ar    1  <O>11       0.0284
  25 N3        0.8122    -9.1394   -10.3817  N.ar    1  <O>11      -0.2503
  26 C18      -3.9846    -4.4078    -6.7526  C.ar    1  <O>11      -0.0247
  27 C19      -3.7089    -0.6788    -4.3880  C.3     1  <O>11      -0.0277
  28 H1       -3.9958     0.1141    -1.7234  H       1  <O>11       0.0232
  29 H2       -4.9399     1.5782    -2.0884  H       1  <O>11       0.0232
  30 H3       -3.2876     1.4026    -2.7266  H       1  <O>11       0.0232
  31 H4       -5.6489    -0.3718    -3.4683  H       1  <O>11       0.0299
  32 H5       -6.0811     1.6223    -4.6927  H       1  <O>11       0.0268
  33 H6       -4.3569     2.0589    -4.7690  H       1  <O>11       0.0268
  34 H7       -5.9213     0.2861    -6.5571  H       1  <O>11       0.0284
  35 H8       -4.3411     1.0562    -6.8391  H       1  <O>11       0.0284
  36 H9       -3.4134    -1.0169    -6.4999  H       1  <O>11       0.0540
  37 H10      -0.9583    -5.2446    -7.7079  H       1  <O>11       0.1731
  38 H11      -1.5512    -6.8614   -10.0431  H       1  <O>11       0.1732
  39 H12      -3.6361    -1.6434    -3.8856  H       1  <O>11       0.0286
  40 H13      -2.7332    -0.1930    -4.3861  H       1  <O>11       0.0286
  41 H14      -4.7511    -3.7455    -3.5470  H       1  <O>11       0.0636
  42 H15      -3.5449    -5.8268    -3.2198  H       1  <O>11       0.0618
  43 H16      -2.6121    -7.0107    -5.1268  H       1  <O>11       0.0625
  44 H17       1.5506    -6.0377   -11.3677  H       1  <O>11       0.0640
  45 H18       2.5063    -7.2596   -13.2538  H       1  <O>11       0.0619
  46 H19       2.2978    -9.6977   -13.2940  H       1  <O>11       0.0633
  47 H20       1.2416   -10.8394   -11.4441  H       1  <O>11       0.0830
  48 H21      -4.1055    -4.0338    -7.7068  H       1  <O>11       0.0644
@<TRIPOS>BOND
     1     1     2    1
     2     2     3    1
     3     3     4    1
     4     4     5    1
     5     5     6    1
     6     6     7    2
     7     6     8    2
     8     6     9    1
     9     9    10   ar
    10    10    11   ar
    11    11    12   ar
    12    12    13   ar
    13    13    14    1
    14    14    15    2
    15    14    16   am
    16    16    17    1
    17    17    18   am
    18    18    19    2
    19    18    20    1
    20    20    21   ar
    21    21    22   ar
    22    22    23   ar
    23    23    24   ar
    24    24    25   ar
    25    20    25   ar
    26    13    26   ar
    27     9    26   ar
    28     5    27    1
    29     2    27    1
    30     1    28    1
    31     1    29    1
    32     1    30    1
    33     2    31    1
    34     3    32    1
    35     3    33    1
    36     4    34    1
    37     4    35    1
    38     5    36    1
    39    16    37    1
    40    17    38    1
    41    27    39    1
    42    27    40    1
    43    10    41    1
    44    11    42    1
    45    12    43    1
    46    21    44    1
    47    22    45    1
    48    23    46    1
    49    24    47    1
    50    26    48    1
@<TRIPOS>MOLECULE
mol87_1_26
 48 50 0 0 0
SMALL
USER_CHARGES
****
VDW energy = 226.58
@<TRIPOS>ATOM
   1 C1       -4.2066     0.8720    -2.4778  C.3     1  <O>11      -0.0624
   2 C2       -4.7601     0.2037    -3.7270  C.3     1  <O>11      -0.0421
   3 C3       -5.0692     1.2349    -4.8110  C.3     1  <O>11      -0.0487
   4 C4       -4.9361     0.4781    -6.1320  C.3     1  <O>11      -0.0301
   5 C5       -4.2353    -0.8404    -5.8060  C.3     1  <O>11       0.0822
   6 S1       -5.3820    -2.1890    -5.8910  S.O2    1  <O>11      -0.0002
   7 O1       -6.1172    -2.1965    -7.3812  O.2     1  <O>11      -0.1691
   8 O2       -6.5322    -2.0133    -4.7072  O.2     1  <O>11      -0.1691
   9 C6       -4.5171    -3.7149    -5.6524  C.ar    1  <O>11       0.0892
  10 C7       -3.8095    -3.9501    -4.4602  C.ar    1  <O>11      -0.0368
  11 C8       -3.1163    -5.1519    -4.2777  C.ar    1  <O>11      -0.0592
  12 C9       -3.1244    -6.1274    -5.2771  C.ar    1  <O>11      -0.0495
  13 C10      -3.8337    -5.8947    -6.4609  C.ar    1  <O>11       0.0400
  14 C11      -3.8403    -6.9103    -7.4923  C.2     1  <O>11       0.2602
  15 O3       -4.6617    -7.8144    -7.4542  O.2     1  <O>11      -0.2687
  16 N1       -2.9271    -6.8572    -8.5118  N.am    1  <O>11      -0.2301
  17 N2       -2.0052    -5.8400    -8.5539  N.am    1  <O>11      -0.2289
  18 C12      -1.7408    -5.2009    -9.7351  C.2     1  <O>11       0.2784
  19 O4       -0.9212    -4.2969    -9.7720  O.2     1  <O>11      -0.2670
  20 C13      -2.4383    -5.6000   -10.9501  C.ar    1  <O>11       0.1268
  21 C14      -3.4417    -4.7537   -11.4899  C.ar    1  <O>11      -0.0311
  22 C15      -4.0957    -5.1368   -12.6557  C.ar    1  <O>11      -0.0582
  23 C16      -3.7526    -6.3619   -13.2378  C.ar    1  <O>11      -0.0436
  24 C17      -2.7558    -7.1470   -12.6548  C.ar    1  <O>11       0.0284
  25 N3       -2.1169    -6.7669   -11.5402  N.ar    1  <O>11      -0.2503
  26 C18      -4.5304    -4.7015    -6.6526  C.ar    1  <O>11      -0.0247
  27 C19      -3.7089    -0.6788    -4.3880  C.3     1  <O>11      -0.0277
  28 H1       -3.9958     0.1141    -1.7234  H       1  <O>11       0.0232
  29 H2       -4.9399     1.5782    -2.0884  H       1  <O>11       0.0232
  30 H3       -3.2876     1.4026    -2.7266  H       1  <O>11       0.0232
  31 H4       -5.6489    -0.3718    -3.4683  H       1  <O>11       0.0299
  32 H5       -6.0811     1.6223    -4.6927  H       1  <O>11       0.0268
  33 H6       -4.3569     2.0589    -4.7690  H       1  <O>11       0.0268
  34 H7       -5.9213     0.2861    -6.5571  H       1  <O>11       0.0284
  35 H8       -4.3411     1.0562    -6.8391  H       1  <O>11       0.0284
  36 H9       -3.4134    -1.0169    -6.4999  H       1  <O>11       0.0540
  37 H10      -2.9342    -7.5718    -9.2389  H       1  <O>11       0.1731
  38 H11      -1.5153    -5.5604    -7.7027  H       1  <O>11       0.1732
  39 H12      -3.6361    -1.6434    -3.8856  H       1  <O>11       0.0286
  40 H13      -2.7332    -0.1930    -4.3861  H       1  <O>11       0.0286
  41 H14      -3.8015    -3.2339    -3.7172  H       1  <O>11       0.0636
  42 H15      -2.5973    -5.3180    -3.4014  H       1  <O>11       0.0618
  43 H16      -2.6114    -7.0129    -5.1437  H       1  <O>11       0.0625
  44 H17      -3.6829    -3.8654   -11.0231  H       1  <O>11       0.0640
  45 H18      -4.8162    -4.5325   -13.0809  H       1  <O>11       0.0619
  46 H19      -4.2331    -6.6833   -14.0927  H       1  <O>11       0.0633
  47 H20      -2.5041    -8.0458   -13.0951  H       1  <O>11       0.0830
  48 H21      -5.0546    -4.5437    -7.5274  H       1  <O>11       0.0644
@<TRIPOS>BOND
     1     1     2    1
     2     2     3    1
     3     3     4    1
     4     4     5    1
     5     5     6    1
     6     6     7    2
     7     6     8    2
     8     6     9    1
     9     9    10   ar
    10    10    11   ar
    11    11    12   ar
    12    12    13   ar
    13    13    14    1
    14    14    15    2
    15    14    16   am
    16    16    17    1
    17    17    18   am
    18    18    19    2
    19    18    20    1
    20    20    21   ar
    21    21    22   ar
    22    22    23   ar
    23    23    24   ar
    24    24    25   ar
    25    20    25   ar
    26    13    26   ar
    27     9    26   ar
    28     5    27    1
    29     2    27    1
    30     1    28    1
    31     1    29    1
    32     1    30    1
    33     2    31    1
    34     3    32    1
    35     3    33    1
    36     4    34    1
    37     4    35    1
    38     5    36    1
    39    16    37    1
    40    17    38    1
    41    27    39    1
    42    27    40    1
    43    10    41    1
    44    11    42    1
    45    12    43    1
    46    21    44    1
    47    22    45    1
    48    23    46    1
    49    24    47    1
    50    26    48    1
@<TRIPOS>MOLECULE
mol87_1_27
 48 50 0 0 0
SMALL
USER_CHARGES
****
VDW energy = 227.10
@<TRIPOS>ATOM
   1 C1       -4.2066     0.8720    -2.4778  C.3     1  <O>11      -0.0624
   2 C2       -4.7601     0.2037    -3.7270  C.3     1  <O>11      -0.0421
   3 C3       -5.0692     1.2349    -4.8110  C.3     1  <O>11      -0.0487
   4 C4       -4.9361     0.4781    -6.1320  C.3     1  <O>11      -0.0301
   5 C5       -4.2353    -0.8404    -5.8060  C.3     1  <O>11       0.0822
   6 S1       -5.3820    -2.1890    -5.8910  S.O2    1  <O>11      -0.0002
   7 O1       -6.1172    -2.1965    -7.3812  O.2     1  <O>11      -0.1691
   8 O2       -6.5322    -2.0133    -4.7072  O.2     1  <O>11      -0.1691
   9 C6       -4.5171    -3.7149    -5.6524  C.ar    1  <O>11       0.0892
  10 C7       -5.2299    -4.9092    -5.4453  C.ar    1  <O>11      -0.0368
  11 C8       -4.5448    -6.1128    -5.2449  C.ar    1  <O>11      -0.0592
  12 C9       -3.1484    -6.1371    -5.2519  C.ar    1  <O>11      -0.0495
  13 C10      -2.4400    -4.9489    -5.4639  C.ar    1  <O>11       0.0400
  14 C11      -0.9929    -4.9805    -5.4723  C.2     1  <O>11       0.2602
  15 O3       -0.3936    -5.2464    -6.5035  O.2     1  <O>11      -0.2687
  16 N1       -0.2952    -4.7106    -4.3249  N.am    1  <O>11      -0.2301
  17 N2        1.0780    -4.7410    -4.3345  N.am    1  <O>11      -0.2289
  18 C12       1.7587    -5.3506    -3.3154  C.2     1  <O>11       0.2784
  19 O4        1.1473    -5.8692    -2.3948  O.2     1  <O>11      -0.2670
  20 C13       3.2150    -5.3808    -3.3293  C.ar    1  <O>11       0.1268
  21 C14       3.9417    -4.3275    -2.7151  C.ar    1  <O>11      -0.0311
  22 C15       5.3316    -4.3688    -2.7235  C.ar    1  <O>11      -0.0582
  23 C16       5.9604    -5.4419    -3.3642  C.ar    1  <O>11      -0.0436
  24 C17       5.1854    -6.4454    -3.9493  C.ar    1  <O>11       0.0284
  25 N3        3.8463    -6.4101    -3.9254  N.ar    1  <O>11      -0.2503
  26 C18      -3.1125    -3.7437    -5.6673  C.ar    1  <O>11      -0.0247
  27 C19      -3.7089    -0.6788    -4.3880  C.3     1  <O>11      -0.0277
  28 H1       -3.9958     0.1141    -1.7234  H       1  <O>11       0.0232
  29 H2       -4.9399     1.5782    -2.0884  H       1  <O>11       0.0232
  30 H3       -3.2876     1.4026    -2.7266  H       1  <O>11       0.0232
  31 H4       -5.6489    -0.3718    -3.4683  H       1  <O>11       0.0299
  32 H5       -6.0811     1.6223    -4.6927  H       1  <O>11       0.0268
  33 H6       -4.3569     2.0589    -4.7690  H       1  <O>11       0.0268
  34 H7       -5.9213     0.2861    -6.5571  H       1  <O>11       0.0284
  35 H8       -4.3411     1.0562    -6.8391  H       1  <O>11       0.0284
  36 H9       -3.4134    -1.0169    -6.4999  H       1  <O>11       0.0540
  37 H10      -0.7961    -4.4892    -3.4650  H       1  <O>11       0.1731
  38 H11       1.5921    -4.3072    -5.1027  H       1  <O>11       0.1732
  39 H12      -3.6361    -1.6434    -3.8856  H       1  <O>11       0.0286
  40 H13      -2.7332    -0.1930    -4.3861  H       1  <O>11       0.0286
  41 H14      -6.2618    -4.8980    -5.4410  H       1  <O>11       0.0636
  42 H15      -5.0733    -6.9858    -5.0915  H       1  <O>11       0.0618
  43 H16      -2.6429    -7.0242    -5.1018  H       1  <O>11       0.0625
  44 H17       3.4449    -3.5411    -2.2681  H       1  <O>11       0.0640
  45 H18       5.8855    -3.6264    -2.2683  H       1  <O>11       0.0619
  46 H19       6.9904    -5.4915    -3.4043  H       1  <O>11       0.0633
  47 H20       5.6577    -7.2370    -4.4135  H       1  <O>11       0.0830
  48 H21      -2.5792    -2.8750    -5.8284  H       1  <O>11       0.0644
@<TRIPOS>BOND
     1     1     2    1
     2     2     3    1
     3     3     4    1
     4     4     5    1
     5     5     6    1
     6     6     7    2
     7     6     8    2
     8     6     9    1
     9     9    10   ar
    10    10    11   ar
    11    11    12   ar
    12    12    13   ar
    13    13    14    1
    14    14    15    2
    15    14    16   am
    16    16    17    1
    17    17    18   am
    18    18    19    2
    19    18    20    1
    20    20    21   ar
    21    21    22   ar
    22    22    23   ar
    23    23    24   ar
    24    24    25   ar
    25    20    25   ar
    26    13    26   ar
    27     9    26   ar
    28     5    27    1
    29     2    27    1
    30     1    28    1
    31     1    29    1
    32     1    30    1
    33     2    31    1
    34     3    32    1
    35     3    33    1
    36     4    34    1
    37     4    35    1
    38     5    36    1
    39    16    37    1
    40    17    38    1
    41    27    39    1
    42    27    40    1
    43    10    41    1
    44    11    42    1
    45    12    43    1
    46    21    44    1
    47    22    45    1
    48    23    46    1
    49    24    47    1
    50    26    48    1
@<TRIPOS>MOLECULE
mol87_1_28
 48 50 0 0 0
SMALL
USER_CHARGES
****
VDW energy = 230.01
@<TRIPOS>ATOM
   1 C1       -4.2066     0.8720    -2.4778  C.3     1  <O>11      -0.0624
   2 C2       -4.7601     0.2037    -3.7270  C.3     1  <O>11      -0.0421
   3 C3       -5.0692     1.2349    -4.8110  C.3     1  <O>11      -0.0487
   4 C4       -4.9361     0.4781    -6.1320  C.3     1  <O>11      -0.0301
   5 C5       -4.2353    -0.8404    -5.8060  C.3     1  <O>11       0.0822
   6 S1       -5.3820    -2.1890    -5.8910  S.O2    1  <O>11      -0.0002
   7 O1       -6.1172    -2.1965    -7.3812  O.2     1  <O>11      -0.1691
   8 O2       -6.5322    -2.0133    -4.7072  O.2     1  <O>11      -0.1691
   9 C6       -4.5171    -3.7149    -5.6524  C.ar    1  <O>11       0.0892
  10 C7       -3.8095    -3.9501    -4.4602  C.ar    1  <O>11      -0.0368
  11 C8       -3.1163    -5.1519    -4.2777  C.ar    1  <O>11      -0.0592
  12 C9       -3.1244    -6.1274    -5.2771  C.ar    1  <O>11      -0.0495
  13 C10      -3.8337    -5.8947    -6.4609  C.ar    1  <O>11       0.0400
  14 C11      -3.8403    -6.9103    -7.4923  C.2     1  <O>11       0.2602
  15 O3       -4.6617    -7.8144    -7.4542  O.2     1  <O>11      -0.2687
  16 N1       -2.9271    -6.8572    -8.5118  N.am    1  <O>11      -0.2301
  17 N2       -2.0052    -5.8400    -8.5539  N.am    1  <O>11      -0.2289
  18 C12      -1.7408    -5.2009    -9.7351  C.2     1  <O>11       0.2784
  19 O4       -0.9212    -4.2969    -9.7720  O.2     1  <O>11      -0.2670
  20 C13      -2.4383    -5.6000   -10.9501  C.ar    1  <O>11       0.1268
  21 C14      -1.8808    -6.6108   -11.7760  C.ar    1  <O>11      -0.0311
  22 C15      -2.5579    -6.9935   -12.9287  C.ar    1  <O>11      -0.0582
  23 C16      -3.7564    -6.3430   -13.2418  C.ar    1  <O>11      -0.0436
  24 C17      -4.2494    -5.3563   -12.3856  C.ar    1  <O>11       0.0284
  25 N3       -3.6020    -5.0015   -11.2675  N.ar    1  <O>11      -0.2503
  26 C18      -4.5304    -4.7015    -6.6526  C.ar    1  <O>11      -0.0247
  27 C19      -3.7089    -0.6788    -4.3880  C.3     1  <O>11      -0.0277
  28 H1       -3.9958     0.1141    -1.7234  H       1  <O>11       0.0232
  29 H2       -4.9399     1.5782    -2.0884  H       1  <O>11       0.0232
  30 H3       -3.2876     1.4026    -2.7266  H       1  <O>11       0.0232
  31 H4       -5.6489    -0.3718    -3.4683  H       1  <O>11       0.0299
  32 H5       -6.0811     1.6223    -4.6927  H       1  <O>11       0.0268
  33 H6       -4.3569     2.0589    -4.7690  H       1  <O>11       0.0268
  34 H7       -5.9213     0.2861    -6.5571  H       1  <O>11       0.0284
  35 H8       -4.3411     1.0562    -6.8391  H       1  <O>11       0.0284
  36 H9       -3.4134    -1.0169    -6.4999  H       1  <O>11       0.0540
  37 H10      -2.9342    -7.5718    -9.2389  H       1  <O>11       0.1731
  38 H11      -1.5153    -5.5604    -7.7027  H       1  <O>11       0.1732
  39 H12      -3.6361    -1.6434    -3.8856  H       1  <O>11       0.0286
  40 H13      -2.7332    -0.1930    -4.3861  H       1  <O>11       0.0286
  41 H14      -3.8015    -3.2339    -3.7172  H       1  <O>11       0.0636
  42 H15      -2.5973    -5.3180    -3.4014  H       1  <O>11       0.0618
  43 H16      -2.6114    -7.0129    -5.1437  H       1  <O>11       0.0625
  44 H17      -0.9845    -7.0560   -11.5242  H       1  <O>11       0.0640
  45 H18      -2.1857    -7.7387   -13.5379  H       1  <O>11       0.0619
  46 H19      -4.2728    -6.5909   -14.1002  H       1  <O>11       0.0633
  47 H20      -5.1379    -4.8868   -12.6207  H       1  <O>11       0.0830
  48 H21      -5.0546    -4.5437    -7.5274  H       1  <O>11       0.0644
@<TRIPOS>BOND
     1     1     2    1
     2     2     3    1
     3     3     4    1
     4     4     5    1
     5     5     6    1
     6     6     7    2
     7     6     8    2
     8     6     9    1
     9     9    10   ar
    10    10    11   ar
    11    11    12   ar
    12    12    13   ar
    13    13    14    1
    14    14    15    2
    15    14    16   am
    16    16    17    1
    17    17    18   am
    18    18    19    2
    19    18    20    1
    20    20    21   ar
    21    21    22   ar
    22    22    23   ar
    23    23    24   ar
    24    24    25   ar
    25    20    25   ar
    26    13    26   ar
    27     9    26   ar
    28     5    27    1
    29     2    27    1
    30     1    28    1
    31     1    29    1
    32     1    30    1
    33     2    31    1
    34     3    32    1
    35     3    33    1
    36     4    34    1
    37     4    35    1
    38     5    36    1
    39    16    37    1
    40    17    38    1
    41    27    39    1
    42    27    40    1
    43    10    41    1
    44    11    42    1
    45    12    43    1
    46    21    44    1
    47    22    45    1
    48    23    46    1
    49    24    47    1
    50    26    48    1
@<TRIPOS>MOLECULE
mol87_1_29
 48 50 0 0 0
SMALL
USER_CHARGES
****
VDW energy = 231.08
@<TRIPOS>ATOM
   1 C1       -4.2066     0.8720    -2.4778  C.3     1  <O>11      -0.0624
   2 C2       -4.7601     0.2037    -3.7270  C.3     1  <O>11      -0.0421
   3 C3       -5.0692     1.2349    -4.8110  C.3     1  <O>11      -0.0487
   4 C4       -4.9361     0.4781    -6.1320  C.3     1  <O>11      -0.0301
   5 C5       -4.2353    -0.8404    -5.8060  C.3     1  <O>11       0.0822
   6 S1       -5.3820    -2.1890    -5.8910  S.O2    1  <O>11      -0.0002
   7 O1       -6.1172    -2.1965    -7.3812  O.2     1  <O>11      -0.1691
   8 O2       -6.5322    -2.0133    -4.7072  O.2     1  <O>11      -0.1691
   9 C6       -4.5171    -3.7149    -5.6524  C.ar    1  <O>11       0.0892
  10 C7       -3.8095    -3.9501    -4.4602  C.ar    1  <O>11      -0.0368
  11 C8       -3.1163    -5.1519    -4.2777  C.ar    1  <O>11      -0.0592
  12 C9       -3.1244    -6.1274    -5.2771  C.ar    1  <O>11      -0.0495
  13 C10      -3.8337    -5.8947    -6.4609  C.ar    1  <O>11       0.0400
  14 C11      -3.8403    -6.9103    -7.4923  C.2     1  <O>11       0.2602
  15 O3       -4.6617    -7.8144    -7.4542  O.2     1  <O>11      -0.2687
  16 N1       -2.9271    -6.8572    -8.5118  N.am    1  <O>11      -0.2301
  17 N2       -2.0052    -5.8400    -8.5539  N.am    1  <O>11      -0.2289
  18 C12      -1.7408    -5.2009    -9.7351  C.2     1  <O>11       0.2784
  19 O4       -2.3236    -5.5333   -10.7549  O.2     1  <O>11      -0.2670
  20 C13      -0.7622    -4.1225    -9.7755  C.ar    1  <O>11       0.1268
  21 C14       0.1208    -4.0213   -10.8821  C.ar    1  <O>11      -0.0311
  22 C15       1.0451    -2.9830   -10.9183  C.ar    1  <O>11      -0.0582
  23 C16       1.0834    -2.0900    -9.8420  C.ar    1  <O>11      -0.0436
  24 C17       0.1857    -2.2469    -8.7838  C.ar    1  <O>11       0.0284
  25 N3       -0.7139    -3.2394    -8.7602  N.ar    1  <O>11      -0.2503
  26 C18      -4.5304    -4.7015    -6.6526  C.ar    1  <O>11      -0.0247
  27 C19      -3.7089    -0.6788    -4.3880  C.3     1  <O>11      -0.0277
  28 H1       -3.9958     0.1141    -1.7234  H       1  <O>11       0.0232
  29 H2       -4.9399     1.5782    -2.0884  H       1  <O>11       0.0232
  30 H3       -3.2876     1.4026    -2.7266  H       1  <O>11       0.0232
  31 H4       -5.6489    -0.3718    -3.4683  H       1  <O>11       0.0299
  32 H5       -6.0811     1.6223    -4.6927  H       1  <O>11       0.0268
  33 H6       -4.3569     2.0589    -4.7690  H       1  <O>11       0.0268
  34 H7       -5.9213     0.2861    -6.5571  H       1  <O>11       0.0284
  35 H8       -4.3411     1.0562    -6.8391  H       1  <O>11       0.0284
  36 H9       -3.4134    -1.0169    -6.4999  H       1  <O>11       0.0540
  37 H10      -2.9342    -7.5718    -9.2389  H       1  <O>11       0.1731
  38 H11      -1.5153    -5.5604    -7.7027  H       1  <O>11       0.1732
  39 H12      -3.6361    -1.6434    -3.8856  H       1  <O>11       0.0286
  40 H13      -2.7332    -0.1930    -4.3861  H       1  <O>11       0.0286
  41 H14      -3.8015    -3.2339    -3.7172  H       1  <O>11       0.0636
  42 H15      -2.5973    -5.3180    -3.4014  H       1  <O>11       0.0618
  43 H16      -2.6114    -7.0129    -5.1437  H       1  <O>11       0.0625
  44 H17       0.0774    -4.7094   -11.6500  H       1  <O>11       0.0640
  45 H18       1.6867    -2.8738   -11.7192  H       1  <O>11       0.0619
  46 H19       1.7706    -1.3203    -9.8300  H       1  <O>11       0.0633
  47 H20       0.2163    -1.5792    -7.9975  H       1  <O>11       0.0830
  48 H21      -5.0546    -4.5437    -7.5274  H       1  <O>11       0.0644
@<TRIPOS>BOND
     1     1     2    1
     2     2     3    1
     3     3     4    1
     4     4     5    1
     5     5     6    1
     6     6     7    2
     7     6     8    2
     8     6     9    1
     9     9    10   ar
    10    10    11   ar
    11    11    12   ar
    12    12    13   ar
    13    13    14    1
    14    14    15    2
    15    14    16   am
    16    16    17    1
    17    17    18   am
    18    18    19    2
    19    18    20    1
    20    20    21   ar
    21    21    22   ar
    22    22    23   ar
    23    23    24   ar
    24    24    25   ar
    25    20    25   ar
    26    13    26   ar
    27     9    26   ar
    28     5    27    1
    29     2    27    1
    30     1    28    1
    31     1    29    1
    32     1    30    1
    33     2    31    1
    34     3    32    1
    35     3    33    1
    36     4    34    1
    37     4    35    1
    38     5    36    1
    39    16    37    1
    40    17    38    1
    41    27    39    1
    42    27    40    1
    43    10    41    1
    44    11    42    1
    45    12    43    1
    46    21    44    1
    47    22    45    1
    48    23    46    1
    49    24    47    1
    50    26    48    1
@<TRIPOS>MOLECULE
mol87_1_30
 48 50 0 0 0
SMALL
USER_CHARGES
****
VDW energy = 239.43
@<TRIPOS>ATOM
   1 C1       -4.2066     0.8720    -2.4778  C.3     1  <O>11      -0.0624
   2 C2       -4.7601     0.2037    -3.7270  C.3     1  <O>11      -0.0421
   3 C3       -5.0692     1.2349    -4.8110  C.3     1  <O>11      -0.0487
   4 C4       -4.9361     0.4781    -6.1320  C.3     1  <O>11      -0.0301
   5 C5       -4.2353    -0.8404    -5.8060  C.3     1  <O>11       0.0822
   6 S1       -5.3820    -2.1890    -5.8910  S.O2    1  <O>11      -0.0002
   7 O1       -6.9020    -1.6482    -5.4930  O.2     1  <O>11      -0.1691
   8 O2       -4.9206    -3.3761    -4.8265  O.2     1  <O>11      -0.1691
   9 C6       -5.4010    -2.8447    -7.5352  C.ar    1  <O>11       0.0892
  10 C7       -4.2257    -3.3666    -8.1041  C.ar    1  <O>11      -0.0368
  11 C8       -4.2393    -3.8737    -9.4082  C.ar    1  <O>11      -0.0592
  12 C9       -5.4206    -3.8676   -10.1531  C.ar    1  <O>11      -0.0495
  13 C10      -6.5911    -3.3533    -9.5838  C.ar    1  <O>11       0.0400
  14 C11      -7.8130    -3.3517   -10.3598  C.2     1  <O>11       0.2602
  15 O3       -8.0885    -2.3914   -11.0636  O.2     1  <O>11      -0.2687
  16 N1       -8.6597    -4.4271   -10.3066  N.am    1  <O>11      -0.2301
  17 N2       -8.3483    -5.5062    -9.5159  N.am    1  <O>11      -0.2289
  18 C12      -7.1944    -6.2088    -9.7359  C.2     1  <O>11       0.2784
  19 O4       -6.4385    -5.8784   -10.6357  O.2     1  <O>11      -0.2670
  20 C13      -6.8677    -7.3526    -8.8951  C.ar    1  <O>11       0.1268
  21 C14      -6.9763    -8.6642    -9.4264  C.ar    1  <O>11      -0.0311
  22 C15      -6.6526    -9.7504    -8.6208  C.ar    1  <O>11      -0.0582
  23 C16      -6.2552    -9.5041    -7.3021  C.ar    1  <O>11      -0.0436
  24 C17      -6.1697    -8.1884    -6.8422  C.ar    1  <O>11       0.0284
  25 N3       -6.4672    -7.1437    -7.6265  N.ar    1  <O>11      -0.2503
  26 C18      -6.5899    -2.8476    -8.2838  C.ar    1  <O>11      -0.0247
  27 C19      -3.7089    -0.6788    -4.3880  C.3     1  <O>11      -0.0277
  28 H1       -3.9958     0.1141    -1.7234  H       1  <O>11       0.0232
  29 H2       -4.9399     1.5782    -2.0884  H       1  <O>11       0.0232
  30 H3       -3.2876     1.4026    -2.7266  H       1  <O>11       0.0232
  31 H4       -5.6489    -0.3718    -3.4683  H       1  <O>11       0.0299
  32 H5       -6.0811     1.6223    -4.6927  H       1  <O>11       0.0268
  33 H6       -4.3569     2.0589    -4.7690  H       1  <O>11       0.0268
  34 H7       -5.9213     0.2861    -6.5571  H       1  <O>11       0.0284
  35 H8       -4.3411     1.0562    -6.8391  H       1  <O>11       0.0284
  36 H9       -3.4134    -1.0169    -6.4999  H       1  <O>11       0.0540
  37 H10      -9.5189    -4.4258   -10.8552  H       1  <O>11       0.1731
  38 H11      -8.9791    -5.7855    -8.7631  H       1  <O>11       0.1732
  39 H12      -3.6361    -1.6434    -3.8856  H       1  <O>11       0.0286
  40 H13      -2.7332    -0.1930    -4.3861  H       1  <O>11       0.0286
  41 H14      -3.3501    -3.3756    -7.5579  H       1  <O>11       0.0636
  42 H15      -3.3732    -4.2537    -9.8211  H       1  <O>11       0.0618
  43 H16      -5.4304    -4.2395   -11.1157  H       1  <O>11       0.0625
  44 H17      -7.2914    -8.8099   -10.3983  H       1  <O>11       0.0640
  45 H18      -6.7042   -10.7141    -8.9864  H       1  <O>11       0.0619
  46 H19      -6.0268   -10.2898    -6.6733  H       1  <O>11       0.0633
  47 H20      -5.8687    -8.0158    -5.8702  H       1  <O>11       0.0830
  48 H21      -7.4606    -2.4762    -7.8727  H       1  <O>11       0.0644
@<TRIPOS>BOND
     1     1     2    1
     2     2     3    1
     3     3     4    1
     4     4     5    1
     5     5     6    1
     6     6     7    2
     7     6     8    2
     8     6     9    1
     9     9    10   ar
    10    10    11   ar
    11    11    12   ar
    12    12    13   ar
    13    13    14    1
    14    14    15    2
    15    14    16   am
    16    16    17    1
    17    17    18   am
    18    18    19    2
    19    18    20    1
    20    20    21   ar
    21    21    22   ar
    22    22    23   ar
    23    23    24   ar
    24    24    25   ar
    25    20    25   ar
    26    13    26   ar
    27     9    26   ar
    28     5    27    1
    29     2    27    1
    30     1    28    1
    31     1    29    1
    32     1    30    1
    33     2    31    1
    34     3    32    1
    35     3    33    1
    36     4    34    1
    37     4    35    1
    38     5    36    1
    39    16    37    1
    40    17    38    1
    41    27    39    1
    42    27    40    1
    43    10    41    1
    44    11    42    1
    45    12    43    1
    46    21    44    1
    47    22    45    1
    48    23    46    1
    49    24    47    1
    50    26    48    1
