@<TRIPOS>MOLECULE
mol80_1_1
 48 51 0 0 0
SMALL
USER_CHARGES
****
VDW energy = 9.24
@<TRIPOS>ATOM
   1 O1        3.4420    -9.1855    -5.2979  O.2     1  <O>11      -0.2679
   2 C1        2.8552    -9.8129    -4.4288  C.2     1  <O>11       0.2706
   3 N1        3.5160   -10.1860    -3.2900  N.am    1  <O>11      -0.1481
   4 F1        2.8250   -10.9250    -2.2650  F       1  <O>11      -0.1090
   5 C2        1.4620   -10.1610    -4.6040  C.ar    1  <O>11       0.0395
   6 C3        0.4750    -9.2817    -4.1546  C.ar    1  <O>11      -0.0495
   7 C4       -0.8745    -9.6183    -4.3101  C.ar    1  <O>11      -0.0605
   8 C5       -1.2337   -10.8255    -4.9148  C.ar    1  <O>11      -0.0540
   9 C6       -0.2326   -11.6941    -5.3653  C.ar    1  <O>11      -0.0172
  10 C7       -0.6050   -12.9248    -5.9823  C.ar    1  <O>11      -0.0176
  11 C8       -1.3648   -13.8708    -5.2723  C.ar    1  <O>11      -0.0540
  12 C9       -1.7193   -15.0833    -5.8749  C.ar    1  <O>11      -0.0609
  13 C10      -1.3239   -15.3616    -7.1859  C.ar    1  <O>11      -0.0582
  14 C11      -0.5731   -14.4167    -7.8931  C.ar    1  <O>11      -0.0409
  15 C12      -0.1592   -14.7141    -9.2779  C.3     1  <O>11       0.0168
  16 C13      -1.2017   -14.2329   -10.2210  C.ar    1  <O>11       0.0693
  17 N2       -2.2408   -13.4325    -9.7599  N.ar    1  <O>11      -0.1753
  18 N3       -3.1957   -12.9888   -10.6148  N.ar    1  <O>11      -0.2427
  19 C14      -3.1391   -13.3327   -11.9192  C.ar    1  <O>11       0.2682
  20 O2       -4.1495   -12.8251   -12.7581  O.2     1  <O>11      -0.2661
  21 C15      -2.1418   -14.1509   -12.4477  C.ar    1  <O>11       0.0232
  22 C16      -1.1367   -14.5835   -11.5684  C.ar    1  <O>11      -0.0158
  23 C17      -0.0074   -15.4746   -12.0129  C.3     1  <O>11      -0.0255
  24 C18       0.1751   -15.4969   -13.5278  C.3     1  <O>11      -0.0487
  25 C19      -1.1668   -15.6947   -14.2171  C.3     1  <O>11      -0.0486
  26 C20      -2.1060   -14.5281   -13.9062  C.3     1  <O>11      -0.0222
  27 C21      -0.2153   -13.2022    -7.3036  C.ar    1  <O>11      -0.0505
  28 C22       1.1151   -11.3668    -5.2172  C.ar    1  <O>11      -0.0418
  29 H1        4.4990    -9.9410    -3.1660  H       1  <O>11       0.1882
  30 H2       -0.0303   -15.7899    -9.3958  H       1  <O>11       0.0377
  31 H3        0.7837   -14.2101    -9.4918  H       1  <O>11       0.0377
  32 H4       -3.9431   -12.4027   -10.2718  H       1  <O>11       0.1921
  33 H5        0.9164   -15.1166   -11.5577  H       1  <O>11       0.0314
  34 H6       -0.2110   -16.4891   -11.6728  H       1  <O>11       0.0314
  35 H7        0.6098   -14.5520   -13.8522  H       1  <O>11       0.0268
  36 H8        0.8414   -16.3163   -13.7980  H       1  <O>11       0.0268
  37 H9       -1.0119   -15.7521   -15.2954  H       1  <O>11       0.0269
  38 H10      -1.6183   -16.6229   -13.8651  H       1  <O>11       0.0269
  39 H11      -1.7778   -13.6604   -14.4781  H       1  <O>11       0.0315
  40 H12      -3.1138   -14.8064   -14.2137  H       1  <O>11       0.0315
  41 H13       0.7391    -8.3884    -3.7103  H       1  <O>11       0.0625
  42 H14      -1.6070    -8.9723    -3.9769  H       1  <O>11       0.0618
  43 H15      -2.2287   -11.0748    -5.0282  H       1  <O>11       0.0624
  44 H16      -1.6620   -13.6708    -4.3045  H       1  <O>11       0.0624
  45 H17      -2.2753   -15.7751    -5.3484  H       1  <O>11       0.0618
  46 H18      -1.5837   -16.2569    -7.6287  H       1  <O>11       0.0620
  47 H19       0.3339   -12.5102    -7.8371  H       1  <O>11       0.0626
  48 H20       1.8481   -12.0089    -5.5570  H       1  <O>11       0.0631
@<TRIPOS>BOND
     1     1     2    2
     2     2     3   am
     3     3     4    1
     4     2     5    1
     5     5     6   ar
     6     6     7   ar
     7     7     8   ar
     8     8     9   ar
     9     9    10    1
    10    10    11   ar
    11    11    12   ar
    12    12    13   ar
    13    13    14   ar
    14    14    15    1
    15    15    16    1
    16    16    17   ar
    17    17    18   ar
    18    18    19   ar
    19    19    20    2
    20    19    21   ar
    21    21    22   ar
    22    16    22   ar
    23    22    23    1
    24    23    24    1
    25    24    25    1
    26    25    26    1
    27    21    26    1
    28    14    27   ar
    29    10    27   ar
    30     9    28   ar
    31     5    28   ar
    32     3    29    1
    33    15    30    1
    34    15    31    1
    35    18    32    1
    36    23    33    1
    37    23    34    1
    38    24    35    1
    39    24    36    1
    40    25    37    1
    41    25    38    1
    42    26    39    1
    43    26    40    1
    44     6    41    1
    45     7    42    1
    46     8    43    1
    47    11    44    1
    48    12    45    1
    49    13    46    1
    50    27    47    1
    51    28    48    1
@<TRIPOS>MOLECULE
mol80_1_2
 48 51 0 0 0
SMALL
USER_CHARGES
****
VDW energy = 10.74
@<TRIPOS>ATOM
   1 O1        3.4420    -9.1855    -5.2979  O.2     1  <O>11      -0.2679
   2 C1        2.8552    -9.8129    -4.4288  C.2     1  <O>11       0.2706
   3 N1        3.5160   -10.1860    -3.2900  N.am    1  <O>11      -0.1481
   4 F1        2.8250   -10.9250    -2.2650  F       1  <O>11      -0.1090
   5 C2        1.4620   -10.1610    -4.6040  C.ar    1  <O>11       0.0395
   6 C3        0.4750    -9.2817    -4.1546  C.ar    1  <O>11      -0.0495
   7 C4       -0.8745    -9.6183    -4.3101  C.ar    1  <O>11      -0.0605
   8 C5       -1.2337   -10.8255    -4.9148  C.ar    1  <O>11      -0.0540
   9 C6       -0.2326   -11.6941    -5.3653  C.ar    1  <O>11      -0.0172
  10 C7       -0.6050   -12.9248    -5.9823  C.ar    1  <O>11      -0.0176
  11 C8       -1.3648   -13.8708    -5.2723  C.ar    1  <O>11      -0.0540
  12 C9       -1.7193   -15.0833    -5.8749  C.ar    1  <O>11      -0.0609
  13 C10      -1.3239   -15.3616    -7.1859  C.ar    1  <O>11      -0.0582
  14 C11      -0.5731   -14.4167    -7.8931  C.ar    1  <O>11      -0.0409
  15 C12      -0.1592   -14.7141    -9.2779  C.3     1  <O>11       0.0168
  16 C13      -1.3643   -14.9322   -10.1194  C.ar    1  <O>11       0.0693
  17 N2       -1.8989   -16.2089   -10.2512  N.ar    1  <O>11      -0.1753
  18 N3       -2.9991   -16.4156   -11.0169  N.ar    1  <O>11      -0.2427
  19 C14      -3.5731   -15.3761   -11.6594  C.ar    1  <O>11       0.2682
  20 O2       -4.7228   -15.6534   -12.4234  O.2     1  <O>11      -0.2661
  21 C15      -3.0787   -14.0743   -11.5936  C.ar    1  <O>11       0.0232
  22 C16      -1.9590   -13.8560   -10.7757  C.ar    1  <O>11      -0.0158
  23 C17      -1.3260   -12.4983   -10.6233  C.3     1  <O>11      -0.0255
  24 C18      -2.2394   -11.3601   -11.0692  C.3     1  <O>11      -0.0487
  25 C19      -2.8584   -11.6805   -12.4217  C.3     1  <O>11      -0.0486
  26 C20      -3.7324   -12.9323   -12.3280  C.3     1  <O>11      -0.0222
  27 C21      -0.2153   -13.2022    -7.3036  C.ar    1  <O>11      -0.0505
  28 C22       1.1151   -11.3668    -5.2172  C.ar    1  <O>11      -0.0418
  29 H1        4.4990    -9.9410    -3.1660  H       1  <O>11       0.1882
  30 H2        0.4590   -15.6116    -9.2878  H       1  <O>11       0.0377
  31 H3        0.4130   -13.8751    -9.6745  H       1  <O>11       0.0377
  32 H4       -3.3840   -17.3454   -11.1016  H       1  <O>11       0.1921
  33 H5       -1.0739   -12.3493    -9.5731  H       1  <O>11       0.0314
  34 H6       -0.4173   -12.4695   -11.2231  H       1  <O>11       0.0314
  35 H7       -3.0323   -11.2254   -10.3341  H       1  <O>11       0.0268
  36 H8       -1.6572   -10.4419   -11.1496  H       1  <O>11       0.0268
  37 H9       -3.4724   -10.8385   -12.7445  H       1  <O>11       0.0269
  38 H10      -2.0641   -11.8507   -13.1492  H       1  <O>11       0.0269
  39 H11      -4.6534   -12.6706   -11.8073  H       1  <O>11       0.0315
  40 H12      -3.9678   -13.2641   -13.3390  H       1  <O>11       0.0315
  41 H13       0.7391    -8.3884    -3.7103  H       1  <O>11       0.0625
  42 H14      -1.6070    -8.9723    -3.9769  H       1  <O>11       0.0618
  43 H15      -2.2287   -11.0748    -5.0282  H       1  <O>11       0.0624
  44 H16      -1.6620   -13.6708    -4.3045  H       1  <O>11       0.0624
  45 H17      -2.2753   -15.7751    -5.3484  H       1  <O>11       0.0618
  46 H18      -1.5837   -16.2569    -7.6287  H       1  <O>11       0.0620
  47 H19       0.3339   -12.5102    -7.8371  H       1  <O>11       0.0626
  48 H20       1.8481   -12.0089    -5.5570  H       1  <O>11       0.0631
@<TRIPOS>BOND
     1     1     2    2
     2     2     3   am
     3     3     4    1
     4     2     5    1
     5     5     6   ar
     6     6     7   ar
     7     7     8   ar
     8     8     9   ar
     9     9    10    1
    10    10    11   ar
    11    11    12   ar
    12    12    13   ar
    13    13    14   ar
    14    14    15    1
    15    15    16    1
    16    16    17   ar
    17    17    18   ar
    18    18    19   ar
    19    19    20    2
    20    19    21   ar
    21    21    22   ar
    22    16    22   ar
    23    22    23    1
    24    23    24    1
    25    24    25    1
    26    25    26    1
    27    21    26    1
    28    14    27   ar
    29    10    27   ar
    30     9    28   ar
    31     5    28   ar
    32     3    29    1
    33    15    30    1
    34    15    31    1
    35    18    32    1
    36    23    33    1
    37    23    34    1
    38    24    35    1
    39    24    36    1
    40    25    37    1
    41    25    38    1
    42    26    39    1
    43    26    40    1
    44     6    41    1
    45     7    42    1
    46     8    43    1
    47    11    44    1
    48    12    45    1
    49    13    46    1
    50    27    47    1
    51    28    48    1
@<TRIPOS>MOLECULE
mol80_1_3
 48 51 0 0 0
SMALL
USER_CHARGES
****
VDW energy = 14.27
@<TRIPOS>ATOM
   1 O1        3.4420    -9.1855    -5.2979  O.2     1  <O>11      -0.2679
   2 C1        2.8552    -9.8129    -4.4288  C.2     1  <O>11       0.2706
   3 N1        3.5160   -10.1860    -3.2900  N.am    1  <O>11      -0.1481
   4 F1        2.8250   -10.9250    -2.2650  F       1  <O>11      -0.1090
   5 C2        1.4620   -10.1610    -4.6040  C.ar    1  <O>11       0.0395
   6 C3        0.4750    -9.2817    -4.1546  C.ar    1  <O>11      -0.0495
   7 C4       -0.8745    -9.6183    -4.3101  C.ar    1  <O>11      -0.0605
   8 C5       -1.2337   -10.8255    -4.9148  C.ar    1  <O>11      -0.0540
   9 C6       -0.2326   -11.6941    -5.3653  C.ar    1  <O>11      -0.0172
  10 C7       -0.6050   -12.9248    -5.9823  C.ar    1  <O>11      -0.0176
  11 C8       -1.3648   -13.8708    -5.2723  C.ar    1  <O>11      -0.0540
  12 C9       -1.7193   -15.0833    -5.8749  C.ar    1  <O>11      -0.0609
  13 C10      -1.3239   -15.3616    -7.1859  C.ar    1  <O>11      -0.0582
  14 C11      -0.5731   -14.4167    -7.8931  C.ar    1  <O>11      -0.0409
  15 C12      -0.1592   -14.7141    -9.2779  C.3     1  <O>11       0.0168
  16 C13       0.6823   -15.9388    -9.2915  C.ar    1  <O>11       0.0693
  17 N2        0.7896   -16.7218    -8.1477  N.ar    1  <O>11      -0.1753
  18 N3        1.5550   -17.8414    -8.1526  N.ar    1  <O>11      -0.2427
  19 C14       2.2213   -18.1924    -9.2733  C.ar    1  <O>11       0.2682
  20 O2        2.9838   -19.3748    -9.2193  O.2     1  <O>11      -0.2661
  21 C15       2.1806   -17.4437   -10.4485  C.ar    1  <O>11       0.0232
  22 C16       1.3631   -16.3026   -10.4520  C.ar    1  <O>11      -0.0158
  23 C17       1.2365   -15.4069   -11.6557  C.3     1  <O>11      -0.0255
  24 C18       1.7096   -16.0701   -12.9461  C.3     1  <O>11      -0.0487
  25 C19       3.0575   -16.7418   -12.7296  C.3     1  <O>11      -0.0486
  26 C20       2.9411   -17.8520   -11.6837  C.3     1  <O>11      -0.0222
  27 C21      -0.2153   -13.2022    -7.3036  C.ar    1  <O>11      -0.0505
  28 C22       1.1151   -11.3668    -5.2172  C.ar    1  <O>11      -0.0418
  29 H1        4.4990    -9.9410    -3.1660  H       1  <O>11       0.1882
  30 H2        0.4124   -13.8753    -9.6747  H       1  <O>11       0.0377
  31 H3       -1.0434   -14.8749    -9.8951  H       1  <O>11       0.0377
  32 H4        1.6219   -18.4072    -7.3189  H       1  <O>11       0.1921
  33 H5        0.1887   -15.1293   -11.7725  H       1  <O>11       0.0314
  34 H6        1.8333   -14.5116   -11.4865  H       1  <O>11       0.0314
  35 H7        0.9805   -16.8187   -13.2546  H       1  <O>11       0.0268
  36 H8        1.8068   -15.3135   -13.7249  H       1  <O>11       0.0268
  37 H9        3.4000   -17.1720   -13.6718  H       1  <O>11       0.0269
  38 H10       3.7782   -15.9990   -12.3862  H       1  <O>11       0.0269
  39 H11       2.4296   -18.7003   -12.1381  H       1  <O>11       0.0315
  40 H12       3.9459   -18.1503   -11.3854  H       1  <O>11       0.0315
  41 H13       0.7391    -8.3884    -3.7103  H       1  <O>11       0.0625
  42 H14      -1.6070    -8.9723    -3.9769  H       1  <O>11       0.0618
  43 H15      -2.2287   -11.0748    -5.0282  H       1  <O>11       0.0624
  44 H16      -1.6620   -13.6708    -4.3045  H       1  <O>11       0.0624
  45 H17      -2.2753   -15.7751    -5.3484  H       1  <O>11       0.0618
  46 H18      -1.5837   -16.2569    -7.6287  H       1  <O>11       0.0620
  47 H19       0.3339   -12.5102    -7.8371  H       1  <O>11       0.0626
  48 H20       1.8481   -12.0089    -5.5570  H       1  <O>11       0.0631
@<TRIPOS>BOND
     1     1     2    2
     2     2     3   am
     3     3     4    1
     4     2     5    1
     5     5     6   ar
     6     6     7   ar
     7     7     8   ar
     8     8     9   ar
     9     9    10    1
    10    10    11   ar
    11    11    12   ar
    12    12    13   ar
    13    13    14   ar
    14    14    15    1
    15    15    16    1
    16    16    17   ar
    17    17    18   ar
    18    18    19   ar
    19    19    20    2
    20    19    21   ar
    21    21    22   ar
    22    16    22   ar
    23    22    23    1
    24    23    24    1
    25    24    25    1
    26    25    26    1
    27    21    26    1
    28    14    27   ar
    29    10    27   ar
    30     9    28   ar
    31     5    28   ar
    32     3    29    1
    33    15    30    1
    34    15    31    1
    35    18    32    1
    36    23    33    1
    37    23    34    1
    38    24    35    1
    39    24    36    1
    40    25    37    1
    41    25    38    1
    42    26    39    1
    43    26    40    1
    44     6    41    1
    45     7    42    1
    46     8    43    1
    47    11    44    1
    48    12    45    1
    49    13    46    1
    50    27    47    1
    51    28    48    1
@<TRIPOS>MOLECULE
mol80_1_4
 48 51 0 0 0
SMALL
USER_CHARGES
****
VDW energy = 17.64
@<TRIPOS>ATOM
   1 O1        3.4420    -9.1855    -5.2979  O.2     1  <O>11      -0.2679
   2 C1        2.8552    -9.8129    -4.4288  C.2     1  <O>11       0.2706
   3 N1        3.5160   -10.1860    -3.2900  N.am    1  <O>11      -0.1481
   4 F1        2.8250   -10.9250    -2.2650  F       1  <O>11      -0.1090
   5 C2        1.4620   -10.1610    -4.6040  C.ar    1  <O>11       0.0395
   6 C3        1.0134   -11.4175    -4.1926  C.ar    1  <O>11      -0.0495
   7 C4       -0.3305   -11.7649    -4.3706  C.ar    1  <O>11      -0.0605
   8 C5       -1.2205   -10.8590    -4.9532  C.ar    1  <O>11      -0.0540
   9 C6       -0.7568    -9.6008    -5.3553  C.ar    1  <O>11      -0.0172
  10 C7       -1.6698    -8.6799    -5.9490  C.ar    1  <O>11      -0.0176
  11 C8       -1.8603    -8.6707    -7.3417  C.ar    1  <O>11      -0.0540
  12 C9       -2.7475    -7.7582    -7.9241  C.ar    1  <O>11      -0.0609
  13 C10      -3.4521    -6.8525    -7.1269  C.ar    1  <O>11      -0.0582
  14 C11      -3.2660    -6.8670    -5.7405  C.ar    1  <O>11      -0.0409
  15 C12      -4.0135    -5.9098    -4.9023  C.3     1  <O>11       0.0168
  16 C13      -3.6680    -4.5222    -5.3062  C.ar    1  <O>11       0.0693
  17 N2       -2.9288    -4.2979    -6.4622  N.ar    1  <O>11      -0.1753
  18 N3       -2.6102    -3.0341    -6.8377  N.ar    1  <O>11      -0.2427
  19 C14      -3.0081    -1.9898    -6.0801  C.ar    1  <O>11       0.2682
  20 O2       -2.6613    -0.7028    -6.5337  O.2     1  <O>11      -0.2661
  21 C15      -3.7300    -2.1395    -4.8970  C.ar    1  <O>11       0.0232
  22 C16      -4.0863    -3.4456    -4.5260  C.ar    1  <O>11      -0.0158
  23 C17      -4.8605    -3.7425    -3.2692  C.3     1  <O>11      -0.0255
  24 C18      -5.5669    -2.5159    -2.6991  C.3     1  <O>11      -0.0487
  25 C19      -4.6122    -1.3321    -2.6532  C.3     1  <O>11      -0.0486
  26 C20      -4.1545    -0.9578    -4.0639  C.3     1  <O>11      -0.0222
  27 C21      -2.3854    -7.7743    -5.1474  C.ar    1  <O>11      -0.0505
  28 C22       0.5801    -9.2441    -5.1802  C.ar    1  <O>11      -0.0418
  29 H1        4.4990    -9.9410    -3.1660  H       1  <O>11       0.1882
  30 H2       -3.7503    -6.0605    -3.8555  H       1  <O>11       0.0377
  31 H3       -5.0839    -6.0699    -5.0340  H       1  <O>11       0.0377
  32 H4       -2.0783    -2.8807    -7.6823  H       1  <O>11       0.1921
  33 H5       -5.6107    -4.5008    -3.4952  H       1  <O>11       0.0314
  34 H6       -4.1705    -4.1258    -2.5187  H       1  <O>11       0.0314
  35 H7       -6.4194    -2.2656    -3.3298  H       1  <O>11       0.0268
  36 H8       -5.9132    -2.7369    -1.6893  H       1  <O>11       0.0268
  37 H9       -5.1201    -0.4780    -2.2031  H       1  <O>11       0.0269
  38 H10      -3.7418    -1.5955    -2.0513  H       1  <O>11       0.0269
  39 H11      -4.9789    -0.4573    -4.5715  H       1  <O>11       0.0315
  40 H12      -3.3095    -0.2745    -3.9815  H       1  <O>11       0.0315
  41 H13       1.6693   -12.0865    -3.7596  H       1  <O>11       0.0625
  42 H14      -0.6655   -12.6936    -4.0704  H       1  <O>11       0.0618
  43 H15      -2.2113   -11.1153    -5.0861  H       1  <O>11       0.0624
  44 H16      -1.3448    -9.3383    -7.9363  H       1  <O>11       0.0624
  45 H17      -2.8820    -7.7543    -8.9473  H       1  <O>11       0.0618
  46 H18      -4.1044    -6.1784    -7.5572  H       1  <O>11       0.0620
  47 H19      -2.2606    -7.7797    -4.1229  H       1  <O>11       0.0626
  48 H20       0.9141    -8.3127    -5.4733  H       1  <O>11       0.0631
@<TRIPOS>BOND
     1     1     2    2
     2     2     3   am
     3     3     4    1
     4     2     5    1
     5     5     6   ar
     6     6     7   ar
     7     7     8   ar
     8     8     9   ar
     9     9    10    1
    10    10    11   ar
    11    11    12   ar
    12    12    13   ar
    13    13    14   ar
    14    14    15    1
    15    15    16    1
    16    16    17   ar
    17    17    18   ar
    18    18    19   ar
    19    19    20    2
    20    19    21   ar
    21    21    22   ar
    22    16    22   ar
    23    22    23    1
    24    23    24    1
    25    24    25    1
    26    25    26    1
    27    21    26    1
    28    14    27   ar
    29    10    27   ar
    30     9    28   ar
    31     5    28   ar
    32     3    29    1
    33    15    30    1
    34    15    31    1
    35    18    32    1
    36    23    33    1
    37    23    34    1
    38    24    35    1
    39    24    36    1
    40    25    37    1
    41    25    38    1
    42    26    39    1
    43    26    40    1
    44     6    41    1
    45     7    42    1
    46     8    43    1
    47    11    44    1
    48    12    45    1
    49    13    46    1
    50    27    47    1
    51    28    48    1
@<TRIPOS>MOLECULE
mol80_1_5
 48 51 0 0 0
SMALL
USER_CHARGES
****
VDW energy = 17.94
@<TRIPOS>ATOM
   1 O1        3.4420    -9.1855    -5.2979  O.2     1  <O>11      -0.2679
   2 C1        2.8552    -9.8129    -4.4288  C.2     1  <O>11       0.2706
   3 N1        3.5160   -10.1860    -3.2900  N.am    1  <O>11      -0.1481
   4 F1        4.9030    -9.8396    -3.1152  F       1  <O>11      -0.1090
   5 C2        1.4620   -10.1610    -4.6040  C.ar    1  <O>11       0.0395
   6 C3        0.4750    -9.2817    -4.1546  C.ar    1  <O>11      -0.0495
   7 C4       -0.8745    -9.6183    -4.3101  C.ar    1  <O>11      -0.0605
   8 C5       -1.2337   -10.8255    -4.9148  C.ar    1  <O>11      -0.0540
   9 C6       -0.2326   -11.6941    -5.3653  C.ar    1  <O>11      -0.0172
  10 C7       -0.6050   -12.9248    -5.9823  C.ar    1  <O>11      -0.0176
  11 C8       -1.3648   -13.8708    -5.2723  C.ar    1  <O>11      -0.0540
  12 C9       -1.7193   -15.0833    -5.8749  C.ar    1  <O>11      -0.0609
  13 C10      -1.3239   -15.3616    -7.1859  C.ar    1  <O>11      -0.0582
  14 C11      -0.5731   -14.4167    -7.8931  C.ar    1  <O>11      -0.0409
  15 C12      -0.1592   -14.7141    -9.2779  C.3     1  <O>11       0.0168
  16 C13      -1.2017   -14.2329   -10.2210  C.ar    1  <O>11       0.0693
  17 N2       -2.2408   -13.4325    -9.7599  N.ar    1  <O>11      -0.1753
  18 N3       -3.1957   -12.9888   -10.6148  N.ar    1  <O>11      -0.2427
  19 C14      -3.1391   -13.3327   -11.9192  C.ar    1  <O>11       0.2682
  20 O2       -4.1495   -12.8251   -12.7581  O.2     1  <O>11      -0.2661
  21 C15      -2.1418   -14.1509   -12.4477  C.ar    1  <O>11       0.0232
  22 C16      -1.1367   -14.5835   -11.5684  C.ar    1  <O>11      -0.0158
  23 C17      -0.0074   -15.4746   -12.0129  C.3     1  <O>11      -0.0255
  24 C18       0.1751   -15.4969   -13.5278  C.3     1  <O>11      -0.0487
  25 C19      -1.1668   -15.6947   -14.2171  C.3     1  <O>11      -0.0486
  26 C20      -2.1060   -14.5281   -13.9062  C.3     1  <O>11      -0.0222
  27 C21      -0.2153   -13.2022    -7.3036  C.ar    1  <O>11      -0.0505
  28 C22       1.1151   -11.3668    -5.2172  C.ar    1  <O>11      -0.0418
  29 H1        3.0266   -10.7100    -2.5636  H       1  <O>11       0.1882
  30 H2       -0.0303   -15.7899    -9.3958  H       1  <O>11       0.0377
  31 H3        0.7837   -14.2101    -9.4918  H       1  <O>11       0.0377
  32 H4       -3.9431   -12.4027   -10.2718  H       1  <O>11       0.1921
  33 H5        0.9164   -15.1166   -11.5577  H       1  <O>11       0.0314
  34 H6       -0.2110   -16.4891   -11.6728  H       1  <O>11       0.0314
  35 H7        0.6098   -14.5520   -13.8522  H       1  <O>11       0.0268
  36 H8        0.8414   -16.3163   -13.7980  H       1  <O>11       0.0268
  37 H9       -1.0119   -15.7521   -15.2954  H       1  <O>11       0.0269
  38 H10      -1.6183   -16.6229   -13.8651  H       1  <O>11       0.0269
  39 H11      -1.7778   -13.6604   -14.4781  H       1  <O>11       0.0315
  40 H12      -3.1138   -14.8064   -14.2137  H       1  <O>11       0.0315
  41 H13       0.7391    -8.3884    -3.7103  H       1  <O>11       0.0625
  42 H14      -1.6070    -8.9723    -3.9769  H       1  <O>11       0.0618
  43 H15      -2.2287   -11.0748    -5.0282  H       1  <O>11       0.0624
  44 H16      -1.6620   -13.6708    -4.3045  H       1  <O>11       0.0624
  45 H17      -2.2753   -15.7751    -5.3484  H       1  <O>11       0.0618
  46 H18      -1.5837   -16.2569    -7.6287  H       1  <O>11       0.0620
  47 H19       0.3339   -12.5102    -7.8371  H       1  <O>11       0.0626
  48 H20       1.8481   -12.0089    -5.5570  H       1  <O>11       0.0631
@<TRIPOS>BOND
     1     1     2    2
     2     2     3   am
     3     3     4    1
     4     2     5    1
     5     5     6   ar
     6     6     7   ar
     7     7     8   ar
     8     8     9   ar
     9     9    10    1
    10    10    11   ar
    11    11    12   ar
    12    12    13   ar
    13    13    14   ar
    14    14    15    1
    15    15    16    1
    16    16    17   ar
    17    17    18   ar
    18    18    19   ar
    19    19    20    2
    20    19    21   ar
    21    21    22   ar
    22    16    22   ar
    23    22    23    1
    24    23    24    1
    25    24    25    1
    26    25    26    1
    27    21    26    1
    28    14    27   ar
    29    10    27   ar
    30     9    28   ar
    31     5    28   ar
    32     3    29    1
    33    15    30    1
    34    15    31    1
    35    18    32    1
    36    23    33    1
    37    23    34    1
    38    24    35    1
    39    24    36    1
    40    25    37    1
    41    25    38    1
    42    26    39    1
    43    26    40    1
    44     6    41    1
    45     7    42    1
    46     8    43    1
    47    11    44    1
    48    12    45    1
    49    13    46    1
    50    27    47    1
    51    28    48    1
@<TRIPOS>MOLECULE
mol80_1_6
 48 51 0 0 0
SMALL
USER_CHARGES
****
VDW energy = 19.58
@<TRIPOS>ATOM
   1 O1        3.4420    -9.1855    -5.2979  O.2     1  <O>11      -0.2679
   2 C1        2.8552    -9.8129    -4.4288  C.2     1  <O>11       0.2706
   3 N1        3.5160   -10.1860    -3.2900  N.am    1  <O>11      -0.1481
   4 F1        2.8250   -10.9250    -2.2650  F       1  <O>11      -0.1090
   5 C2        1.4620   -10.1610    -4.6040  C.ar    1  <O>11       0.0395
   6 C3        1.0134   -11.4175    -4.1926  C.ar    1  <O>11      -0.0495
   7 C4       -0.3305   -11.7649    -4.3706  C.ar    1  <O>11      -0.0605
   8 C5       -1.2205   -10.8590    -4.9532  C.ar    1  <O>11      -0.0540
   9 C6       -0.7568    -9.6008    -5.3553  C.ar    1  <O>11      -0.0172
  10 C7       -1.6698    -8.6799    -5.9490  C.ar    1  <O>11      -0.0176
  11 C8       -2.3432    -9.0169    -7.1361  C.ar    1  <O>11      -0.0540
  12 C9       -3.2297    -8.1073    -7.7241  C.ar    1  <O>11      -0.0609
  13 C10      -3.4544    -6.8602    -7.1353  C.ar    1  <O>11      -0.0582
  14 C11      -2.7882    -6.5288    -5.9508  C.ar    1  <O>11      -0.0409
  15 C12      -3.0298    -5.2113    -5.3316  C.3     1  <O>11       0.0168
  16 C13      -2.6444    -4.1379    -6.2841  C.ar    1  <O>11       0.0693
  17 N2       -2.3439    -4.4542    -7.6042  N.ar    1  <O>11      -0.1753
  18 N3       -1.9922    -3.4798    -8.4796  N.ar    1  <O>11      -0.2427
  19 C14      -1.9274    -2.1970    -8.0635  C.ar    1  <O>11       0.2682
  20 O2       -1.5741    -1.2307    -9.0247  O.2     1  <O>11      -0.2661
  21 C15      -2.1909    -1.8087    -6.7509  C.ar    1  <O>11       0.0232
  22 C16      -2.5855    -2.8135    -5.8536  C.ar    1  <O>11      -0.0158
  23 C17      -2.8932    -2.5262    -4.4080  C.3     1  <O>11      -0.0255
  24 C18      -3.1520    -1.0473    -4.1349  C.3     1  <O>11      -0.0487
  25 C19      -2.0755    -0.1946    -4.7897  C.3     1  <O>11      -0.0486
  26 C20      -2.1026    -0.3708    -6.3089  C.3     1  <O>11      -0.0222
  27 C21      -1.9031    -7.4288    -5.3532  C.ar    1  <O>11      -0.0505
  28 C22       0.5801    -9.2441    -5.1802  C.ar    1  <O>11      -0.0418
  29 H1        4.4990    -9.9410    -3.1660  H       1  <O>11       0.1882
  30 H2       -2.4351    -5.1222    -4.4227  H       1  <O>11       0.0377
  31 H3       -4.0872    -5.1142    -5.0843  H       1  <O>11       0.0377
  32 H4       -1.7817    -3.7184    -9.4380  H       1  <O>11       0.1921
  33 H5       -3.7809    -3.0918    -4.1234  H       1  <O>11       0.0314
  34 H6       -2.0472    -2.8482    -3.8022  H       1  <O>11       0.0314
  35 H7       -4.1250    -0.7711    -4.5401  H       1  <O>11       0.0268
  36 H8       -3.1426    -0.8729    -3.0588  H       1  <O>11       0.0268
  37 H9       -2.2514     0.8546    -4.5478  H       1  <O>11       0.0269
  38 H10      -1.0983    -0.4958    -4.4107  H       1  <O>11       0.0269
  39 H11      -2.9673     0.1637    -6.7018  H       1  <O>11       0.0315
  40 H12      -1.1905     0.0599    -6.7216  H       1  <O>11       0.0315
  41 H13       1.6693   -12.0865    -3.7596  H       1  <O>11       0.0625
  42 H14      -0.6655   -12.6936    -4.0704  H       1  <O>11       0.0618
  43 H15      -2.2113   -11.1153    -5.0861  H       1  <O>11       0.0624
  44 H16      -2.1836    -9.9371    -7.5750  H       1  <O>11       0.0624
  45 H17      -3.7198    -8.3590    -8.5967  H       1  <O>11       0.0618
  46 H18      -4.1064    -6.1891    -7.5707  H       1  <O>11       0.0620
  47 H19      -1.4217    -7.1757    -4.4761  H       1  <O>11       0.0626
  48 H20       0.9141    -8.3127    -5.4733  H       1  <O>11       0.0631
@<TRIPOS>BOND
     1     1     2    2
     2     2     3   am
     3     3     4    1
     4     2     5    1
     5     5     6   ar
     6     6     7   ar
     7     7     8   ar
     8     8     9   ar
     9     9    10    1
    10    10    11   ar
    11    11    12   ar
    12    12    13   ar
    13    13    14   ar
    14    14    15    1
    15    15    16    1
    16    16    17   ar
    17    17    18   ar
    18    18    19   ar
    19    19    20    2
    20    19    21   ar
    21    21    22   ar
    22    16    22   ar
    23    22    23    1
    24    23    24    1
    25    24    25    1
    26    25    26    1
    27    21    26    1
    28    14    27   ar
    29    10    27   ar
    30     9    28   ar
    31     5    28   ar
    32     3    29    1
    33    15    30    1
    34    15    31    1
    35    18    32    1
    36    23    33    1
    37    23    34    1
    38    24    35    1
    39    24    36    1
    40    25    37    1
    41    25    38    1
    42    26    39    1
    43    26    40    1
    44     6    41    1
    45     7    42    1
    46     8    43    1
    47    11    44    1
    48    12    45    1
    49    13    46    1
    50    27    47    1
    51    28    48    1
@<TRIPOS>MOLECULE
mol80_1_7
 48 51 0 0 0
SMALL
USER_CHARGES
****
VDW energy = 20.33
@<TRIPOS>ATOM
   1 O1        3.4420    -9.1855    -5.2979  O.2     1  <O>11      -0.2679
   2 C1        2.8552    -9.8129    -4.4288  C.2     1  <O>11       0.2706
   3 N1        3.5160   -10.1860    -3.2900  N.am    1  <O>11      -0.1481
   4 F1        2.8250   -10.9250    -2.2650  F       1  <O>11      -0.1090
   5 C2        1.4620   -10.1610    -4.6040  C.ar    1  <O>11       0.0395
   6 C3        1.1306   -11.3698    -5.2192  C.ar    1  <O>11      -0.0495
   7 C4       -0.2153   -11.7066    -5.4026  C.ar    1  <O>11      -0.0605
   8 C5       -1.2229   -10.8409    -4.9699  C.ar    1  <O>11      -0.0540
   9 C6       -0.8747    -9.6351    -4.3496  C.ar    1  <O>11      -0.0172
  10 C7       -1.9074    -8.7555    -3.9094  C.ar    1  <O>11      -0.0176
  11 C8       -1.6289    -7.3972    -3.6776  C.ar    1  <O>11      -0.0540
  12 C9       -2.6405    -6.5378    -3.2339  C.ar    1  <O>11      -0.0609
  13 C10      -3.9340    -7.0214    -3.0209  C.ar    1  <O>11      -0.0582
  14 C11      -4.2110    -8.3719    -3.2578  C.ar    1  <O>11      -0.0409
  15 C12      -5.5788    -8.8780    -3.0332  C.3     1  <O>11       0.0168
  16 C13      -6.3675    -8.7475    -4.2857  C.ar    1  <O>11       0.0693
  17 N2       -5.7325    -8.4098    -5.4756  N.ar    1  <O>11      -0.1753
  18 N3       -6.4455    -8.2895    -6.6230  N.ar    1  <O>11      -0.2427
  19 C14      -7.7803    -8.4925    -6.6067  C.ar    1  <O>11       0.2682
  20 O2       -8.4601    -8.3706    -7.8336  O.2     1  <O>11      -0.2661
  21 C15      -8.4874    -8.8095    -5.4479  C.ar    1  <O>11       0.0232
  22 C16      -7.7441    -8.9648    -4.2672  C.ar    1  <O>11      -0.0158
  23 C17      -8.3887    -9.3010    -2.9487  C.3     1  <O>11      -0.0255
  24 C18      -9.7988    -9.8645    -3.0997  C.3     1  <O>11      -0.0487
  25 C19     -10.6088    -9.0064    -4.0601  C.3     1  <O>11      -0.0486
  26 C20      -9.9792    -9.0222    -5.4541  C.3     1  <O>11      -0.0222
  27 C21      -3.2107    -9.2389    -3.7031  C.ar    1  <O>11      -0.0505
  28 C22       0.4636    -9.2913    -4.1600  C.ar    1  <O>11      -0.0418
  29 H1        4.4990    -9.9410    -3.1660  H       1  <O>11       0.1882
  30 H2       -6.0548    -8.3001    -2.2413  H       1  <O>11       0.0377
  31 H3       -5.5347    -9.9273    -2.7402  H       1  <O>11       0.0377
  32 H4       -5.9747    -8.0500    -7.4836  H       1  <O>11       0.1921
  33 H5       -7.7717   -10.0425    -2.4404  H       1  <O>11       0.0314
  34 H6       -8.4395    -8.3952    -2.3460  H       1  <O>11       0.0314
  35 H7       -9.7409   -10.8810    -3.4876  H       1  <O>11       0.0268
  36 H8      -10.2890    -9.8734    -2.1260  H       1  <O>11       0.0268
  37 H9      -11.6253    -9.3977    -4.1219  H       1  <O>11       0.0269
  38 H10     -10.6363    -7.9809    -3.6901  H       1  <O>11       0.0269
  39 H11     -10.1873    -9.9878    -5.9145  H       1  <O>11       0.0315
  40 H12     -10.4365    -8.2304    -6.0472  H       1  <O>11       0.0315
  41 H13       1.8739   -12.0113    -5.5368  H       1  <O>11       0.0625
  42 H14      -0.4644   -12.5978    -5.8593  H       1  <O>11       0.0618
  43 H15      -2.2155   -11.0882    -5.1063  H       1  <O>11       0.0624
  44 H16      -0.6763    -7.0329    -3.8350  H       1  <O>11       0.0624
  45 H17      -2.4300    -5.5420    -3.0632  H       1  <O>11       0.0618
  46 H18      -4.6789    -6.3876    -2.6915  H       1  <O>11       0.0620
  47 H19      -3.4281   -10.2321    -3.8802  H       1  <O>11       0.0626
  48 H20       0.7134    -8.4037    -3.6966  H       1  <O>11       0.0631
@<TRIPOS>BOND
     1     1     2    2
     2     2     3   am
     3     3     4    1
     4     2     5    1
     5     5     6   ar
     6     6     7   ar
     7     7     8   ar
     8     8     9   ar
     9     9    10    1
    10    10    11   ar
    11    11    12   ar
    12    12    13   ar
    13    13    14   ar
    14    14    15    1
    15    15    16    1
    16    16    17   ar
    17    17    18   ar
    18    18    19   ar
    19    19    20    2
    20    19    21   ar
    21    21    22   ar
    22    16    22   ar
    23    22    23    1
    24    23    24    1
    25    24    25    1
    26    25    26    1
    27    21    26    1
    28    14    27   ar
    29    10    27   ar
    30     9    28   ar
    31     5    28   ar
    32     3    29    1
    33    15    30    1
    34    15    31    1
    35    18    32    1
    36    23    33    1
    37    23    34    1
    38    24    35    1
    39    24    36    1
    40    25    37    1
    41    25    38    1
    42    26    39    1
    43    26    40    1
    44     6    41    1
    45     7    42    1
    46     8    43    1
    47    11    44    1
    48    12    45    1
    49    13    46    1
    50    27    47    1
    51    28    48    1
@<TRIPOS>MOLECULE
mol80_1_8
 48 51 0 0 0
SMALL
USER_CHARGES
****
VDW energy = 21.24
@<TRIPOS>ATOM
   1 O1        3.4420    -9.1855    -5.2979  O.2     1  <O>11      -0.2679
   2 C1        2.8552    -9.8129    -4.4288  C.2     1  <O>11       0.2706
   3 N1        3.5160   -10.1860    -3.2900  N.am    1  <O>11      -0.1481
   4 F1        4.9030    -9.8396    -3.1152  F       1  <O>11      -0.1090
   5 C2        1.4620   -10.1610    -4.6040  C.ar    1  <O>11       0.0395
   6 C3        0.4750    -9.2817    -4.1546  C.ar    1  <O>11      -0.0495
   7 C4       -0.8745    -9.6183    -4.3101  C.ar    1  <O>11      -0.0605
   8 C5       -1.2337   -10.8255    -4.9148  C.ar    1  <O>11      -0.0540
   9 C6       -0.2326   -11.6941    -5.3653  C.ar    1  <O>11      -0.0172
  10 C7       -0.6050   -12.9248    -5.9823  C.ar    1  <O>11      -0.0176
  11 C8       -0.8028   -12.9880    -7.3726  C.ar    1  <O>11      -0.0540
  12 C9       -1.1801   -14.1936    -7.9751  C.ar    1  <O>11      -0.0609
  13 C10      -1.3601   -15.3430    -7.2012  C.ar    1  <O>11      -0.0582
  14 C11      -1.1570   -15.2799    -5.8186  C.ar    1  <O>11      -0.0409
  15 C12      -1.3466   -16.4966    -5.0054  C.3     1  <O>11       0.0168
  16 C13      -2.7452   -16.9771    -5.1511  C.ar    1  <O>11       0.0693
  17 N2       -3.5754   -16.4190    -6.1166  N.ar    1  <O>11      -0.1753
  18 N3       -4.8528   -16.8529    -6.2561  N.ar    1  <O>11      -0.2427
  19 C14      -5.3213   -17.8276    -5.4476  C.ar    1  <O>11       0.2682
  20 O2       -6.6495   -18.2462    -5.6551  O.2     1  <O>11      -0.2661
  21 C15      -4.5551   -18.4160    -4.4426  C.ar    1  <O>11       0.0232
  22 C16      -3.2237   -17.9885    -4.3200  C.ar    1  <O>11      -0.0158
  23 C17      -2.2942   -18.5410    -3.2722  C.3     1  <O>11      -0.0255
  24 C18      -2.7813   -19.8590    -2.6769  C.3     1  <O>11      -0.0487
  25 C19      -4.2526   -19.7563    -2.3032  C.3     1  <O>11      -0.0486
  26 C20      -5.1044   -19.4962    -3.5468  C.3     1  <O>11      -0.0222
  27 C21      -0.7780   -14.0834    -5.2061  C.ar    1  <O>11      -0.0505
  28 C22       1.1151   -11.3668    -5.2172  C.ar    1  <O>11      -0.0418
  29 H1        3.0266   -10.7100    -2.5636  H       1  <O>11       0.1882
  30 H2       -1.1472   -16.2689    -3.9585  H       1  <O>11       0.0377
  31 H3       -0.6596   -17.2719    -5.3454  H       1  <O>11       0.0377
  32 H4       -5.4465   -16.4459    -6.9643  H       1  <O>11       0.1921
  33 H5       -1.3175   -18.7063    -3.7277  H       1  <O>11       0.0314
  34 H6       -2.2022   -17.8105    -2.4696  H       1  <O>11       0.0314
  35 H7       -2.6513   -20.6550    -3.4094  H       1  <O>11       0.0268
  36 H8       -2.1994   -20.0872    -1.7837  H       1  <O>11       0.0268
  37 H9       -4.5717   -20.6909    -1.8398  H       1  <O>11       0.0269
  38 H10      -4.3878   -18.9362    -1.5974  H       1  <O>11       0.0269
  39 H11      -5.1665   -20.4206    -4.1207  H       1  <O>11       0.0315
  40 H12      -6.1025   -19.2005    -3.2245  H       1  <O>11       0.0315
  41 H13       0.7391    -8.3884    -3.7103  H       1  <O>11       0.0625
  42 H14      -1.6070    -8.9723    -3.9769  H       1  <O>11       0.0618
  43 H15      -2.2287   -11.0748    -5.0282  H       1  <O>11       0.0624
  44 H16      -0.6694   -12.1435    -7.9505  H       1  <O>11       0.0624
  45 H17      -1.3261   -14.2339    -8.9960  H       1  <O>11       0.0618
  46 H18      -1.6406   -16.2310    -7.6459  H       1  <O>11       0.0620
  47 H19      -0.6253   -14.0502    -4.1859  H       1  <O>11       0.0626
  48 H20       1.8481   -12.0089    -5.5570  H       1  <O>11       0.0631
@<TRIPOS>BOND
     1     1     2    2
     2     2     3   am
     3     3     4    1
     4     2     5    1
     5     5     6   ar
     6     6     7   ar
     7     7     8   ar
     8     8     9   ar
     9     9    10    1
    10    10    11   ar
    11    11    12   ar
    12    12    13   ar
    13    13    14   ar
    14    14    15    1
    15    15    16    1
    16    16    17   ar
    17    17    18   ar
    18    18    19   ar
    19    19    20    2
    20    19    21   ar
    21    21    22   ar
    22    16    22   ar
    23    22    23    1
    24    23    24    1
    25    24    25    1
    26    25    26    1
    27    21    26    1
    28    14    27   ar
    29    10    27   ar
    30     9    28   ar
    31     5    28   ar
    32     3    29    1
    33    15    30    1
    34    15    31    1
    35    18    32    1
    36    23    33    1
    37    23    34    1
    38    24    35    1
    39    24    36    1
    40    25    37    1
    41    25    38    1
    42    26    39    1
    43    26    40    1
    44     6    41    1
    45     7    42    1
    46     8    43    1
    47    11    44    1
    48    12    45    1
    49    13    46    1
    50    27    47    1
    51    28    48    1
@<TRIPOS>MOLECULE
mol80_1_9
 48 51 0 0 0
SMALL
USER_CHARGES
****
VDW energy = 23.00
@<TRIPOS>ATOM
   1 O1        3.4420    -9.1855    -5.2979  O.2     1  <O>11      -0.2679
   2 C1        2.8552    -9.8129    -4.4288  C.2     1  <O>11       0.2706
   3 N1        3.5160   -10.1860    -3.2900  N.am    1  <O>11      -0.1481
   4 F1        4.9030    -9.8396    -3.1152  F       1  <O>11      -0.1090
   5 C2        1.4620   -10.1610    -4.6040  C.ar    1  <O>11       0.0395
   6 C3        0.4750    -9.2817    -4.1546  C.ar    1  <O>11      -0.0495
   7 C4       -0.8745    -9.6183    -4.3101  C.ar    1  <O>11      -0.0605
   8 C5       -1.2337   -10.8255    -4.9148  C.ar    1  <O>11      -0.0540
   9 C6       -0.2326   -11.6941    -5.3653  C.ar    1  <O>11      -0.0172
  10 C7       -0.6050   -12.9248    -5.9823  C.ar    1  <O>11      -0.0176
  11 C8       -1.3648   -13.8708    -5.2723  C.ar    1  <O>11      -0.0540
  12 C9       -1.7193   -15.0833    -5.8749  C.ar    1  <O>11      -0.0609
  13 C10      -1.3239   -15.3616    -7.1859  C.ar    1  <O>11      -0.0582
  14 C11      -0.5731   -14.4167    -7.8931  C.ar    1  <O>11      -0.0409
  15 C12      -0.1592   -14.7141    -9.2779  C.3     1  <O>11       0.0168
  16 C13       0.6823   -15.9388    -9.2915  C.ar    1  <O>11       0.0693
  17 N2        0.7896   -16.7218    -8.1477  N.ar    1  <O>11      -0.1753
  18 N3        1.5550   -17.8414    -8.1526  N.ar    1  <O>11      -0.2427
  19 C14       2.2213   -18.1924    -9.2733  C.ar    1  <O>11       0.2682
  20 O2        2.9838   -19.3748    -9.2193  O.2     1  <O>11      -0.2661
  21 C15       2.1806   -17.4437   -10.4485  C.ar    1  <O>11       0.0232
  22 C16       1.3631   -16.3026   -10.4520  C.ar    1  <O>11      -0.0158
  23 C17       1.2365   -15.4069   -11.6557  C.3     1  <O>11      -0.0255
  24 C18       1.7096   -16.0701   -12.9461  C.3     1  <O>11      -0.0487
  25 C19       3.0575   -16.7418   -12.7296  C.3     1  <O>11      -0.0486
  26 C20       2.9411   -17.8520   -11.6837  C.3     1  <O>11      -0.0222
  27 C21      -0.2153   -13.2022    -7.3036  C.ar    1  <O>11      -0.0505
  28 C22       1.1151   -11.3668    -5.2172  C.ar    1  <O>11      -0.0418
  29 H1        3.0266   -10.7100    -2.5636  H       1  <O>11       0.1882
  30 H2        0.4124   -13.8753    -9.6747  H       1  <O>11       0.0377
  31 H3       -1.0434   -14.8749    -9.8951  H       1  <O>11       0.0377
  32 H4        1.6219   -18.4072    -7.3189  H       1  <O>11       0.1921
  33 H5        0.1887   -15.1293   -11.7725  H       1  <O>11       0.0314
  34 H6        1.8333   -14.5116   -11.4865  H       1  <O>11       0.0314
  35 H7        0.9805   -16.8187   -13.2546  H       1  <O>11       0.0268
  36 H8        1.8068   -15.3135   -13.7249  H       1  <O>11       0.0268
  37 H9        3.4000   -17.1720   -13.6718  H       1  <O>11       0.0269
  38 H10       3.7782   -15.9990   -12.3862  H       1  <O>11       0.0269
  39 H11       2.4296   -18.7003   -12.1381  H       1  <O>11       0.0315
  40 H12       3.9459   -18.1503   -11.3854  H       1  <O>11       0.0315
  41 H13       0.7391    -8.3884    -3.7103  H       1  <O>11       0.0625
  42 H14      -1.6070    -8.9723    -3.9769  H       1  <O>11       0.0618
  43 H15      -2.2287   -11.0748    -5.0282  H       1  <O>11       0.0624
  44 H16      -1.6620   -13.6708    -4.3045  H       1  <O>11       0.0624
  45 H17      -2.2753   -15.7751    -5.3484  H       1  <O>11       0.0618
  46 H18      -1.5837   -16.2569    -7.6287  H       1  <O>11       0.0620
  47 H19       0.3339   -12.5102    -7.8371  H       1  <O>11       0.0626
  48 H20       1.8481   -12.0089    -5.5570  H       1  <O>11       0.0631
@<TRIPOS>BOND
     1     1     2    2
     2     2     3   am
     3     3     4    1
     4     2     5    1
     5     5     6   ar
     6     6     7   ar
     7     7     8   ar
     8     8     9   ar
     9     9    10    1
    10    10    11   ar
    11    11    12   ar
    12    12    13   ar
    13    13    14   ar
    14    14    15    1
    15    15    16    1
    16    16    17   ar
    17    17    18   ar
    18    18    19   ar
    19    19    20    2
    20    19    21   ar
    21    21    22   ar
    22    16    22   ar
    23    22    23    1
    24    23    24    1
    25    24    25    1
    26    25    26    1
    27    21    26    1
    28    14    27   ar
    29    10    27   ar
    30     9    28   ar
    31     5    28   ar
    32     3    29    1
    33    15    30    1
    34    15    31    1
    35    18    32    1
    36    23    33    1
    37    23    34    1
    38    24    35    1
    39    24    36    1
    40    25    37    1
    41    25    38    1
    42    26    39    1
    43    26    40    1
    44     6    41    1
    45     7    42    1
    46     8    43    1
    47    11    44    1
    48    12    45    1
    49    13    46    1
    50    27    47    1
    51    28    48    1
@<TRIPOS>MOLECULE
mol80_1_10
 48 51 0 0 0
SMALL
USER_CHARGES
****
VDW energy = 23.38
@<TRIPOS>ATOM
   1 O1        3.4420    -9.1855    -5.2979  O.2     1  <O>11      -0.2679
   2 C1        2.8552    -9.8129    -4.4288  C.2     1  <O>11       0.2706
   3 N1        3.5160   -10.1860    -3.2900  N.am    1  <O>11      -0.1481
   4 F1        2.8250   -10.9250    -2.2650  F       1  <O>11      -0.1090
   5 C2        1.4620   -10.1610    -4.6040  C.ar    1  <O>11       0.0395
   6 C3        0.6998    -9.4775    -5.5533  C.ar    1  <O>11      -0.0495
   7 C4       -0.6516    -9.8011    -5.7190  C.ar    1  <O>11      -0.0605
   8 C5       -1.2354   -10.8050    -4.9421  C.ar    1  <O>11      -0.0540
   9 C6       -0.4567   -11.4852    -3.9984  C.ar    1  <O>11      -0.0172
  10 C7       -1.0576   -12.5093    -3.2085  C.ar    1  <O>11      -0.0176
  11 C8       -2.1450   -12.2095    -2.3694  C.ar    1  <O>11      -0.0540
  12 C9       -2.7260   -13.2130    -1.5856  C.ar    1  <O>11      -0.0609
  13 C10      -2.2326   -14.5195    -1.6329  C.ar    1  <O>11      -0.0582
  14 C11      -1.1545   -14.8175    -2.4729  C.ar    1  <O>11      -0.0409
  15 C12      -0.6379   -16.1989    -2.5210  C.3     1  <O>11       0.0168
  16 C13      -1.3559   -16.9602    -3.5759  C.ar    1  <O>11       0.0693
  17 N2       -2.1911   -16.2956    -4.4669  N.ar    1  <O>11      -0.1753
  18 N3       -2.8492   -16.9835    -5.4329  N.ar    1  <O>11      -0.2427
  19 C14      -2.6967   -18.3219    -5.5241  C.ar    1  <O>11       0.2682
  20 O2       -3.3924   -18.9750    -6.5594  O.2     1  <O>11      -0.2661
  21 C15      -1.8962   -19.0576    -4.6516  C.ar    1  <O>11       0.0232
  22 C16      -1.1909   -18.3408    -3.6723  C.ar    1  <O>11      -0.0158
  23 C17      -0.2975   -19.0175    -2.6668  C.3     1  <O>11      -0.0255
  24 C18       0.0943   -20.4349    -3.0745  C.3     1  <O>11      -0.0487
  25 C19      -1.1326   -21.2093    -3.5327  C.3     1  <O>11      -0.0486
  26 C20      -1.7498   -20.5528    -4.7688  C.3     1  <O>11      -0.0222
  27 C21      -0.5679   -13.8254    -3.2616  C.ar    1  <O>11      -0.0505
  28 C22       0.8916   -11.1718    -3.8272  C.ar    1  <O>11      -0.0418
  29 H1        4.4990    -9.9410    -3.1660  H       1  <O>11       0.1882
  30 H2       -0.7940   -16.6793    -1.5553  H       1  <O>11       0.0377
  31 H3        0.4281   -16.1806    -2.7490  H       1  <O>11       0.0377
  32 H4       -3.4487   -16.4913    -6.0794  H       1  <O>11       0.1921
  33 H5        0.6111   -18.4250    -2.5562  H       1  <O>11       0.0314
  34 H6       -0.8205   -19.0628    -1.7125  H       1  <O>11       0.0314
  35 H7        0.8154   -20.3888    -3.8900  H       1  <O>11       0.0268
  36 H8        0.5418   -20.9442    -2.2208  H       1  <O>11       0.0268
  37 H9       -0.8414   -22.2316    -3.7780  H       1  <O>11       0.0269
  38 H10      -1.8690   -21.2245    -2.7286  H       1  <O>11       0.0269
  39 H11      -1.1144   -20.7702    -5.6271  H       1  <O>11       0.0315
  40 H12      -2.7381   -20.9831    -4.9296  H       1  <O>11       0.0315
  41 H13       1.1306    -8.7377    -6.1297  H       1  <O>11       0.0625
  42 H14      -1.2191    -9.2964    -6.4177  H       1  <O>11       0.0618
  43 H15      -2.2323   -11.0429    -5.0628  H       1  <O>11       0.0624
  44 H16      -2.5157   -11.2472    -2.3312  H       1  <O>11       0.0624
  45 H17      -3.5226   -12.9869    -0.9697  H       1  <O>11       0.0618
  46 H18      -2.6601   -15.2584    -1.0529  H       1  <O>11       0.0620
  47 H19       0.2233   -14.0582    -3.8820  H       1  <O>11       0.0626
  48 H20       1.4615   -11.6813    -3.1340  H       1  <O>11       0.0631
@<TRIPOS>BOND
     1     1     2    2
     2     2     3   am
     3     3     4    1
     4     2     5    1
     5     5     6   ar
     6     6     7   ar
     7     7     8   ar
     8     8     9   ar
     9     9    10    1
    10    10    11   ar
    11    11    12   ar
    12    12    13   ar
    13    13    14   ar
    14    14    15    1
    15    15    16    1
    16    16    17   ar
    17    17    18   ar
    18    18    19   ar
    19    19    20    2
    20    19    21   ar
    21    21    22   ar
    22    16    22   ar
    23    22    23    1
    24    23    24    1
    25    24    25    1
    26    25    26    1
    27    21    26    1
    28    14    27   ar
    29    10    27   ar
    30     9    28   ar
    31     5    28   ar
    32     3    29    1
    33    15    30    1
    34    15    31    1
    35    18    32    1
    36    23    33    1
    37    23    34    1
    38    24    35    1
    39    24    36    1
    40    25    37    1
    41    25    38    1
    42    26    39    1
    43    26    40    1
    44     6    41    1
    45     7    42    1
    46     8    43    1
    47    11    44    1
    48    12    45    1
    49    13    46    1
    50    27    47    1
    51    28    48    1
@<TRIPOS>MOLECULE
mol80_1_11
 48 51 0 0 0
SMALL
USER_CHARGES
****
VDW energy = 23.84
@<TRIPOS>ATOM
   1 O1        3.4420    -9.1855    -5.2979  O.2     1  <O>11      -0.2679
   2 C1        2.8552    -9.8129    -4.4288  C.2     1  <O>11       0.2706
   3 N1        3.5160   -10.1860    -3.2900  N.am    1  <O>11      -0.1481
   4 F1        4.9030    -9.8396    -3.1152  F       1  <O>11      -0.1090
   5 C2        1.4620   -10.1610    -4.6040  C.ar    1  <O>11       0.0395
   6 C3        0.6998    -9.4775    -5.5533  C.ar    1  <O>11      -0.0495
   7 C4       -0.6516    -9.8011    -5.7190  C.ar    1  <O>11      -0.0605
   8 C5       -1.2354   -10.8050    -4.9421  C.ar    1  <O>11      -0.0540
   9 C6       -0.4567   -11.4852    -3.9984  C.ar    1  <O>11      -0.0172
  10 C7       -1.0576   -12.5093    -3.2085  C.ar    1  <O>11      -0.0176
  11 C8       -2.1450   -12.2095    -2.3694  C.ar    1  <O>11      -0.0540
  12 C9       -2.7260   -13.2130    -1.5856  C.ar    1  <O>11      -0.0609
  13 C10      -2.2326   -14.5195    -1.6329  C.ar    1  <O>11      -0.0582
  14 C11      -1.1545   -14.8175    -2.4729  C.ar    1  <O>11      -0.0409
  15 C12      -0.6379   -16.1989    -2.5210  C.3     1  <O>11       0.0168
  16 C13      -1.3559   -16.9602    -3.5759  C.ar    1  <O>11       0.0693
  17 N2       -2.1911   -16.2956    -4.4669  N.ar    1  <O>11      -0.1753
  18 N3       -2.8492   -16.9835    -5.4329  N.ar    1  <O>11      -0.2427
  19 C14      -2.6967   -18.3219    -5.5241  C.ar    1  <O>11       0.2682
  20 O2       -3.3924   -18.9750    -6.5594  O.2     1  <O>11      -0.2661
  21 C15      -1.8962   -19.0576    -4.6516  C.ar    1  <O>11       0.0232
  22 C16      -1.1909   -18.3408    -3.6723  C.ar    1  <O>11      -0.0158
  23 C17      -0.2975   -19.0175    -2.6668  C.3     1  <O>11      -0.0255
  24 C18       0.0943   -20.4349    -3.0745  C.3     1  <O>11      -0.0487
  25 C19      -1.1326   -21.2093    -3.5327  C.3     1  <O>11      -0.0486
  26 C20      -1.7498   -20.5528    -4.7688  C.3     1  <O>11      -0.0222
  27 C21      -0.5679   -13.8254    -3.2616  C.ar    1  <O>11      -0.0505
  28 C22       0.8916   -11.1718    -3.8272  C.ar    1  <O>11      -0.0418
  29 H1        3.0266   -10.7100    -2.5636  H       1  <O>11       0.1882
  30 H2       -0.7940   -16.6793    -1.5553  H       1  <O>11       0.0377
  31 H3        0.4281   -16.1806    -2.7490  H       1  <O>11       0.0377
  32 H4       -3.4487   -16.4913    -6.0794  H       1  <O>11       0.1921
  33 H5        0.6111   -18.4250    -2.5562  H       1  <O>11       0.0314
  34 H6       -0.8205   -19.0628    -1.7125  H       1  <O>11       0.0314
  35 H7        0.8154   -20.3888    -3.8900  H       1  <O>11       0.0268
  36 H8        0.5418   -20.9442    -2.2208  H       1  <O>11       0.0268
  37 H9       -0.8414   -22.2316    -3.7780  H       1  <O>11       0.0269
  38 H10      -1.8690   -21.2245    -2.7286  H       1  <O>11       0.0269
  39 H11      -1.1144   -20.7702    -5.6271  H       1  <O>11       0.0315
  40 H12      -2.7381   -20.9831    -4.9296  H       1  <O>11       0.0315
  41 H13       1.1306    -8.7377    -6.1297  H       1  <O>11       0.0625
  42 H14      -1.2191    -9.2964    -6.4177  H       1  <O>11       0.0618
  43 H15      -2.2323   -11.0429    -5.0628  H       1  <O>11       0.0624
  44 H16      -2.5157   -11.2472    -2.3312  H       1  <O>11       0.0624
  45 H17      -3.5226   -12.9869    -0.9697  H       1  <O>11       0.0618
  46 H18      -2.6601   -15.2584    -1.0529  H       1  <O>11       0.0620
  47 H19       0.2233   -14.0582    -3.8820  H       1  <O>11       0.0626
  48 H20       1.4615   -11.6813    -3.1340  H       1  <O>11       0.0631
@<TRIPOS>BOND
     1     1     2    2
     2     2     3   am
     3     3     4    1
     4     2     5    1
     5     5     6   ar
     6     6     7   ar
     7     7     8   ar
     8     8     9   ar
     9     9    10    1
    10    10    11   ar
    11    11    12   ar
    12    12    13   ar
    13    13    14   ar
    14    14    15    1
    15    15    16    1
    16    16    17   ar
    17    17    18   ar
    18    18    19   ar
    19    19    20    2
    20    19    21   ar
    21    21    22   ar
    22    16    22   ar
    23    22    23    1
    24    23    24    1
    25    24    25    1
    26    25    26    1
    27    21    26    1
    28    14    27   ar
    29    10    27   ar
    30     9    28   ar
    31     5    28   ar
    32     3    29    1
    33    15    30    1
    34    15    31    1
    35    18    32    1
    36    23    33    1
    37    23    34    1
    38    24    35    1
    39    24    36    1
    40    25    37    1
    41    25    38    1
    42    26    39    1
    43    26    40    1
    44     6    41    1
    45     7    42    1
    46     8    43    1
    47    11    44    1
    48    12    45    1
    49    13    46    1
    50    27    47    1
    51    28    48    1
@<TRIPOS>MOLECULE
mol80_1_12
 48 51 0 0 0
SMALL
USER_CHARGES
****
VDW energy = 24.25
@<TRIPOS>ATOM
   1 O1        3.4420    -9.1855    -5.2979  O.2     1  <O>11      -0.2679
   2 C1        2.8552    -9.8129    -4.4288  C.2     1  <O>11       0.2706
   3 N1        3.5160   -10.1860    -3.2900  N.am    1  <O>11      -0.1481
   4 F1        4.9030    -9.8396    -3.1152  F       1  <O>11      -0.1090
   5 C2        1.4620   -10.1610    -4.6040  C.ar    1  <O>11       0.0395
   6 C3        1.0134   -11.4175    -4.1926  C.ar    1  <O>11      -0.0495
   7 C4       -0.3305   -11.7649    -4.3706  C.ar    1  <O>11      -0.0605
   8 C5       -1.2205   -10.8590    -4.9532  C.ar    1  <O>11      -0.0540
   9 C6       -0.7568    -9.6008    -5.3553  C.ar    1  <O>11      -0.0172
  10 C7       -1.6698    -8.6799    -5.9490  C.ar    1  <O>11      -0.0176
  11 C8       -1.8603    -8.6707    -7.3417  C.ar    1  <O>11      -0.0540
  12 C9       -2.7475    -7.7582    -7.9241  C.ar    1  <O>11      -0.0609
  13 C10      -3.4521    -6.8525    -7.1269  C.ar    1  <O>11      -0.0582
  14 C11      -3.2660    -6.8670    -5.7405  C.ar    1  <O>11      -0.0409
  15 C12      -4.0135    -5.9098    -4.9023  C.3     1  <O>11       0.0168
  16 C13      -3.6680    -4.5222    -5.3062  C.ar    1  <O>11       0.0693
  17 N2       -2.9288    -4.2979    -6.4622  N.ar    1  <O>11      -0.1753
  18 N3       -2.6102    -3.0341    -6.8377  N.ar    1  <O>11      -0.2427
  19 C14      -3.0081    -1.9898    -6.0801  C.ar    1  <O>11       0.2682
  20 O2       -2.6613    -0.7028    -6.5337  O.2     1  <O>11      -0.2661
  21 C15      -3.7300    -2.1395    -4.8970  C.ar    1  <O>11       0.0232
  22 C16      -4.0863    -3.4456    -4.5260  C.ar    1  <O>11      -0.0158
  23 C17      -4.8605    -3.7425    -3.2692  C.3     1  <O>11      -0.0255
  24 C18      -5.5669    -2.5159    -2.6991  C.3     1  <O>11      -0.0487
  25 C19      -4.6122    -1.3321    -2.6532  C.3     1  <O>11      -0.0486
  26 C20      -4.1545    -0.9578    -4.0639  C.3     1  <O>11      -0.0222
  27 C21      -2.3854    -7.7743    -5.1474  C.ar    1  <O>11      -0.0505
  28 C22       0.5801    -9.2441    -5.1802  C.ar    1  <O>11      -0.0418
  29 H1        3.0266   -10.7100    -2.5636  H       1  <O>11       0.1882
  30 H2       -3.7503    -6.0605    -3.8555  H       1  <O>11       0.0377
  31 H3       -5.0839    -6.0699    -5.0340  H       1  <O>11       0.0377
  32 H4       -2.0783    -2.8807    -7.6823  H       1  <O>11       0.1921
  33 H5       -5.6107    -4.5008    -3.4952  H       1  <O>11       0.0314
  34 H6       -4.1705    -4.1258    -2.5187  H       1  <O>11       0.0314
  35 H7       -6.4194    -2.2656    -3.3298  H       1  <O>11       0.0268
  36 H8       -5.9132    -2.7369    -1.6893  H       1  <O>11       0.0268
  37 H9       -5.1201    -0.4780    -2.2031  H       1  <O>11       0.0269
  38 H10      -3.7418    -1.5955    -2.0513  H       1  <O>11       0.0269
  39 H11      -4.9789    -0.4573    -4.5715  H       1  <O>11       0.0315
  40 H12      -3.3095    -0.2745    -3.9815  H       1  <O>11       0.0315
  41 H13       1.6693   -12.0865    -3.7596  H       1  <O>11       0.0625
  42 H14      -0.6655   -12.6936    -4.0704  H       1  <O>11       0.0618
  43 H15      -2.2113   -11.1153    -5.0861  H       1  <O>11       0.0624
  44 H16      -1.3448    -9.3383    -7.9363  H       1  <O>11       0.0624
  45 H17      -2.8820    -7.7543    -8.9473  H       1  <O>11       0.0618
  46 H18      -4.1044    -6.1784    -7.5572  H       1  <O>11       0.0620
  47 H19      -2.2606    -7.7797    -4.1229  H       1  <O>11       0.0626
  48 H20       0.9141    -8.3127    -5.4733  H       1  <O>11       0.0631
@<TRIPOS>BOND
     1     1     2    2
     2     2     3   am
     3     3     4    1
     4     2     5    1
     5     5     6   ar
     6     6     7   ar
     7     7     8   ar
     8     8     9   ar
     9     9    10    1
    10    10    11   ar
    11    11    12   ar
    12    12    13   ar
    13    13    14   ar
    14    14    15    1
    15    15    16    1
    16    16    17   ar
    17    17    18   ar
    18    18    19   ar
    19    19    20    2
    20    19    21   ar
    21    21    22   ar
    22    16    22   ar
    23    22    23    1
    24    23    24    1
    25    24    25    1
    26    25    26    1
    27    21    26    1
    28    14    27   ar
    29    10    27   ar
    30     9    28   ar
    31     5    28   ar
    32     3    29    1
    33    15    30    1
    34    15    31    1
    35    18    32    1
    36    23    33    1
    37    23    34    1
    38    24    35    1
    39    24    36    1
    40    25    37    1
    41    25    38    1
    42    26    39    1
    43    26    40    1
    44     6    41    1
    45     7    42    1
    46     8    43    1
    47    11    44    1
    48    12    45    1
    49    13    46    1
    50    27    47    1
    51    28    48    1
@<TRIPOS>MOLECULE
mol80_1_13
 48 51 0 0 0
SMALL
USER_CHARGES
****
VDW energy = 24.52
@<TRIPOS>ATOM
   1 O1        3.4420    -9.1855    -5.2979  O.2     1  <O>11      -0.2679
   2 C1        2.8552    -9.8129    -4.4288  C.2     1  <O>11       0.2706
   3 N1        3.5160   -10.1860    -3.2900  N.am    1  <O>11      -0.1481
   4 F1        2.8250   -10.9250    -2.2650  F       1  <O>11      -0.1090
   5 C2        1.4620   -10.1610    -4.6040  C.ar    1  <O>11       0.0395
   6 C3        0.6998    -9.4775    -5.5533  C.ar    1  <O>11      -0.0495
   7 C4       -0.6516    -9.8011    -5.7190  C.ar    1  <O>11      -0.0605
   8 C5       -1.2354   -10.8050    -4.9421  C.ar    1  <O>11      -0.0540
   9 C6       -0.4567   -11.4852    -3.9984  C.ar    1  <O>11      -0.0172
  10 C7       -1.0576   -12.5093    -3.2085  C.ar    1  <O>11      -0.0176
  11 C8       -1.6269   -13.6368    -3.8256  C.ar    1  <O>11      -0.0540
  12 C9       -2.2271   -14.6352    -3.0498  C.ar    1  <O>11      -0.0609
  13 C10      -2.2627   -14.5209    -1.6577  C.ar    1  <O>11      -0.0582
  14 C11      -1.6904   -13.4014    -1.0447  C.ar    1  <O>11      -0.0409
  15 C12      -1.7288   -13.2857     0.4259  C.3     1  <O>11       0.0168
  16 C13      -1.0190   -14.4415     1.0327  C.ar    1  <O>11       0.0693
  17 N2       -1.7172   -15.6044     1.3378  N.ar    1  <O>11      -0.1753
  18 N3       -1.0761   -16.6638     1.8910  N.ar    1  <O>11      -0.2427
  19 C14       0.2462   -16.5846     2.1526  C.ar    1  <O>11       0.2682
  20 O2        0.8565   -17.7244     2.7101  O.2     1  <O>11      -0.2661
  21 C15       1.0053   -15.4438     1.8965  C.ar    1  <O>11       0.0232
  22 C16       0.3475   -14.3595     1.2949  C.ar    1  <O>11      -0.0158
  23 C17       1.0526   -13.0689     0.9718  C.3     1  <O>11      -0.0255
  24 C18       2.5723   -13.2067     0.9550  C.3     1  <O>11      -0.0487
  25 C19       3.0469   -13.9571     2.1905  C.3     1  <O>11      -0.0486
  26 C20       2.4785   -15.3771     2.2063  C.3     1  <O>11      -0.0222
  27 C21      -1.0864   -12.3997    -1.8078  C.ar    1  <O>11      -0.0505
  28 C22       0.8916   -11.1718    -3.8272  C.ar    1  <O>11      -0.0418
  29 H1        4.4990    -9.9410    -3.1660  H       1  <O>11       0.1882
  30 H2       -2.7651   -13.2772     0.7630  H       1  <O>11       0.0377
  31 H3       -1.2405   -12.3597     0.7306  H       1  <O>11       0.0377
  32 H4       -1.5903   -17.5065     2.1034  H       1  <O>11       0.1921
  33 H5        0.7243   -12.7312    -0.0115  H       1  <O>11       0.0314
  34 H6        0.7796   -12.3271     1.7211  H       1  <O>11       0.0314
  35 H7        2.8744   -13.7553     0.0633  H       1  <O>11       0.0268
  36 H8        3.0236   -12.2144     0.9425  H       1  <O>11       0.0268
  37 H9        4.1366   -14.0077     2.1838  H       1  <O>11       0.0269
  38 H10       2.7135   -13.4268     3.0832  H       1  <O>11       0.0269
  39 H11       3.0133   -15.9699     1.4645  H       1  <O>11       0.0315
  40 H12       2.6407   -15.8016     3.1968  H       1  <O>11       0.0315
  41 H13       1.1306    -8.7377    -6.1297  H       1  <O>11       0.0625
  42 H14      -1.2191    -9.2964    -6.4177  H       1  <O>11       0.0618
  43 H15      -2.2323   -11.0429    -5.0628  H       1  <O>11       0.0624
  44 H16      -1.6022   -13.7286    -4.8532  H       1  <O>11       0.0624
  45 H17      -2.6454   -15.4597    -3.5083  H       1  <O>11       0.0618
  46 H18      -2.7075   -15.2564    -1.0865  H       1  <O>11       0.0620
  47 H19      -0.6623   -11.5810    -1.3441  H       1  <O>11       0.0626
  48 H20       1.4615   -11.6813    -3.1340  H       1  <O>11       0.0631
@<TRIPOS>BOND
     1     1     2    2
     2     2     3   am
     3     3     4    1
     4     2     5    1
     5     5     6   ar
     6     6     7   ar
     7     7     8   ar
     8     8     9   ar
     9     9    10    1
    10    10    11   ar
    11    11    12   ar
    12    12    13   ar
    13    13    14   ar
    14    14    15    1
    15    15    16    1
    16    16    17   ar
    17    17    18   ar
    18    18    19   ar
    19    19    20    2
    20    19    21   ar
    21    21    22   ar
    22    16    22   ar
    23    22    23    1
    24    23    24    1
    25    24    25    1
    26    25    26    1
    27    21    26    1
    28    14    27   ar
    29    10    27   ar
    30     9    28   ar
    31     5    28   ar
    32     3    29    1
    33    15    30    1
    34    15    31    1
    35    18    32    1
    36    23    33    1
    37    23    34    1
    38    24    35    1
    39    24    36    1
    40    25    37    1
    41    25    38    1
    42    26    39    1
    43    26    40    1
    44     6    41    1
    45     7    42    1
    46     8    43    1
    47    11    44    1
    48    12    45    1
    49    13    46    1
    50    27    47    1
    51    28    48    1
@<TRIPOS>MOLECULE
mol80_1_14
 48 51 0 0 0
SMALL
USER_CHARGES
****
VDW energy = 24.94
@<TRIPOS>ATOM
   1 O1        3.4420    -9.1855    -5.2979  O.2     1  <O>11      -0.2679
   2 C1        2.8552    -9.8129    -4.4288  C.2     1  <O>11       0.2706
   3 N1        3.5160   -10.1860    -3.2900  N.am    1  <O>11      -0.1481
   4 F1        2.8250   -10.9250    -2.2650  F       1  <O>11      -0.1090
   5 C2        1.4620   -10.1610    -4.6040  C.ar    1  <O>11       0.0395
   6 C3        0.6998    -9.4775    -5.5533  C.ar    1  <O>11      -0.0495
   7 C4       -0.6516    -9.8011    -5.7190  C.ar    1  <O>11      -0.0605
   8 C5       -1.2354   -10.8050    -4.9421  C.ar    1  <O>11      -0.0540
   9 C6       -0.4567   -11.4852    -3.9984  C.ar    1  <O>11      -0.0172
  10 C7       -1.0576   -12.5093    -3.2085  C.ar    1  <O>11      -0.0176
  11 C8       -2.1450   -12.2095    -2.3694  C.ar    1  <O>11      -0.0540
  12 C9       -2.7260   -13.2130    -1.5856  C.ar    1  <O>11      -0.0609
  13 C10      -2.2326   -14.5195    -1.6329  C.ar    1  <O>11      -0.0582
  14 C11      -1.1545   -14.8175    -2.4729  C.ar    1  <O>11      -0.0409
  15 C12      -0.6379   -16.1989    -2.5210  C.3     1  <O>11       0.0168
  16 C13      -1.7179   -17.1167    -2.9674  C.ar    1  <O>11       0.0693
  17 N2       -2.5575   -17.7101    -2.0314  N.ar    1  <O>11      -0.1753
  18 N3       -3.5459   -18.5483    -2.4312  N.ar    1  <O>11      -0.2427
  19 C14      -3.7098   -18.8122    -3.7452  C.ar    1  <O>11       0.2682
  20 O2       -4.7650   -19.6757    -4.0966  O.2     1  <O>11      -0.2661
  21 C15      -2.8917   -18.2736    -4.7371  C.ar    1  <O>11       0.0232
  22 C16      -1.8893   -17.3816    -4.3250  C.ar    1  <O>11      -0.0158
  23 C17      -0.9370   -16.7362    -5.2965  C.3     1  <O>11      -0.0255
  24 C18      -1.4253   -16.7968    -6.7410  C.3     1  <O>11      -0.0487
  25 C19      -1.9009   -18.2023    -7.0777  C.3     1  <O>11      -0.0486
  26 C20      -3.0895   -18.5912    -6.1969  C.3     1  <O>11      -0.0222
  27 C21      -0.5679   -13.8254    -3.2616  C.ar    1  <O>11      -0.0505
  28 C22       0.8916   -11.1718    -3.8272  C.ar    1  <O>11      -0.0418
  29 H1        4.4990    -9.9410    -3.1660  H       1  <O>11       0.1882
  30 H2       -0.2962   -16.4940    -1.5291  H       1  <O>11       0.0377
  31 H3        0.1953   -16.2512    -3.2222  H       1  <O>11       0.0377
  32 H4       -4.1548   -18.9697    -1.7446  H       1  <O>11       0.1921
  33 H5       -0.8122   -15.6899    -5.0164  H       1  <O>11       0.0314
  34 H6        0.0230   -17.2467    -5.2328  H       1  <O>11       0.0314
  35 H7       -2.2503   -16.0973    -6.8720  H       1  <O>11       0.0268
  36 H8       -0.6077   -16.5251    -7.4090  H       1  <O>11       0.0268
  37 H9       -2.2046   -18.2378    -8.1249  H       1  <O>11       0.0269
  38 H10      -1.0854   -18.9070    -6.9120  H       1  <O>11       0.0269
  39 H11      -3.9695   -18.0538    -6.5498  H       1  <O>11       0.0315
  40 H12      -3.2545   -19.6639    -6.2956  H       1  <O>11       0.0315
  41 H13       1.1306    -8.7377    -6.1297  H       1  <O>11       0.0625
  42 H14      -1.2191    -9.2964    -6.4177  H       1  <O>11       0.0618
  43 H15      -2.2323   -11.0429    -5.0628  H       1  <O>11       0.0624
  44 H16      -2.5157   -11.2472    -2.3312  H       1  <O>11       0.0624
  45 H17      -3.5226   -12.9869    -0.9697  H       1  <O>11       0.0618
  46 H18      -2.6601   -15.2584    -1.0529  H       1  <O>11       0.0620
  47 H19       0.2233   -14.0582    -3.8820  H       1  <O>11       0.0626
  48 H20       1.4615   -11.6813    -3.1340  H       1  <O>11       0.0631
@<TRIPOS>BOND
     1     1     2    2
     2     2     3   am
     3     3     4    1
     4     2     5    1
     5     5     6   ar
     6     6     7   ar
     7     7     8   ar
     8     8     9   ar
     9     9    10    1
    10    10    11   ar
    11    11    12   ar
    12    12    13   ar
    13    13    14   ar
    14    14    15    1
    15    15    16    1
    16    16    17   ar
    17    17    18   ar
    18    18    19   ar
    19    19    20    2
    20    19    21   ar
    21    21    22   ar
    22    16    22   ar
    23    22    23    1
    24    23    24    1
    25    24    25    1
    26    25    26    1
    27    21    26    1
    28    14    27   ar
    29    10    27   ar
    30     9    28   ar
    31     5    28   ar
    32     3    29    1
    33    15    30    1
    34    15    31    1
    35    18    32    1
    36    23    33    1
    37    23    34    1
    38    24    35    1
    39    24    36    1
    40    25    37    1
    41    25    38    1
    42    26    39    1
    43    26    40    1
    44     6    41    1
    45     7    42    1
    46     8    43    1
    47    11    44    1
    48    12    45    1
    49    13    46    1
    50    27    47    1
    51    28    48    1
@<TRIPOS>MOLECULE
mol80_1_15
 48 51 0 0 0
SMALL
USER_CHARGES
****
VDW energy = 25.49
@<TRIPOS>ATOM
   1 O1        3.4420    -9.1855    -5.2979  O.2     1  <O>11      -0.2679
   2 C1        2.8552    -9.8129    -4.4288  C.2     1  <O>11       0.2706
   3 N1        3.5160   -10.1860    -3.2900  N.am    1  <O>11      -0.1481
   4 F1        2.8250   -10.9250    -2.2650  F       1  <O>11      -0.1090
   5 C2        1.4620   -10.1610    -4.6040  C.ar    1  <O>11       0.0395
   6 C3        0.5946   -10.0837    -3.5126  C.ar    1  <O>11      -0.0495
   7 C4       -0.7516   -10.4309    -3.6727  C.ar    1  <O>11      -0.0605
   8 C5       -1.2274   -10.8492    -4.9180  C.ar    1  <O>11      -0.0540
   9 C6       -0.3466   -10.9160    -6.0041  C.ar    1  <O>11      -0.0172
  10 C7       -0.8379   -11.3431    -7.2730  C.ar    1  <O>11      -0.0176
  11 C8        0.0512   -11.8192    -8.2523  C.ar    1  <O>11      -0.0540
  12 C9       -0.4310   -12.2267    -9.5015  C.ar    1  <O>11      -0.0609
  13 C10      -1.7981   -12.1663    -9.7839  C.ar    1  <O>11      -0.0582
  14 C11      -2.6822   -11.6980    -8.8062  C.ar    1  <O>11      -0.0409
  15 C12      -4.1254   -11.6375    -9.1082  C.3     1  <O>11       0.0168
  16 C13      -4.7661   -12.9225    -8.7254  C.ar    1  <O>11       0.0693
  17 N2       -4.0540   -13.8626    -7.9892  N.ar    1  <O>11      -0.1753
  18 N3       -4.6322   -15.0374    -7.6354  N.ar    1  <O>11      -0.2427
  19 C14      -5.9042   -15.2965    -8.0070  C.ar    1  <O>11       0.2682
  20 O2       -6.4528   -16.5254    -7.5931  O.2     1  <O>11      -0.2661
  21 C15      -6.6702   -14.4128    -8.7657  C.ar    1  <O>11       0.0232
  22 C16      -6.0816   -13.1842    -9.1041  C.ar    1  <O>11      -0.0158
  23 C17      -6.8006   -12.1460    -9.9241  C.3     1  <O>11      -0.0255
  24 C18      -8.3105   -12.3628    -9.9713  C.3     1  <O>11      -0.0487
  25 C19      -8.6241   -13.8191   -10.2805  C.3     1  <O>11      -0.0486
  26 C20      -8.0852   -14.7296    -9.1757  C.3     1  <O>11      -0.0222
  27 C21      -2.2135   -11.2910    -7.5552  C.ar    1  <O>11      -0.0505
  28 C22       0.9963   -10.5699    -5.8555  C.ar    1  <O>11      -0.0418
  29 H1        4.4990    -9.9410    -3.1660  H       1  <O>11       0.1882
  30 H2       -4.2667   -11.4638   -10.1747  H       1  <O>11       0.0377
  31 H3       -4.5810   -10.8231    -8.5444  H       1  <O>11       0.0377
  32 H4       -4.1093   -15.7114    -7.0953  H       1  <O>11       0.1921
  33 H5       -6.6047   -11.1651    -9.4905  H       1  <O>11       0.0314
  34 H6       -6.4134   -12.1779   -10.9416  H       1  <O>11       0.0314
  35 H7       -8.7425   -12.0993    -9.0064  H       1  <O>11       0.0268
  36 H8       -8.7407   -11.7304   -10.7481  H       1  <O>11       0.0268
  37 H9       -9.7051   -13.9463   -10.3537  H       1  <O>11       0.0269
  38 H10      -8.1612   -14.0929   -11.2291  H       1  <O>11       0.0269
  39 H11      -8.7279   -14.6271    -8.3016  H       1  <O>11       0.0315
  40 H12      -8.1172   -15.7590    -9.5321  H       1  <O>11       0.0315
  41 H13       0.9443    -9.7723    -2.5929  H       1  <O>11       0.0625
  42 H14      -1.3953   -10.3778    -2.8679  H       1  <O>11       0.0618
  43 H15      -2.2197   -11.1068    -5.0362  H       1  <O>11       0.0624
  44 H16       1.0619   -11.8685    -8.0497  H       1  <O>11       0.0624
  45 H17       0.2265   -12.5733   -10.2175  H       1  <O>11       0.0618
  46 H18      -2.1526   -12.4647   -10.7060  H       1  <O>11       0.0620
  47 H19      -2.8759   -10.9527    -6.8396  H       1  <O>11       0.0626
  48 H20       1.6389   -10.6156    -6.6617  H       1  <O>11       0.0631
@<TRIPOS>BOND
     1     1     2    2
     2     2     3   am
     3     3     4    1
     4     2     5    1
     5     5     6   ar
     6     6     7   ar
     7     7     8   ar
     8     8     9   ar
     9     9    10    1
    10    10    11   ar
    11    11    12   ar
    12    12    13   ar
    13    13    14   ar
    14    14    15    1
    15    15    16    1
    16    16    17   ar
    17    17    18   ar
    18    18    19   ar
    19    19    20    2
    20    19    21   ar
    21    21    22   ar
    22    16    22   ar
    23    22    23    1
    24    23    24    1
    25    24    25    1
    26    25    26    1
    27    21    26    1
    28    14    27   ar
    29    10    27   ar
    30     9    28   ar
    31     5    28   ar
    32     3    29    1
    33    15    30    1
    34    15    31    1
    35    18    32    1
    36    23    33    1
    37    23    34    1
    38    24    35    1
    39    24    36    1
    40    25    37    1
    41    25    38    1
    42    26    39    1
    43    26    40    1
    44     6    41    1
    45     7    42    1
    46     8    43    1
    47    11    44    1
    48    12    45    1
    49    13    46    1
    50    27    47    1
    51    28    48    1
@<TRIPOS>MOLECULE
mol80_1_16
 48 51 0 0 0
SMALL
USER_CHARGES
****
VDW energy = 26.88
@<TRIPOS>ATOM
   1 O1        3.4420    -9.1855    -5.2979  O.2     1  <O>11      -0.2679
   2 C1        2.8552    -9.8129    -4.4288  C.2     1  <O>11       0.2706
   3 N1        3.5160   -10.1860    -3.2900  N.am    1  <O>11      -0.1481
   4 F1        2.8250   -10.9250    -2.2650  F       1  <O>11      -0.1090
   5 C2        1.4620   -10.1610    -4.6040  C.ar    1  <O>11       0.0395
   6 C3        0.4750    -9.2817    -4.1546  C.ar    1  <O>11      -0.0495
   7 C4       -0.8745    -9.6183    -4.3101  C.ar    1  <O>11      -0.0605
   8 C5       -1.2337   -10.8255    -4.9148  C.ar    1  <O>11      -0.0540
   9 C6       -0.2326   -11.6941    -5.3653  C.ar    1  <O>11      -0.0172
  10 C7       -0.6050   -12.9248    -5.9823  C.ar    1  <O>11      -0.0176
  11 C8        0.3826   -13.8130    -6.4425  C.ar    1  <O>11      -0.0540
  12 C9        0.0155   -15.0149    -7.0587  C.ar    1  <O>11      -0.0609
  13 C10      -1.3334   -15.3424    -7.2185  C.ar    1  <O>11      -0.0582
  14 C11      -2.3150   -14.4604    -6.7545  C.ar    1  <O>11      -0.0409
  15 C12      -3.7382   -14.8111    -6.9238  C.3     1  <O>11       0.0168
  16 C13      -4.0225   -16.0854    -6.2143  C.ar    1  <O>11       0.0693
  17 N2       -3.8839   -17.2981    -6.8800  N.ar    1  <O>11      -0.1753
  18 N3       -4.1408   -18.4654    -6.2389  N.ar    1  <O>11      -0.2427
  19 C14      -4.5396   -18.4475    -4.9491  C.ar    1  <O>11       0.2682
  20 O2       -4.7726   -19.6930    -4.3352  O.2     1  <O>11      -0.2661
  21 C15      -4.7235   -17.2700    -4.2259  C.ar    1  <O>11       0.0232
  22 C16      -4.4270   -16.0643    -4.8807  C.ar    1  <O>11      -0.0158
  23 C17      -4.5887   -14.7246    -4.2126  C.3     1  <O>11      -0.0255
  24 C18      -4.6759   -14.8222    -2.6922  C.3     1  <O>11      -0.0487
  25 C19      -5.6580   -15.9124    -2.2898  C.3     1  <O>11      -0.0486
  26 C20      -5.1786   -17.2763    -2.7894  C.3     1  <O>11      -0.0222
  27 C21      -1.9612   -13.2593    -6.1358  C.ar    1  <O>11      -0.0505
  28 C22       1.1151   -11.3668    -5.2172  C.ar    1  <O>11      -0.0418
  29 H1        4.4990    -9.9410    -3.1660  H       1  <O>11       0.1882
  30 H2       -3.9603   -14.9276    -7.9844  H       1  <O>11       0.0377
  31 H3       -4.3601   -14.0180    -6.5079  H       1  <O>11       0.0377
  32 H4       -4.0313   -19.3415    -6.7288  H       1  <O>11       0.1921
  33 H5       -3.7316   -14.1024    -4.4714  H       1  <O>11       0.0314
  34 H6       -5.5011   -14.2595    -4.5835  H       1  <O>11       0.0314
  35 H7       -3.6916   -15.0587    -2.2893  H       1  <O>11       0.0268
  36 H8       -5.0148   -13.8676    -2.2892  H       1  <O>11       0.0268
  37 H9       -5.7405   -15.9382    -1.2023  H       1  <O>11       0.0269
  38 H10      -6.6346   -15.6942    -2.7231  H       1  <O>11       0.0269
  39 H11      -4.3446   -17.5974    -2.1656  H       1  <O>11       0.0315
  40 H12      -5.9997   -17.9863    -2.6924  H       1  <O>11       0.0315
  41 H13       0.7391    -8.3884    -3.7103  H       1  <O>11       0.0625
  42 H14      -1.6070    -8.9723    -3.9769  H       1  <O>11       0.0618
  43 H15      -2.2287   -11.0748    -5.0282  H       1  <O>11       0.0624
  44 H16       1.3808   -13.5783    -6.3258  H       1  <O>11       0.0624
  45 H17       0.7447   -15.6622    -7.3967  H       1  <O>11       0.0618
  46 H18      -1.6033   -16.2277    -7.6751  H       1  <O>11       0.0620
  47 H19      -2.6941   -12.6190    -5.7921  H       1  <O>11       0.0626
  48 H20       1.8481   -12.0089    -5.5570  H       1  <O>11       0.0631
@<TRIPOS>BOND
     1     1     2    2
     2     2     3   am
     3     3     4    1
     4     2     5    1
     5     5     6   ar
     6     6     7   ar
     7     7     8   ar
     8     8     9   ar
     9     9    10    1
    10    10    11   ar
    11    11    12   ar
    12    12    13   ar
    13    13    14   ar
    14    14    15    1
    15    15    16    1
    16    16    17   ar
    17    17    18   ar
    18    18    19   ar
    19    19    20    2
    20    19    21   ar
    21    21    22   ar
    22    16    22   ar
    23    22    23    1
    24    23    24    1
    25    24    25    1
    26    25    26    1
    27    21    26    1
    28    14    27   ar
    29    10    27   ar
    30     9    28   ar
    31     5    28   ar
    32     3    29    1
    33    15    30    1
    34    15    31    1
    35    18    32    1
    36    23    33    1
    37    23    34    1
    38    24    35    1
    39    24    36    1
    40    25    37    1
    41    25    38    1
    42    26    39    1
    43    26    40    1
    44     6    41    1
    45     7    42    1
    46     8    43    1
    47    11    44    1
    48    12    45    1
    49    13    46    1
    50    27    47    1
    51    28    48    1
@<TRIPOS>MOLECULE
mol80_1_17
 48 51 0 0 0
SMALL
USER_CHARGES
****
VDW energy = 27.51
@<TRIPOS>ATOM
   1 O1        3.4420    -9.1855    -5.2979  O.2     1  <O>11      -0.2679
   2 C1        2.8552    -9.8129    -4.4288  C.2     1  <O>11       0.2706
   3 N1        3.5160   -10.1860    -3.2900  N.am    1  <O>11      -0.1481
   4 F1        2.8250   -10.9250    -2.2650  F       1  <O>11      -0.1090
   5 C2        1.4620   -10.1610    -4.6040  C.ar    1  <O>11       0.0395
   6 C3        0.4750    -9.2817    -4.1546  C.ar    1  <O>11      -0.0495
   7 C4       -0.8745    -9.6183    -4.3101  C.ar    1  <O>11      -0.0605
   8 C5       -1.2337   -10.8255    -4.9148  C.ar    1  <O>11      -0.0540
   9 C6       -0.2326   -11.6941    -5.3653  C.ar    1  <O>11      -0.0172
  10 C7       -0.6050   -12.9248    -5.9823  C.ar    1  <O>11      -0.0176
  11 C8       -1.3648   -13.8708    -5.2723  C.ar    1  <O>11      -0.0540
  12 C9       -1.7193   -15.0833    -5.8749  C.ar    1  <O>11      -0.0609
  13 C10      -1.3239   -15.3616    -7.1859  C.ar    1  <O>11      -0.0582
  14 C11      -0.5731   -14.4167    -7.8931  C.ar    1  <O>11      -0.0409
  15 C12      -0.1592   -14.7141    -9.2779  C.3     1  <O>11       0.0168
  16 C13      -1.2017   -14.2329   -10.2210  C.ar    1  <O>11       0.0693
  17 N2       -2.2418   -15.0754   -10.5971  N.ar    1  <O>11      -0.1753
  18 N3       -3.1975   -14.6430   -11.4569  N.ar    1  <O>11      -0.2427
  19 C14      -3.1333   -13.3896   -11.9547  C.ar    1  <O>11       0.2682
  20 O2       -4.1652   -12.9953   -12.8276  O.2     1  <O>11      -0.2661
  21 C15      -2.1079   -12.4984   -11.6419  C.ar    1  <O>11       0.0232
  22 C16      -1.1369   -12.9360   -10.7276  C.ar    1  <O>11      -0.0158
  23 C17       0.0240   -12.0722   -10.3113  C.3     1  <O>11      -0.0255
  24 C18      -0.1905   -10.5935   -10.6215  C.3     1  <O>11      -0.0487
  25 C19      -0.6970   -10.4222   -12.0459  C.3     1  <O>11      -0.0486
  26 C20      -2.0538   -11.1071   -12.2183  C.3     1  <O>11      -0.0222
  27 C21      -0.2153   -13.2022    -7.3036  C.ar    1  <O>11      -0.0505
  28 C22       1.1151   -11.3668    -5.2172  C.ar    1  <O>11      -0.0418
  29 H1        4.4990    -9.9410    -3.1660  H       1  <O>11       0.1882
  30 H2       -0.0303   -15.7899    -9.3958  H       1  <O>11       0.0377
  31 H3        0.7837   -14.2101    -9.4918  H       1  <O>11       0.0377
  32 H4       -3.9525   -15.2600   -11.7194  H       1  <O>11       0.1921
  33 H5        0.1709   -12.1832    -9.2367  H       1  <O>11       0.0314
  34 H6        0.9154   -12.4114   -10.8373  H       1  <O>11       0.0314
  35 H7       -0.9233   -10.1825    -9.9278  H       1  <O>11       0.0268
  36 H8        0.7546   -10.0616   -10.5104  H       1  <O>11       0.0268
  37 H9       -0.8026    -9.3586   -12.2643  H       1  <O>11       0.0269
  38 H10       0.0196   -10.8656   -12.7380  H       1  <O>11       0.0269
  39 H11      -2.8111   -10.4998   -11.7229  H       1  <O>11       0.0315
  40 H12      -2.2758   -11.1678   -13.2835  H       1  <O>11       0.0315
  41 H13       0.7391    -8.3884    -3.7103  H       1  <O>11       0.0625
  42 H14      -1.6070    -8.9723    -3.9769  H       1  <O>11       0.0618
  43 H15      -2.2287   -11.0748    -5.0282  H       1  <O>11       0.0624
  44 H16      -1.6620   -13.6708    -4.3045  H       1  <O>11       0.0624
  45 H17      -2.2753   -15.7751    -5.3484  H       1  <O>11       0.0618
  46 H18      -1.5837   -16.2569    -7.6287  H       1  <O>11       0.0620
  47 H19       0.3339   -12.5102    -7.8371  H       1  <O>11       0.0626
  48 H20       1.8481   -12.0089    -5.5570  H       1  <O>11       0.0631
@<TRIPOS>BOND
     1     1     2    2
     2     2     3   am
     3     3     4    1
     4     2     5    1
     5     5     6   ar
     6     6     7   ar
     7     7     8   ar
     8     8     9   ar
     9     9    10    1
    10    10    11   ar
    11    11    12   ar
    12    12    13   ar
    13    13    14   ar
    14    14    15    1
    15    15    16    1
    16    16    17   ar
    17    17    18   ar
    18    18    19   ar
    19    19    20    2
    20    19    21   ar
    21    21    22   ar
    22    16    22   ar
    23    22    23    1
    24    23    24    1
    25    24    25    1
    26    25    26    1
    27    21    26    1
    28    14    27   ar
    29    10    27   ar
    30     9    28   ar
    31     5    28   ar
    32     3    29    1
    33    15    30    1
    34    15    31    1
    35    18    32    1
    36    23    33    1
    37    23    34    1
    38    24    35    1
    39    24    36    1
    40    25    37    1
    41    25    38    1
    42    26    39    1
    43    26    40    1
    44     6    41    1
    45     7    42    1
    46     8    43    1
    47    11    44    1
    48    12    45    1
    49    13    46    1
    50    27    47    1
    51    28    48    1
@<TRIPOS>MOLECULE
mol80_1_18
 48 51 0 0 0
SMALL
USER_CHARGES
****
VDW energy = 29.16
@<TRIPOS>ATOM
   1 O1        3.4420    -9.1855    -5.2979  O.2     1  <O>11      -0.2679
   2 C1        2.8552    -9.8129    -4.4288  C.2     1  <O>11       0.2706
   3 N1        3.5160   -10.1860    -3.2900  N.am    1  <O>11      -0.1481
   4 F1        4.9030    -9.8396    -3.1152  F       1  <O>11      -0.1090
   5 C2        1.4620   -10.1610    -4.6040  C.ar    1  <O>11       0.0395
   6 C3        1.1306   -11.3698    -5.2192  C.ar    1  <O>11      -0.0495
   7 C4       -0.2153   -11.7066    -5.4026  C.ar    1  <O>11      -0.0605
   8 C5       -1.2229   -10.8409    -4.9699  C.ar    1  <O>11      -0.0540
   9 C6       -0.8747    -9.6351    -4.3496  C.ar    1  <O>11      -0.0172
  10 C7       -1.9074    -8.7555    -3.9094  C.ar    1  <O>11      -0.0176
  11 C8       -1.6289    -7.3972    -3.6776  C.ar    1  <O>11      -0.0540
  12 C9       -2.6405    -6.5378    -3.2339  C.ar    1  <O>11      -0.0609
  13 C10      -3.9340    -7.0214    -3.0209  C.ar    1  <O>11      -0.0582
  14 C11      -4.2110    -8.3719    -3.2578  C.ar    1  <O>11      -0.0409
  15 C12      -5.5788    -8.8780    -3.0332  C.3     1  <O>11       0.0168
  16 C13      -6.3675    -8.7475    -4.2857  C.ar    1  <O>11       0.0693
  17 N2       -5.7325    -8.4098    -5.4756  N.ar    1  <O>11      -0.1753
  18 N3       -6.4455    -8.2895    -6.6230  N.ar    1  <O>11      -0.2427
  19 C14      -7.7803    -8.4925    -6.6067  C.ar    1  <O>11       0.2682
  20 O2       -8.4601    -8.3706    -7.8336  O.2     1  <O>11      -0.2661
  21 C15      -8.4874    -8.8095    -5.4479  C.ar    1  <O>11       0.0232
  22 C16      -7.7441    -8.9648    -4.2672  C.ar    1  <O>11      -0.0158
  23 C17      -8.3887    -9.3010    -2.9487  C.3     1  <O>11      -0.0255
  24 C18      -9.7988    -9.8645    -3.0997  C.3     1  <O>11      -0.0487
  25 C19     -10.6088    -9.0064    -4.0601  C.3     1  <O>11      -0.0486
  26 C20      -9.9792    -9.0222    -5.4541  C.3     1  <O>11      -0.0222
  27 C21      -3.2107    -9.2389    -3.7031  C.ar    1  <O>11      -0.0505
  28 C22       0.4636    -9.2913    -4.1600  C.ar    1  <O>11      -0.0418
  29 H1        3.0266   -10.7100    -2.5636  H       1  <O>11       0.1882
  30 H2       -6.0548    -8.3001    -2.2413  H       1  <O>11       0.0377
  31 H3       -5.5347    -9.9273    -2.7402  H       1  <O>11       0.0377
  32 H4       -5.9747    -8.0500    -7.4836  H       1  <O>11       0.1921
  33 H5       -7.7717   -10.0425    -2.4404  H       1  <O>11       0.0314
  34 H6       -8.4395    -8.3952    -2.3460  H       1  <O>11       0.0314
  35 H7       -9.7409   -10.8810    -3.4876  H       1  <O>11       0.0268
  36 H8      -10.2890    -9.8734    -2.1260  H       1  <O>11       0.0268
  37 H9      -11.6253    -9.3977    -4.1219  H       1  <O>11       0.0269
  38 H10     -10.6363    -7.9809    -3.6901  H       1  <O>11       0.0269
  39 H11     -10.1873    -9.9878    -5.9145  H       1  <O>11       0.0315
  40 H12     -10.4365    -8.2304    -6.0472  H       1  <O>11       0.0315
  41 H13       1.8739   -12.0113    -5.5368  H       1  <O>11       0.0625
  42 H14      -0.4644   -12.5978    -5.8593  H       1  <O>11       0.0618
  43 H15      -2.2155   -11.0882    -5.1063  H       1  <O>11       0.0624
  44 H16      -0.6763    -7.0329    -3.8350  H       1  <O>11       0.0624
  45 H17      -2.4300    -5.5420    -3.0632  H       1  <O>11       0.0618
  46 H18      -4.6789    -6.3876    -2.6915  H       1  <O>11       0.0620
  47 H19      -3.4281   -10.2321    -3.8802  H       1  <O>11       0.0626
  48 H20       0.7134    -8.4037    -3.6966  H       1  <O>11       0.0631
@<TRIPOS>BOND
     1     1     2    2
     2     2     3   am
     3     3     4    1
     4     2     5    1
     5     5     6   ar
     6     6     7   ar
     7     7     8   ar
     8     8     9   ar
     9     9    10    1
    10    10    11   ar
    11    11    12   ar
    12    12    13   ar
    13    13    14   ar
    14    14    15    1
    15    15    16    1
    16    16    17   ar
    17    17    18   ar
    18    18    19   ar
    19    19    20    2
    20    19    21   ar
    21    21    22   ar
    22    16    22   ar
    23    22    23    1
    24    23    24    1
    25    24    25    1
    26    25    26    1
    27    21    26    1
    28    14    27   ar
    29    10    27   ar
    30     9    28   ar
    31     5    28   ar
    32     3    29    1
    33    15    30    1
    34    15    31    1
    35    18    32    1
    36    23    33    1
    37    23    34    1
    38    24    35    1
    39    24    36    1
    40    25    37    1
    41    25    38    1
    42    26    39    1
    43    26    40    1
    44     6    41    1
    45     7    42    1
    46     8    43    1
    47    11    44    1
    48    12    45    1
    49    13    46    1
    50    27    47    1
    51    28    48    1
@<TRIPOS>MOLECULE
mol80_1_19
 48 51 0 0 0
SMALL
USER_CHARGES
****
VDW energy = 29.62
@<TRIPOS>ATOM
   1 O1        3.4420    -9.1855    -5.2979  O.2     1  <O>11      -0.2679
   2 C1        2.8552    -9.8129    -4.4288  C.2     1  <O>11       0.2706
   3 N1        3.5160   -10.1860    -3.2900  N.am    1  <O>11      -0.1481
   4 F1        2.8250   -10.9250    -2.2650  F       1  <O>11      -0.1090
   5 C2        1.4620   -10.1610    -4.6040  C.ar    1  <O>11       0.0395
   6 C3        1.1306   -11.3698    -5.2192  C.ar    1  <O>11      -0.0495
   7 C4       -0.2153   -11.7066    -5.4026  C.ar    1  <O>11      -0.0605
   8 C5       -1.2229   -10.8409    -4.9699  C.ar    1  <O>11      -0.0540
   9 C6       -0.8747    -9.6351    -4.3496  C.ar    1  <O>11      -0.0172
  10 C7       -1.9074    -8.7555    -3.9094  C.ar    1  <O>11      -0.0176
  11 C8       -1.6289    -7.3972    -3.6776  C.ar    1  <O>11      -0.0540
  12 C9       -2.6405    -6.5378    -3.2339  C.ar    1  <O>11      -0.0609
  13 C10      -3.9340    -7.0214    -3.0209  C.ar    1  <O>11      -0.0582
  14 C11      -4.2110    -8.3719    -3.2578  C.ar    1  <O>11      -0.0409
  15 C12      -5.5788    -8.8780    -3.0332  C.3     1  <O>11       0.0168
  16 C13      -6.3675    -8.7475    -4.2857  C.ar    1  <O>11       0.0693
  17 N2       -6.3855    -9.7877    -5.2081  N.ar    1  <O>11      -0.1753
  18 N3       -7.1036    -9.6762    -6.3532  N.ar    1  <O>11      -0.2427
  19 C14      -7.7989    -8.5455    -6.6005  C.ar    1  <O>11       0.2682
  20 O2       -8.5385    -8.4993    -7.7977  O.2     1  <O>11      -0.2661
  21 C15      -7.8080    -7.4532    -5.7343  C.ar    1  <O>11       0.0232
  22 C16      -7.0901    -7.5819    -4.5350  C.ar    1  <O>11      -0.0158
  23 C17      -7.0162    -6.4738    -3.5183  C.3     1  <O>11      -0.0255
  24 C18      -8.1038    -5.4196    -3.7038  C.3     1  <O>11      -0.0487
  25 C19      -8.1918    -5.0051    -5.1651  C.3     1  <O>11      -0.0486
  26 C20      -8.5850    -6.1982    -6.0377  C.3     1  <O>11      -0.0222
  27 C21      -3.2107    -9.2389    -3.7031  C.ar    1  <O>11      -0.0505
  28 C22       0.4636    -9.2913    -4.1600  C.ar    1  <O>11      -0.0418
  29 H1        4.4990    -9.9410    -3.1660  H       1  <O>11       0.1882
  30 H2       -6.0548    -8.3001    -2.2413  H       1  <O>11       0.0377
  31 H3       -5.5347    -9.9273    -2.7402  H       1  <O>11       0.0377
  32 H4       -7.1157   -10.4395    -7.0142  H       1  <O>11       0.1921
  33 H5       -7.1205    -6.9082    -2.5238  H       1  <O>11       0.0314
  34 H6       -6.0446    -5.9889    -3.6032  H       1  <O>11       0.0314
  35 H7       -9.0621    -5.8313    -3.3888  H       1  <O>11       0.0268
  36 H8       -7.8654    -4.5459    -3.0968  H       1  <O>11       0.0268
  37 H9       -8.9426    -4.2208    -5.2716  H       1  <O>11       0.0269
  38 H10      -7.2223    -4.6263    -5.4903  H       1  <O>11       0.0269
  39 H11      -9.6441    -6.4034    -5.8830  H       1  <O>11       0.0315
  40 H12      -8.4146    -5.9326    -7.0808  H       1  <O>11       0.0315
  41 H13       1.8739   -12.0113    -5.5368  H       1  <O>11       0.0625
  42 H14      -0.4644   -12.5978    -5.8593  H       1  <O>11       0.0618
  43 H15      -2.2155   -11.0882    -5.1063  H       1  <O>11       0.0624
  44 H16      -0.6763    -7.0329    -3.8350  H       1  <O>11       0.0624
  45 H17      -2.4300    -5.5420    -3.0632  H       1  <O>11       0.0618
  46 H18      -4.6789    -6.3876    -2.6915  H       1  <O>11       0.0620
  47 H19      -3.4281   -10.2321    -3.8802  H       1  <O>11       0.0626
  48 H20       0.7134    -8.4037    -3.6966  H       1  <O>11       0.0631
@<TRIPOS>BOND
     1     1     2    2
     2     2     3   am
     3     3     4    1
     4     2     5    1
     5     5     6   ar
     6     6     7   ar
     7     7     8   ar
     8     8     9   ar
     9     9    10    1
    10    10    11   ar
    11    11    12   ar
    12    12    13   ar
    13    13    14   ar
    14    14    15    1
    15    15    16    1
    16    16    17   ar
    17    17    18   ar
    18    18    19   ar
    19    19    20    2
    20    19    21   ar
    21    21    22   ar
    22    16    22   ar
    23    22    23    1
    24    23    24    1
    25    24    25    1
    26    25    26    1
    27    21    26    1
    28    14    27   ar
    29    10    27   ar
    30     9    28   ar
    31     5    28   ar
    32     3    29    1
    33    15    30    1
    34    15    31    1
    35    18    32    1
    36    23    33    1
    37    23    34    1
    38    24    35    1
    39    24    36    1
    40    25    37    1
    41    25    38    1
    42    26    39    1
    43    26    40    1
    44     6    41    1
    45     7    42    1
    46     8    43    1
    47    11    44    1
    48    12    45    1
    49    13    46    1
    50    27    47    1
    51    28    48    1
@<TRIPOS>MOLECULE
mol80_1_20
 48 51 0 0 0
SMALL
USER_CHARGES
****
VDW energy = 29.73
@<TRIPOS>ATOM
   1 O1        3.4420    -9.1855    -5.2979  O.2     1  <O>11      -0.2679
   2 C1        2.8552    -9.8129    -4.4288  C.2     1  <O>11       0.2706
   3 N1        3.5160   -10.1860    -3.2900  N.am    1  <O>11      -0.1481
   4 F1        2.8250   -10.9250    -2.2650  F       1  <O>11      -0.1090
   5 C2        1.4620   -10.1610    -4.6040  C.ar    1  <O>11       0.0395
   6 C3        0.6998    -9.4775    -5.5533  C.ar    1  <O>11      -0.0495
   7 C4       -0.6516    -9.8011    -5.7190  C.ar    1  <O>11      -0.0605
   8 C5       -1.2354   -10.8050    -4.9421  C.ar    1  <O>11      -0.0540
   9 C6       -0.4567   -11.4852    -3.9984  C.ar    1  <O>11      -0.0172
  10 C7       -1.0576   -12.5093    -3.2085  C.ar    1  <O>11      -0.0176
  11 C8       -1.6549   -12.1934    -1.9757  C.ar    1  <O>11      -0.0540
  12 C9       -2.2336   -13.2014    -1.1959  C.ar    1  <O>11      -0.0609
  13 C10      -2.2249   -14.5272    -1.6370  C.ar    1  <O>11      -0.0582
  14 C11      -1.6356   -14.8390    -2.8667  C.ar    1  <O>11      -0.0409
  15 C12      -1.6302   -16.2402    -3.3294  C.3     1  <O>11       0.0168
  16 C13      -0.6594   -16.3902    -4.4444  C.ar    1  <O>11       0.0693
  17 N2        0.6642   -16.7195    -4.1747  N.ar    1  <O>11      -0.1753
  18 N3        1.5559   -16.8590    -5.1871  N.ar    1  <O>11      -0.2427
  19 C14       1.1560   -16.6699    -6.4627  C.ar    1  <O>11       0.2682
  20 O2        2.1248   -16.8473    -7.4689  O.2     1  <O>11      -0.2661
  21 C15      -0.1474   -16.3146    -6.8067  C.ar    1  <O>11       0.0232
  22 C16      -1.0768   -16.2016    -5.7608  C.ar    1  <O>11      -0.0158
  23 C17      -2.5135   -15.8192    -5.9985  C.3     1  <O>11      -0.0255
  24 C18      -2.9449   -15.9921    -7.4521  C.3     1  <O>11      -0.0487
  25 C19      -1.9093   -15.3820    -8.3849  C.3     1  <O>11      -0.0486
  26 C20      -0.5668   -16.1002    -8.2381  C.3     1  <O>11      -0.0222
  27 C21      -1.0571   -13.8417    -3.6550  C.ar    1  <O>11      -0.0505
  28 C22       0.8916   -11.1718    -3.8272  C.ar    1  <O>11      -0.0418
  29 H1        4.4990    -9.9410    -3.1660  H       1  <O>11       0.1882
  30 H2       -2.6270   -16.5126    -3.6755  H       1  <O>11       0.0377
  31 H3       -1.3407   -16.8938    -2.5062  H       1  <O>11       0.0377
  32 H4        2.5136   -17.1045    -4.9819  H       1  <O>11       0.1921
  33 H5       -3.1476   -16.4469    -5.3718  H       1  <O>11       0.0314
  34 H6       -2.6457   -14.7748    -5.7190  H       1  <O>11       0.0314
  35 H7       -3.0469   -17.0540    -7.6737  H       1  <O>11       0.0268
  36 H8       -3.9028   -15.4944    -7.6048  H       1  <O>11       0.0268
  37 H9       -2.2546   -15.4755    -9.4155  H       1  <O>11       0.0269
  38 H10      -1.7812   -14.3273    -8.1391  H       1  <O>11       0.0269
  39 H11      -0.6420   -17.0727    -8.7241  H       1  <O>11       0.0315
  40 H12       0.1985   -15.5038    -8.7345  H       1  <O>11       0.0315
  41 H13       1.1306    -8.7377    -6.1297  H       1  <O>11       0.0625
  42 H14      -1.2191    -9.2964    -6.4177  H       1  <O>11       0.0618
  43 H15      -2.2323   -11.0429    -5.0628  H       1  <O>11       0.0624
  44 H16      -1.6668   -11.2160    -1.6449  H       1  <O>11       0.0624
  45 H17      -2.6688   -12.9642    -0.2907  H       1  <O>11       0.0618
  46 H18      -2.6498   -15.2702    -1.0604  H       1  <O>11       0.0620
  47 H19      -0.6304   -14.0827    -4.5633  H       1  <O>11       0.0626
  48 H20       1.4615   -11.6813    -3.1340  H       1  <O>11       0.0631
@<TRIPOS>BOND
     1     1     2    2
     2     2     3   am
     3     3     4    1
     4     2     5    1
     5     5     6   ar
     6     6     7   ar
     7     7     8   ar
     8     8     9   ar
     9     9    10    1
    10    10    11   ar
    11    11    12   ar
    12    12    13   ar
    13    13    14   ar
    14    14    15    1
    15    15    16    1
    16    16    17   ar
    17    17    18   ar
    18    18    19   ar
    19    19    20    2
    20    19    21   ar
    21    21    22   ar
    22    16    22   ar
    23    22    23    1
    24    23    24    1
    25    24    25    1
    26    25    26    1
    27    21    26    1
    28    14    27   ar
    29    10    27   ar
    30     9    28   ar
    31     5    28   ar
    32     3    29    1
    33    15    30    1
    34    15    31    1
    35    18    32    1
    36    23    33    1
    37    23    34    1
    38    24    35    1
    39    24    36    1
    40    25    37    1
    41    25    38    1
    42    26    39    1
    43    26    40    1
    44     6    41    1
    45     7    42    1
    46     8    43    1
    47    11    44    1
    48    12    45    1
    49    13    46    1
    50    27    47    1
    51    28    48    1
@<TRIPOS>MOLECULE
mol80_1_21
 48 51 0 0 0
SMALL
USER_CHARGES
****
VDW energy = 32.72
@<TRIPOS>ATOM
   1 O1        3.4420    -9.1855    -5.2979  O.2     1  <O>11      -0.2679
   2 C1        2.8552    -9.8129    -4.4288  C.2     1  <O>11       0.2706
   3 N1        3.5160   -10.1860    -3.2900  N.am    1  <O>11      -0.1481
   4 F1        2.8250   -10.9250    -2.2650  F       1  <O>11      -0.1090
   5 C2        1.4620   -10.1610    -4.6040  C.ar    1  <O>11       0.0395
   6 C3        0.6998    -9.4775    -5.5533  C.ar    1  <O>11      -0.0495
   7 C4       -0.6516    -9.8011    -5.7190  C.ar    1  <O>11      -0.0605
   8 C5       -1.2354   -10.8050    -4.9421  C.ar    1  <O>11      -0.0540
   9 C6       -0.4567   -11.4852    -3.9984  C.ar    1  <O>11      -0.0172
  10 C7       -1.0576   -12.5093    -3.2085  C.ar    1  <O>11      -0.0176
  11 C8       -2.1450   -12.2095    -2.3694  C.ar    1  <O>11      -0.0540
  12 C9       -2.7260   -13.2130    -1.5856  C.ar    1  <O>11      -0.0609
  13 C10      -2.2326   -14.5195    -1.6329  C.ar    1  <O>11      -0.0582
  14 C11      -1.1545   -14.8175    -2.4729  C.ar    1  <O>11      -0.0409
  15 C12      -0.6379   -16.1989    -2.5210  C.3     1  <O>11       0.0168
  16 C13      -1.3559   -16.9602    -3.5759  C.ar    1  <O>11       0.0693
  17 N2       -0.8642   -16.9799    -4.8762  N.ar    1  <O>11      -0.1753
  18 N3       -1.5136   -17.6731    -5.8443  N.ar    1  <O>11      -0.2427
  19 C14      -2.6474   -18.3416    -5.5435  C.ar    1  <O>11       0.2682
  20 O2       -3.2638   -19.0565    -6.5881  O.2     1  <O>11      -0.2661
  21 C15      -3.2121   -18.3469    -4.2689  C.ar    1  <O>11       0.0232
  22 C16      -2.5222   -17.6553    -3.2608  C.ar    1  <O>11      -0.0158
  23 C17      -3.0288   -17.5802    -1.8449  C.3     1  <O>11      -0.0255
  24 C18      -4.0765   -18.6436    -1.5282  C.3     1  <O>11      -0.0487
  25 C19      -5.1246   -18.6949    -2.6300  C.3     1  <O>11      -0.0486
  26 C20      -4.4842   -19.0936    -3.9606  C.3     1  <O>11      -0.0222
  27 C21      -0.5679   -13.8254    -3.2616  C.ar    1  <O>11      -0.0505
  28 C22       0.8916   -11.1718    -3.8272  C.ar    1  <O>11      -0.0418
  29 H1        4.4990    -9.9410    -3.1660  H       1  <O>11       0.1882
  30 H2       -0.7940   -16.6793    -1.5553  H       1  <O>11       0.0377
  31 H3        0.4281   -16.1806    -2.7490  H       1  <O>11       0.0377
  32 H4       -1.1454   -17.6868    -6.7845  H       1  <O>11       0.1921
  33 H5       -2.1849   -17.7124    -1.1673  H       1  <O>11       0.0314
  34 H6       -3.4721   -16.5980    -1.6864  H       1  <O>11       0.0314
  35 H7       -3.5907   -19.6156    -1.4490  H       1  <O>11       0.0268
  36 H8       -4.5616   -18.4005    -0.5827  H       1  <O>11       0.0268
  37 H9       -5.8879   -19.4283    -2.3660  H       1  <O>11       0.0269
  38 H10      -5.5856   -17.7121    -2.7335  H       1  <O>11       0.0269
  39 H11      -4.2583   -20.1593    -3.9280  H       1  <O>11       0.0315
  40 H12      -5.1995   -18.8977    -4.7591  H       1  <O>11       0.0315
  41 H13       1.1306    -8.7377    -6.1297  H       1  <O>11       0.0625
  42 H14      -1.2191    -9.2964    -6.4177  H       1  <O>11       0.0618
  43 H15      -2.2323   -11.0429    -5.0628  H       1  <O>11       0.0624
  44 H16      -2.5157   -11.2472    -2.3312  H       1  <O>11       0.0624
  45 H17      -3.5226   -12.9869    -0.9697  H       1  <O>11       0.0618
  46 H18      -2.6601   -15.2584    -1.0529  H       1  <O>11       0.0620
  47 H19       0.2233   -14.0582    -3.8820  H       1  <O>11       0.0626
  48 H20       1.4615   -11.6813    -3.1340  H       1  <O>11       0.0631
@<TRIPOS>BOND
     1     1     2    2
     2     2     3   am
     3     3     4    1
     4     2     5    1
     5     5     6   ar
     6     6     7   ar
     7     7     8   ar
     8     8     9   ar
     9     9    10    1
    10    10    11   ar
    11    11    12   ar
    12    12    13   ar
    13    13    14   ar
    14    14    15    1
    15    15    16    1
    16    16    17   ar
    17    17    18   ar
    18    18    19   ar
    19    19    20    2
    20    19    21   ar
    21    21    22   ar
    22    16    22   ar
    23    22    23    1
    24    23    24    1
    25    24    25    1
    26    25    26    1
    27    21    26    1
    28    14    27   ar
    29    10    27   ar
    30     9    28   ar
    31     5    28   ar
    32     3    29    1
    33    15    30    1
    34    15    31    1
    35    18    32    1
    36    23    33    1
    37    23    34    1
    38    24    35    1
    39    24    36    1
    40    25    37    1
    41    25    38    1
    42    26    39    1
    43    26    40    1
    44     6    41    1
    45     7    42    1
    46     8    43    1
    47    11    44    1
    48    12    45    1
    49    13    46    1
    50    27    47    1
    51    28    48    1
@<TRIPOS>MOLECULE
mol80_1_22
 48 51 0 0 0
SMALL
USER_CHARGES
****
VDW energy = 32.77
@<TRIPOS>ATOM
   1 O1        3.4420    -9.1855    -5.2979  O.2     1  <O>11      -0.2679
   2 C1        2.8552    -9.8129    -4.4288  C.2     1  <O>11       0.2706
   3 N1        3.5160   -10.1860    -3.2900  N.am    1  <O>11      -0.1481
   4 F1        2.8250   -10.9250    -2.2650  F       1  <O>11      -0.1090
   5 C2        1.4620   -10.1610    -4.6040  C.ar    1  <O>11       0.0395
   6 C3        1.0134   -11.4175    -4.1926  C.ar    1  <O>11      -0.0495
   7 C4       -0.3305   -11.7649    -4.3706  C.ar    1  <O>11      -0.0605
   8 C5       -1.2205   -10.8590    -4.9532  C.ar    1  <O>11      -0.0540
   9 C6       -0.7568    -9.6008    -5.3553  C.ar    1  <O>11      -0.0172
  10 C7       -1.6698    -8.6799    -5.9490  C.ar    1  <O>11      -0.0176
  11 C8       -2.3432    -9.0169    -7.1361  C.ar    1  <O>11      -0.0540
  12 C9       -3.2297    -8.1073    -7.7241  C.ar    1  <O>11      -0.0609
  13 C10      -3.4544    -6.8602    -7.1353  C.ar    1  <O>11      -0.0582
  14 C11      -2.7882    -6.5288    -5.9508  C.ar    1  <O>11      -0.0409
  15 C12      -3.0298    -5.2113    -5.3316  C.3     1  <O>11       0.0168
  16 C13      -4.1653    -5.3124    -4.3785  C.ar    1  <O>11       0.0693
  17 N2       -5.4646    -5.0853    -4.8181  N.ar    1  <O>11      -0.1753
  18 N3       -6.5063    -5.1764    -3.9543  N.ar    1  <O>11      -0.2427
  19 C14      -6.2778    -5.4827    -2.6593  C.ar    1  <O>11       0.2682
  20 O2       -7.4025    -5.5801    -1.8178  O.2     1  <O>11      -0.2661
  21 C15      -5.0013    -5.6993    -2.1425  C.ar    1  <O>11       0.0232
  22 C16      -3.9271    -5.6359    -3.0439  C.ar    1  <O>11      -0.0158
  23 C17      -2.5001    -5.8453    -2.6115  C.3     1  <O>11      -0.0255
  24 C18      -2.3821    -6.5360    -1.2558  C.3     1  <O>11      -0.0487
  25 C19      -3.3152    -5.8812    -0.2481  C.3     1  <O>11      -0.0486
  26 C20      -4.7718    -6.0309    -0.6906  C.3     1  <O>11      -0.0222
  27 C21      -1.9031    -7.4288    -5.3532  C.ar    1  <O>11      -0.0505
  28 C22       0.5801    -9.2441    -5.1802  C.ar    1  <O>11      -0.0418
  29 H1        4.4990    -9.9410    -3.1660  H       1  <O>11       0.1882
  30 H2       -3.2688    -4.4836    -6.1068  H       1  <O>11       0.0377
  31 H3       -2.1351    -4.8913    -4.7970  H       1  <O>11       0.0377
  32 H4       -7.4471    -5.0159    -4.2841  H       1  <O>11       0.1921
  33 H5       -1.9981    -6.4603    -3.3588  H       1  <O>11       0.0314
  34 H6       -2.0098    -4.8746    -2.5504  H       1  <O>11       0.0314
  35 H7       -2.6490    -7.5869    -1.3626  H       1  <O>11       0.0268
  36 H8       -1.3551    -6.4552    -0.8990  H       1  <O>11       0.0268
  37 H9       -3.1856    -6.3582     0.7244  H       1  <O>11       0.0269
  38 H10      -3.0713    -4.8214    -0.1682  H       1  <O>11       0.0269
  39 H11      -5.0786    -7.0627    -0.5206  H       1  <O>11       0.0315
  40 H12      -5.3856    -5.3644    -0.0850  H       1  <O>11       0.0315
  41 H13       1.6693   -12.0865    -3.7596  H       1  <O>11       0.0625
  42 H14      -0.6655   -12.6936    -4.0704  H       1  <O>11       0.0618
  43 H15      -2.2113   -11.1153    -5.0861  H       1  <O>11       0.0624
  44 H16      -2.1836    -9.9371    -7.5750  H       1  <O>11       0.0624
  45 H17      -3.7198    -8.3590    -8.5967  H       1  <O>11       0.0618
  46 H18      -4.1064    -6.1891    -7.5707  H       1  <O>11       0.0620
  47 H19      -1.4217    -7.1757    -4.4761  H       1  <O>11       0.0626
  48 H20       0.9141    -8.3127    -5.4733  H       1  <O>11       0.0631
@<TRIPOS>BOND
     1     1     2    2
     2     2     3   am
     3     3     4    1
     4     2     5    1
     5     5     6   ar
     6     6     7   ar
     7     7     8   ar
     8     8     9   ar
     9     9    10    1
    10    10    11   ar
    11    11    12   ar
    12    12    13   ar
    13    13    14   ar
    14    14    15    1
    15    15    16    1
    16    16    17   ar
    17    17    18   ar
    18    18    19   ar
    19    19    20    2
    20    19    21   ar
    21    21    22   ar
    22    16    22   ar
    23    22    23    1
    24    23    24    1
    25    24    25    1
    26    25    26    1
    27    21    26    1
    28    14    27   ar
    29    10    27   ar
    30     9    28   ar
    31     5    28   ar
    32     3    29    1
    33    15    30    1
    34    15    31    1
    35    18    32    1
    36    23    33    1
    37    23    34    1
    38    24    35    1
    39    24    36    1
    40    25    37    1
    41    25    38    1
    42    26    39    1
    43    26    40    1
    44     6    41    1
    45     7    42    1
    46     8    43    1
    47    11    44    1
    48    12    45    1
    49    13    46    1
    50    27    47    1
    51    28    48    1
@<TRIPOS>MOLECULE
mol80_1_23
 48 51 0 0 0
SMALL
USER_CHARGES
****
VDW energy = 34.40
@<TRIPOS>ATOM
   1 O1        3.4420    -9.1855    -5.2979  O.2     1  <O>11      -0.2679
   2 C1        2.8552    -9.8129    -4.4288  C.2     1  <O>11       0.2706
   3 N1        3.5160   -10.1860    -3.2900  N.am    1  <O>11      -0.1481
   4 F1        2.8250   -10.9250    -2.2650  F       1  <O>11      -0.1090
   5 C2        1.4620   -10.1610    -4.6040  C.ar    1  <O>11       0.0395
   6 C3        0.6998    -9.4775    -5.5533  C.ar    1  <O>11      -0.0495
   7 C4       -0.6516    -9.8011    -5.7190  C.ar    1  <O>11      -0.0605
   8 C5       -1.2354   -10.8050    -4.9421  C.ar    1  <O>11      -0.0540
   9 C6       -0.4567   -11.4852    -3.9984  C.ar    1  <O>11      -0.0172
  10 C7       -1.0576   -12.5093    -3.2085  C.ar    1  <O>11      -0.0176
  11 C8       -0.4615   -12.9135    -2.0012  C.ar    1  <O>11      -0.0540
  12 C9       -1.0459   -13.9271    -1.2331  C.ar    1  <O>11      -0.0609
  13 C10      -2.2262   -14.5425    -1.6579  C.ar    1  <O>11      -0.0582
  14 C11      -2.8216   -14.1350    -2.8563  C.ar    1  <O>11      -0.0409
  15 C12      -4.0690   -14.7865    -3.3002  C.3     1  <O>11       0.0168
  16 C13      -5.2360   -14.0478    -2.7521  C.ar    1  <O>11       0.0693
  17 N2       -5.0518   -12.8167    -2.1330  N.ar    1  <O>11      -0.1753
  18 N3       -6.1122   -12.1362    -1.6310  N.ar    1  <O>11      -0.2427
  19 C14      -7.3521   -12.6619    -1.7279  C.ar    1  <O>11       0.2682
  20 O2       -8.4124   -11.8981    -1.2037  O.2     1  <O>11      -0.2661
  21 C15      -7.6096   -13.9008    -2.3127  C.ar    1  <O>11       0.0232
  22 C16      -6.5157   -14.5895    -2.8600  C.ar    1  <O>11      -0.0158
  23 C17      -6.6593   -15.9380    -3.5144  C.3     1  <O>11      -0.0255
  24 C18      -8.0991   -16.2641    -3.9008  C.3     1  <O>11      -0.0487
  25 C19      -9.0370   -15.9607    -2.7418  C.3     1  <O>11      -0.0486
  26 C20      -9.0021   -14.4701    -2.4003  C.3     1  <O>11      -0.0222
  27 C21      -2.2494   -13.1230    -3.6303  C.ar    1  <O>11      -0.0505
  28 C22       0.8916   -11.1718    -3.8272  C.ar    1  <O>11      -0.0418
  29 H1        4.4990    -9.9410    -3.1660  H       1  <O>11       0.1882
  30 H2       -4.0888   -15.8157    -2.9424  H       1  <O>11       0.0377
  31 H3       -4.1148   -14.7800    -4.3895  H       1  <O>11       0.0377
  32 H4       -5.9693   -11.2398    -1.1887  H       1  <O>11       0.1921
  33 H5       -6.0466   -15.9527    -4.4162  H       1  <O>11       0.0314
  34 H6       -6.3047   -16.6998    -2.8214  H       1  <O>11       0.0314
  35 H7       -8.3861   -15.6620    -4.7623  H       1  <O>11       0.0268
  36 H8       -8.1729   -17.3217    -4.1546  H       1  <O>11       0.0268
  37 H9      -10.0541   -16.2405    -3.0199  H       1  <O>11       0.0269
  38 H10      -8.7277   -16.5365    -1.8689  H       1  <O>11       0.0269
  39 H11      -9.5478   -13.9275    -3.1720  H       1  <O>11       0.0315
  40 H12      -9.4931   -14.3260    -1.4381  H       1  <O>11       0.0315
  41 H13       1.1306    -8.7377    -6.1297  H       1  <O>11       0.0625
  42 H14      -1.2191    -9.2964    -6.4177  H       1  <O>11       0.0618
  43 H15      -2.2323   -11.0429    -5.0628  H       1  <O>11       0.0624
  44 H16       0.4092   -12.4617    -1.6805  H       1  <O>11       0.0624
  45 H17      -0.6028   -14.2214    -0.3487  H       1  <O>11       0.0618
  46 H18      -2.6553   -15.2914    -1.0921  H       1  <O>11       0.0620
  47 H19      -2.7007   -12.8266    -4.5098  H       1  <O>11       0.0626
  48 H20       1.4615   -11.6813    -3.1340  H       1  <O>11       0.0631
@<TRIPOS>BOND
     1     1     2    2
     2     2     3   am
     3     3     4    1
     4     2     5    1
     5     5     6   ar
     6     6     7   ar
     7     7     8   ar
     8     8     9   ar
     9     9    10    1
    10    10    11   ar
    11    11    12   ar
    12    12    13   ar
    13    13    14   ar
    14    14    15    1
    15    15    16    1
    16    16    17   ar
    17    17    18   ar
    18    18    19   ar
    19    19    20    2
    20    19    21   ar
    21    21    22   ar
    22    16    22   ar
    23    22    23    1
    24    23    24    1
    25    24    25    1
    26    25    26    1
    27    21    26    1
    28    14    27   ar
    29    10    27   ar
    30     9    28   ar
    31     5    28   ar
    32     3    29    1
    33    15    30    1
    34    15    31    1
    35    18    32    1
    36    23    33    1
    37    23    34    1
    38    24    35    1
    39    24    36    1
    40    25    37    1
    41    25    38    1
    42    26    39    1
    43    26    40    1
    44     6    41    1
    45     7    42    1
    46     8    43    1
    47    11    44    1
    48    12    45    1
    49    13    46    1
    50    27    47    1
    51    28    48    1
@<TRIPOS>MOLECULE
mol80_1_24
 48 51 0 0 0
SMALL
USER_CHARGES
****
VDW energy = 40.98
@<TRIPOS>ATOM
   1 O1        3.4420    -9.1855    -5.2979  O.2     1  <O>11      -0.2679
   2 C1        2.8552    -9.8129    -4.4288  C.2     1  <O>11       0.2706
   3 N1        3.5160   -10.1860    -3.2900  N.am    1  <O>11      -0.1481
   4 F1        2.8250   -10.9250    -2.2650  F       1  <O>11      -0.1090
   5 C2        1.4620   -10.1610    -4.6040  C.ar    1  <O>11       0.0395
   6 C3        0.6998    -9.4775    -5.5533  C.ar    1  <O>11      -0.0495
   7 C4       -0.6516    -9.8011    -5.7190  C.ar    1  <O>11      -0.0605
   8 C5       -1.2354   -10.8050    -4.9421  C.ar    1  <O>11      -0.0540
   9 C6       -0.4567   -11.4852    -3.9984  C.ar    1  <O>11      -0.0172
  10 C7       -1.0576   -12.5093    -3.2085  C.ar    1  <O>11      -0.0176
  11 C8       -0.2957   -13.2061    -2.2545  C.ar    1  <O>11      -0.0540
  12 C9       -0.8838   -14.2192    -1.4885  C.ar    1  <O>11      -0.0609
  13 C10      -2.2315   -14.5437    -1.6635  C.ar    1  <O>11      -0.0582
  14 C11      -2.9900   -13.8453    -2.6089  C.ar    1  <O>11      -0.0409
  15 C12      -4.4134   -14.1901    -2.7891  C.3     1  <O>11       0.0168
  16 C13      -5.1392   -13.9841    -1.5090  C.ar    1  <O>11       0.0693
  17 N2       -5.2426   -15.0247    -0.5927  N.ar    1  <O>11      -0.1753
  18 N3       -5.9029   -14.8440     0.5782  N.ar    1  <O>11      -0.2427
  19 C14      -6.4681   -13.6485     0.8509  C.ar    1  <O>11       0.2682
  20 O2       -7.1231   -13.5195     2.0905  O.2     1  <O>11      -0.2661
  21 C15      -6.4259   -12.5685    -0.0295  C.ar    1  <O>11       0.0232
  22 C16      -5.7154   -12.7467    -1.2269  C.ar    1  <O>11      -0.0158
  23 C17      -5.5994   -11.6607    -2.2633  C.3     1  <O>11      -0.0255
  24 C18      -5.9345   -10.2757    -1.7171  C.3     1  <O>11      -0.0487
  25 C19      -7.2270   -10.3241    -0.9159  C.3     1  <O>11      -0.0486
  26 C20      -7.0730   -11.2467     0.2944  C.3     1  <O>11      -0.0222
  27 C21      -2.4152   -12.8307    -3.3775  C.ar    1  <O>11      -0.0505
  28 C22       0.8916   -11.1718    -3.8272  C.ar    1  <O>11      -0.0418
  29 H1        4.4990    -9.9410    -3.1660  H       1  <O>11       0.1882
  30 H2       -4.4991   -15.2334    -3.0924  H       1  <O>11       0.0377
  31 H3       -4.8475   -13.5517    -3.5589  H       1  <O>11       0.0377
  32 H4       -5.9674   -15.6037     1.2402  H       1  <O>11       0.1921
  33 H5       -4.5757   -11.6471    -2.6381  H       1  <O>11       0.0314
  34 H6       -6.2830   -11.8862    -3.0807  H       1  <O>11       0.0314
  35 H7       -5.1243    -9.9371    -1.0720  H       1  <O>11       0.0268
  36 H8       -6.0534    -9.5802    -2.5482  H       1  <O>11       0.0268
  37 H9       -7.4738    -9.3190    -0.5708  H       1  <O>11       0.0269
  38 H10      -8.0304   -10.6971    -1.5519  H       1  <O>11       0.0269
  39 H11      -6.4616   -10.7377     1.0393  H       1  <O>11       0.0315
  40 H12      -8.0627   -11.4408     0.7072  H       1  <O>11       0.0315
  41 H13       1.1306    -8.7377    -6.1297  H       1  <O>11       0.0625
  42 H14      -1.2191    -9.2964    -6.4177  H       1  <O>11       0.0618
  43 H15      -2.2323   -11.0429    -5.0628  H       1  <O>11       0.0624
  44 H16       0.6997   -12.9701    -2.1186  H       1  <O>11       0.0624
  45 H17      -0.3192   -14.7290    -0.7911  H       1  <O>11       0.0618
  46 H18      -2.6639   -15.2924    -1.0999  H       1  <O>11       0.0620
  47 H19      -2.9860   -12.3182    -4.0678  H       1  <O>11       0.0626
  48 H20       1.4615   -11.6813    -3.1340  H       1  <O>11       0.0631
@<TRIPOS>BOND
     1     1     2    2
     2     2     3   am
     3     3     4    1
     4     2     5    1
     5     5     6   ar
     6     6     7   ar
     7     7     8   ar
     8     8     9   ar
     9     9    10    1
    10    10    11   ar
    11    11    12   ar
    12    12    13   ar
    13    13    14   ar
    14    14    15    1
    15    15    16    1
    16    16    17   ar
    17    17    18   ar
    18    18    19   ar
    19    19    20    2
    20    19    21   ar
    21    21    22   ar
    22    16    22   ar
    23    22    23    1
    24    23    24    1
    25    24    25    1
    26    25    26    1
    27    21    26    1
    28    14    27   ar
    29    10    27   ar
    30     9    28   ar
    31     5    28   ar
    32     3    29    1
    33    15    30    1
    34    15    31    1
    35    18    32    1
    36    23    33    1
    37    23    34    1
    38    24    35    1
    39    24    36    1
    40    25    37    1
    41    25    38    1
    42    26    39    1
    43    26    40    1
    44     6    41    1
    45     7    42    1
    46     8    43    1
    47    11    44    1
    48    12    45    1
    49    13    46    1
    50    27    47    1
    51    28    48    1
@<TRIPOS>MOLECULE
mol80_1_25
 48 51 0 0 0
SMALL
USER_CHARGES
****
VDW energy = 41.76
@<TRIPOS>ATOM
   1 O1        3.4420    -9.1855    -5.2979  O.2     1  <O>11      -0.2679
   2 C1        2.8552    -9.8129    -4.4288  C.2     1  <O>11       0.2706
   3 N1        3.5160   -10.1860    -3.2900  N.am    1  <O>11      -0.1481
   4 F1        2.8250   -10.9250    -2.2650  F       1  <O>11      -0.1090
   5 C2        1.4620   -10.1610    -4.6040  C.ar    1  <O>11       0.0395
   6 C3        0.6998    -9.4775    -5.5533  C.ar    1  <O>11      -0.0495
   7 C4       -0.6516    -9.8011    -5.7190  C.ar    1  <O>11      -0.0605
   8 C5       -1.2354   -10.8050    -4.9421  C.ar    1  <O>11      -0.0540
   9 C6       -0.4567   -11.4852    -3.9984  C.ar    1  <O>11      -0.0172
  10 C7       -1.0576   -12.5093    -3.2085  C.ar    1  <O>11      -0.0176
  11 C8       -2.1450   -12.2095    -2.3694  C.ar    1  <O>11      -0.0540
  12 C9       -2.7260   -13.2130    -1.5856  C.ar    1  <O>11      -0.0609
  13 C10      -2.2326   -14.5195    -1.6329  C.ar    1  <O>11      -0.0582
  14 C11      -1.1545   -14.8175    -2.4729  C.ar    1  <O>11      -0.0409
  15 C12      -0.6379   -16.1989    -2.5210  C.3     1  <O>11       0.0168
  16 C13      -1.3559   -16.9602    -3.5759  C.ar    1  <O>11       0.0693
  17 N2       -2.5200   -17.6532    -3.2632  N.ar    1  <O>11      -0.1753
  18 N3       -3.1813   -18.3497    -4.2209  N.ar    1  <O>11      -0.2427
  19 C14      -2.7016   -18.3747    -5.4827  C.ar    1  <O>11       0.2682
  20 O2       -3.4439   -19.1002    -6.4340  O.2     1  <O>11      -0.2661
  21 C15      -1.5288   -17.7246    -5.8637  C.ar    1  <O>11       0.0232
  22 C16      -0.8624   -16.9782    -4.8792  C.ar    1  <O>11      -0.0158
  23 C17       0.4163   -16.2348    -5.1608  C.3     1  <O>11      -0.0255
  24 C18       0.6655   -16.0180    -6.6507  C.3     1  <O>11      -0.0487
  25 C19       0.4427   -17.3140    -7.4160  C.3     1  <O>11      -0.0486
  26 C20      -1.0090   -17.7755    -7.2773  C.3     1  <O>11      -0.0222
  27 C21      -0.5679   -13.8254    -3.2616  C.ar    1  <O>11      -0.0505
  28 C22       0.8916   -11.1718    -3.8272  C.ar    1  <O>11      -0.0418
  29 H1        4.4990    -9.9410    -3.1660  H       1  <O>11       0.1882
  30 H2       -0.7940   -16.6793    -1.5553  H       1  <O>11       0.0377
  31 H3        0.4281   -16.1806    -2.7490  H       1  <O>11       0.0377
  32 H4       -4.0294   -18.8448    -3.9857  H       1  <O>11       0.1921
  33 H5        0.3660   -15.2612    -4.6726  H       1  <O>11       0.0314
  34 H6        1.2477   -16.8055    -4.7493  H       1  <O>11       0.0314
  35 H7       -0.0204   -15.2580    -7.0238  H       1  <O>11       0.0268
  36 H8        1.6931   -15.6858    -6.7991  H       1  <O>11       0.0268
  37 H9        0.6675   -17.1516    -8.4711  H       1  <O>11       0.0269
  38 H10       1.1040   -18.0845    -7.0182  H       1  <O>11       0.0269
  39 H11      -1.6347   -17.1337    -7.8973  H       1  <O>11       0.0315
  40 H12      -1.0786   -18.8036    -7.6319  H       1  <O>11       0.0315
  41 H13       1.1306    -8.7377    -6.1297  H       1  <O>11       0.0625
  42 H14      -1.2191    -9.2964    -6.4177  H       1  <O>11       0.0618
  43 H15      -2.2323   -11.0429    -5.0628  H       1  <O>11       0.0624
  44 H16      -2.5157   -11.2472    -2.3312  H       1  <O>11       0.0624
  45 H17      -3.5226   -12.9869    -0.9697  H       1  <O>11       0.0618
  46 H18      -2.6601   -15.2584    -1.0529  H       1  <O>11       0.0620
  47 H19       0.2233   -14.0582    -3.8820  H       1  <O>11       0.0626
  48 H20       1.4615   -11.6813    -3.1340  H       1  <O>11       0.0631
@<TRIPOS>BOND
     1     1     2    2
     2     2     3   am
     3     3     4    1
     4     2     5    1
     5     5     6   ar
     6     6     7   ar
     7     7     8   ar
     8     8     9   ar
     9     9    10    1
    10    10    11   ar
    11    11    12   ar
    12    12    13   ar
    13    13    14   ar
    14    14    15    1
    15    15    16    1
    16    16    17   ar
    17    17    18   ar
    18    18    19   ar
    19    19    20    2
    20    19    21   ar
    21    21    22   ar
    22    16    22   ar
    23    22    23    1
    24    23    24    1
    25    24    25    1
    26    25    26    1
    27    21    26    1
    28    14    27   ar
    29    10    27   ar
    30     9    28   ar
    31     5    28   ar
    32     3    29    1
    33    15    30    1
    34    15    31    1
    35    18    32    1
    36    23    33    1
    37    23    34    1
    38    24    35    1
    39    24    36    1
    40    25    37    1
    41    25    38    1
    42    26    39    1
    43    26    40    1
    44     6    41    1
    45     7    42    1
    46     8    43    1
    47    11    44    1
    48    12    45    1
    49    13    46    1
    50    27    47    1
    51    28    48    1
@<TRIPOS>MOLECULE
mol80_1_26
 48 51 0 0 0
SMALL
USER_CHARGES
****
VDW energy = 42.55
@<TRIPOS>ATOM
   1 O1        3.4420    -9.1855    -5.2979  O.2     1  <O>11      -0.2679
   2 C1        2.8552    -9.8129    -4.4288  C.2     1  <O>11       0.2706
   3 N1        3.5160   -10.1860    -3.2900  N.am    1  <O>11      -0.1481
   4 F1        2.8250   -10.9250    -2.2650  F       1  <O>11      -0.1090
   5 C2        1.4620   -10.1610    -4.6040  C.ar    1  <O>11       0.0395
   6 C3        0.6998    -9.4775    -5.5533  C.ar    1  <O>11      -0.0495
   7 C4       -0.6516    -9.8011    -5.7190  C.ar    1  <O>11      -0.0605
   8 C5       -1.2354   -10.8050    -4.9421  C.ar    1  <O>11      -0.0540
   9 C6       -0.4567   -11.4852    -3.9984  C.ar    1  <O>11      -0.0172
  10 C7       -1.0576   -12.5093    -3.2085  C.ar    1  <O>11      -0.0176
  11 C8       -0.4615   -12.9135    -2.0012  C.ar    1  <O>11      -0.0540
  12 C9       -1.0459   -13.9271    -1.2331  C.ar    1  <O>11      -0.0609
  13 C10      -2.2262   -14.5425    -1.6579  C.ar    1  <O>11      -0.0582
  14 C11      -2.8216   -14.1350    -2.8563  C.ar    1  <O>11      -0.0409
  15 C12      -4.0690   -14.7865    -3.3002  C.3     1  <O>11       0.0168
  16 C13      -4.3132   -14.4669    -4.7306  C.ar    1  <O>11       0.0693
  17 N2       -3.8030   -15.2939    -5.7250  N.ar    1  <O>11      -0.1753
  18 N3       -4.0224   -15.0092    -7.0328  N.ar    1  <O>11      -0.2427
  19 C14      -4.7345   -13.9125    -7.3693  C.ar    1  <O>11       0.2682
  20 O2       -4.9426   -13.6826    -8.7427  O.2     1  <O>11      -0.2661
  21 C15      -5.2554   -13.0255    -6.4285  C.ar    1  <O>11       0.0232
  22 C16      -5.0548   -13.3381    -5.0749  C.ar    1  <O>11      -0.0158
  23 C17      -5.5620   -12.4596    -3.9622  C.3     1  <O>11      -0.0255
  24 C18      -6.6418   -11.4823    -4.4178  C.3     1  <O>11      -0.0487
  25 C19      -6.2141   -10.7857    -5.7011  C.3     1  <O>11      -0.0486
  26 C20      -6.0393   -11.8027    -6.8302  C.3     1  <O>11      -0.0222
  27 C21      -2.2494   -13.1230    -3.6303  C.ar    1  <O>11      -0.0505
  28 C22       0.8916   -11.1718    -3.8272  C.ar    1  <O>11      -0.0418
  29 H1        4.4990    -9.9410    -3.1660  H       1  <O>11       0.1882
  30 H2       -4.9024   -14.4240    -2.6988  H       1  <O>11       0.0377
  31 H3       -3.9777   -15.8663    -3.1804  H       1  <O>11       0.0377
  32 H4       -3.6532   -15.6192    -7.7479  H       1  <O>11       0.1921
  33 H5       -5.9778   -13.0957    -3.1804  H       1  <O>11       0.0314
  34 H6       -4.7250   -11.8898    -3.5607  H       1  <O>11       0.0314
  35 H7       -7.5685   -12.0268    -4.5962  H       1  <O>11       0.0268
  36 H8       -6.8021   -10.7351    -3.6403  H       1  <O>11       0.0268
  37 H9       -6.9769   -10.0603    -5.9876  H       1  <O>11       0.0269
  38 H10      -5.2680   -10.2704    -5.5322  H       1  <O>11       0.0269
  39 H11      -7.0272   -12.1211    -7.1624  H       1  <O>11       0.0315
  40 H12      -5.5179   -11.3159    -7.6541  H       1  <O>11       0.0315
  41 H13       1.1306    -8.7377    -6.1297  H       1  <O>11       0.0625
  42 H14      -1.2191    -9.2964    -6.4177  H       1  <O>11       0.0618
  43 H15      -2.2323   -11.0429    -5.0628  H       1  <O>11       0.0624
  44 H16       0.4092   -12.4617    -1.6805  H       1  <O>11       0.0624
  45 H17      -0.6028   -14.2214    -0.3487  H       1  <O>11       0.0618
  46 H18      -2.6553   -15.2914    -1.0921  H       1  <O>11       0.0620
  47 H19      -2.7007   -12.8266    -4.5098  H       1  <O>11       0.0626
  48 H20       1.4615   -11.6813    -3.1340  H       1  <O>11       0.0631
@<TRIPOS>BOND
     1     1     2    2
     2     2     3   am
     3     3     4    1
     4     2     5    1
     5     5     6   ar
     6     6     7   ar
     7     7     8   ar
     8     8     9   ar
     9     9    10    1
    10    10    11   ar
    11    11    12   ar
    12    12    13   ar
    13    13    14   ar
    14    14    15    1
    15    15    16    1
    16    16    17   ar
    17    17    18   ar
    18    18    19   ar
    19    19    20    2
    20    19    21   ar
    21    21    22   ar
    22    16    22   ar
    23    22    23    1
    24    23    24    1
    25    24    25    1
    26    25    26    1
    27    21    26    1
    28    14    27   ar
    29    10    27   ar
    30     9    28   ar
    31     5    28   ar
    32     3    29    1
    33    15    30    1
    34    15    31    1
    35    18    32    1
    36    23    33    1
    37    23    34    1
    38    24    35    1
    39    24    36    1
    40    25    37    1
    41    25    38    1
    42    26    39    1
    43    26    40    1
    44     6    41    1
    45     7    42    1
    46     8    43    1
    47    11    44    1
    48    12    45    1
    49    13    46    1
    50    27    47    1
    51    28    48    1
@<TRIPOS>MOLECULE
mol80_1_27
 48 51 0 0 0
SMALL
USER_CHARGES
****
VDW energy = 47.54
@<TRIPOS>ATOM
   1 O1        3.4420    -9.1855    -5.2979  O.2     1  <O>11      -0.2679
   2 C1        2.8552    -9.8129    -4.4288  C.2     1  <O>11       0.2706
   3 N1        3.5160   -10.1860    -3.2900  N.am    1  <O>11      -0.1481
   4 F1        2.8250   -10.9250    -2.2650  F       1  <O>11      -0.1090
   5 C2        1.4620   -10.1610    -4.6040  C.ar    1  <O>11       0.0395
   6 C3        1.0134   -11.4175    -4.1926  C.ar    1  <O>11      -0.0495
   7 C4       -0.3305   -11.7649    -4.3706  C.ar    1  <O>11      -0.0605
   8 C5       -1.2205   -10.8590    -4.9532  C.ar    1  <O>11      -0.0540
   9 C6       -0.7568    -9.6008    -5.3553  C.ar    1  <O>11      -0.0172
  10 C7       -1.6698    -8.6799    -5.9490  C.ar    1  <O>11      -0.0176
  11 C8       -2.3432    -9.0169    -7.1361  C.ar    1  <O>11      -0.0540
  12 C9       -3.2297    -8.1073    -7.7241  C.ar    1  <O>11      -0.0609
  13 C10      -3.4544    -6.8602    -7.1353  C.ar    1  <O>11      -0.0582
  14 C11      -2.7882    -6.5288    -5.9508  C.ar    1  <O>11      -0.0409
  15 C12      -3.0298    -5.2113    -5.3316  C.3     1  <O>11       0.0168
  16 C13      -2.6444    -4.1379    -6.2841  C.ar    1  <O>11       0.0693
  17 N2       -1.3459    -3.6410    -6.2840  N.ar    1  <O>11      -0.1753
  18 N3       -0.9865    -2.6618    -7.1509  N.ar    1  <O>11      -0.2427
  19 C14      -1.8978    -2.1632    -8.0134  C.ar    1  <O>11       0.2682
  20 O2       -1.4574    -1.1616    -8.8996  O.2     1  <O>11      -0.2661
  21 C15      -3.2227    -2.5948    -8.0541  C.ar    1  <O>11       0.0232
  22 C16      -3.5853    -3.6301    -7.1783  C.ar    1  <O>11      -0.0158
  23 C17      -4.9850    -4.1820    -7.1201  C.3     1  <O>11      -0.0255
  24 C18      -5.8168    -3.8314    -8.3506  C.3     1  <O>11      -0.0487
  25 C19      -5.6757    -2.3522    -8.6778  C.3     1  <O>11      -0.0486
  26 C20      -4.2234    -2.0154    -9.0204  C.3     1  <O>11      -0.0222
  27 C21      -1.9031    -7.4288    -5.3532  C.ar    1  <O>11      -0.0505
  28 C22       0.5801    -9.2441    -5.1802  C.ar    1  <O>11      -0.0418
  29 H1        4.4990    -9.9410    -3.1660  H       1  <O>11       0.1882
  30 H2       -2.4351    -5.1222    -4.4227  H       1  <O>11       0.0377
  31 H3       -4.0872    -5.1142    -5.0843  H       1  <O>11       0.0377
  32 H4       -0.0394    -2.3116    -7.1477  H       1  <O>11       0.1921
  33 H5       -4.9265    -5.2676    -7.0391  H       1  <O>11       0.0314
  34 H6       -5.4813    -3.7777    -6.2389  H       1  <O>11       0.0314
  35 H7       -5.4716    -4.4216    -9.1989  H       1  <O>11       0.0268
  36 H8       -6.8649    -4.0566    -8.1526  H       1  <O>11       0.0268
  37 H9       -6.3102    -2.1110    -9.5318  H       1  <O>11       0.0269
  38 H10      -5.9874    -1.7620    -7.8155  H       1  <O>11       0.0269
  39 H11      -4.0058    -2.4036   -10.0152  H       1  <O>11       0.0315
  40 H12      -4.1125    -0.9313    -9.0208  H       1  <O>11       0.0315
  41 H13       1.6693   -12.0865    -3.7596  H       1  <O>11       0.0625
  42 H14      -0.6655   -12.6936    -4.0704  H       1  <O>11       0.0618
  43 H15      -2.2113   -11.1153    -5.0861  H       1  <O>11       0.0624
  44 H16      -2.1836    -9.9371    -7.5750  H       1  <O>11       0.0624
  45 H17      -3.7198    -8.3590    -8.5967  H       1  <O>11       0.0618
  46 H18      -4.1064    -6.1891    -7.5707  H       1  <O>11       0.0620
  47 H19      -1.4217    -7.1757    -4.4761  H       1  <O>11       0.0626
  48 H20       0.9141    -8.3127    -5.4733  H       1  <O>11       0.0631
@<TRIPOS>BOND
     1     1     2    2
     2     2     3   am
     3     3     4    1
     4     2     5    1
     5     5     6   ar
     6     6     7   ar
     7     7     8   ar
     8     8     9   ar
     9     9    10    1
    10    10    11   ar
    11    11    12   ar
    12    12    13   ar
    13    13    14   ar
    14    14    15    1
    15    15    16    1
    16    16    17   ar
    17    17    18   ar
    18    18    19   ar
    19    19    20    2
    20    19    21   ar
    21    21    22   ar
    22    16    22   ar
    23    22    23    1
    24    23    24    1
    25    24    25    1
    26    25    26    1
    27    21    26    1
    28    14    27   ar
    29    10    27   ar
    30     9    28   ar
    31     5    28   ar
    32     3    29    1
    33    15    30    1
    34    15    31    1
    35    18    32    1
    36    23    33    1
    37    23    34    1
    38    24    35    1
    39    24    36    1
    40    25    37    1
    41    25    38    1
    42    26    39    1
    43    26    40    1
    44     6    41    1
    45     7    42    1
    46     8    43    1
    47    11    44    1
    48    12    45    1
    49    13    46    1
    50    27    47    1
    51    28    48    1
@<TRIPOS>MOLECULE
mol80_1_28
 48 51 0 0 0
SMALL
USER_CHARGES
****
VDW energy = 48.77
@<TRIPOS>ATOM
   1 O1        3.4420    -9.1855    -5.2979  O.2     1  <O>11      -0.2679
   2 C1        2.8552    -9.8129    -4.4288  C.2     1  <O>11       0.2706
   3 N1        3.5160   -10.1860    -3.2900  N.am    1  <O>11      -0.1481
   4 F1        2.8250   -10.9250    -2.2650  F       1  <O>11      -0.1090
   5 C2        1.4620   -10.1610    -4.6040  C.ar    1  <O>11       0.0395
   6 C3        0.6998    -9.4775    -5.5533  C.ar    1  <O>11      -0.0495
   7 C4       -0.6516    -9.8011    -5.7190  C.ar    1  <O>11      -0.0605
   8 C5       -1.2354   -10.8050    -4.9421  C.ar    1  <O>11      -0.0540
   9 C6       -0.4567   -11.4852    -3.9984  C.ar    1  <O>11      -0.0172
  10 C7       -1.0576   -12.5093    -3.2085  C.ar    1  <O>11      -0.0176
  11 C8       -0.2957   -13.2061    -2.2545  C.ar    1  <O>11      -0.0540
  12 C9       -0.8838   -14.2192    -1.4885  C.ar    1  <O>11      -0.0609
  13 C10      -2.2315   -14.5437    -1.6635  C.ar    1  <O>11      -0.0582
  14 C11      -2.9900   -13.8453    -2.6089  C.ar    1  <O>11      -0.0409
  15 C12      -4.4134   -14.1901    -2.7891  C.3     1  <O>11       0.0168
  16 C13      -5.2430   -13.3655    -1.8728  C.ar    1  <O>11       0.0693
  17 N2       -5.7297   -12.1333    -2.2944  N.ar    1  <O>11      -0.1753
  18 N3       -6.4883   -11.3753    -1.4640  N.ar    1  <O>11      -0.2427
  19 C14      -6.7656   -11.8181    -0.2191  C.ar    1  <O>11       0.2682
  20 O2       -7.5730   -10.9932     0.5873  O.2     1  <O>11      -0.2661
  21 C15      -6.2922   -13.0305     0.2802  C.ar    1  <O>11       0.0232
  22 C16      -5.5338   -13.8285    -0.5907  C.ar    1  <O>11      -0.0158
  23 C17      -4.9605   -15.1563    -0.1721  C.3     1  <O>11      -0.0255
  24 C18      -5.6224   -15.7246     1.0800  C.3     1  <O>11      -0.0487
  25 C19      -5.7249   -14.6523     2.1544  C.3     1  <O>11      -0.0486
  26 C20      -6.6084   -13.4984     1.6773  C.3     1  <O>11      -0.0222
  27 C21      -2.4152   -12.8307    -3.3775  C.ar    1  <O>11      -0.0505
  28 C22       0.8916   -11.1718    -3.8272  C.ar    1  <O>11      -0.0418
  29 H1        4.4990    -9.9410    -3.1660  H       1  <O>11       0.1882
  30 H2       -4.5629   -15.2460    -2.5645  H       1  <O>11       0.0377
  31 H3       -4.7074   -13.9933    -3.8204  H       1  <O>11       0.0377
  32 H4       -6.8425   -10.4845    -1.7813  H       1  <O>11       0.1921
  33 H5       -5.0970   -15.8658    -0.9887  H       1  <O>11       0.0314
  34 H6       -3.8969   -15.0288     0.0249  H       1  <O>11       0.0314
  35 H7       -6.6218   -16.0792     0.8297  H       1  <O>11       0.0268
  36 H8       -5.0252   -16.5548     1.4575  H       1  <O>11       0.0268
  37 H9       -6.1595   -15.0870     3.0557  H       1  <O>11       0.0269
  38 H10      -4.7278   -14.2721     2.3790  H       1  <O>11       0.0269
  39 H11      -7.6472   -13.8270     1.7034  H       1  <O>11       0.0315
  40 H12      -6.4754   -12.6586     2.3590  H       1  <O>11       0.0315
  41 H13       1.1306    -8.7377    -6.1297  H       1  <O>11       0.0625
  42 H14      -1.2191    -9.2964    -6.4177  H       1  <O>11       0.0618
  43 H15      -2.2323   -11.0429    -5.0628  H       1  <O>11       0.0624
  44 H16       0.6997   -12.9701    -2.1186  H       1  <O>11       0.0624
  45 H17      -0.3192   -14.7290    -0.7911  H       1  <O>11       0.0618
  46 H18      -2.6639   -15.2924    -1.0999  H       1  <O>11       0.0620
  47 H19      -2.9860   -12.3182    -4.0678  H       1  <O>11       0.0626
  48 H20       1.4615   -11.6813    -3.1340  H       1  <O>11       0.0631
@<TRIPOS>BOND
     1     1     2    2
     2     2     3   am
     3     3     4    1
     4     2     5    1
     5     5     6   ar
     6     6     7   ar
     7     7     8   ar
     8     8     9   ar
     9     9    10    1
    10    10    11   ar
    11    11    12   ar
    12    12    13   ar
    13    13    14   ar
    14    14    15    1
    15    15    16    1
    16    16    17   ar
    17    17    18   ar
    18    18    19   ar
    19    19    20    2
    20    19    21   ar
    21    21    22   ar
    22    16    22   ar
    23    22    23    1
    24    23    24    1
    25    24    25    1
    26    25    26    1
    27    21    26    1
    28    14    27   ar
    29    10    27   ar
    30     9    28   ar
    31     5    28   ar
    32     3    29    1
    33    15    30    1
    34    15    31    1
    35    18    32    1
    36    23    33    1
    37    23    34    1
    38    24    35    1
    39    24    36    1
    40    25    37    1
    41    25    38    1
    42    26    39    1
    43    26    40    1
    44     6    41    1
    45     7    42    1
    46     8    43    1
    47    11    44    1
    48    12    45    1
    49    13    46    1
    50    27    47    1
    51    28    48    1
@<TRIPOS>MOLECULE
mol80_1_29
 48 51 0 0 0
SMALL
USER_CHARGES
****
VDW energy = 57.62
@<TRIPOS>ATOM
   1 O1        3.4420    -9.1855    -5.2979  O.2     1  <O>11      -0.2679
   2 C1        2.8552    -9.8129    -4.4288  C.2     1  <O>11       0.2706
   3 N1        3.5160   -10.1860    -3.2900  N.am    1  <O>11      -0.1481
   4 F1        2.8250   -10.9250    -2.2650  F       1  <O>11      -0.1090
   5 C2        1.4620   -10.1610    -4.6040  C.ar    1  <O>11       0.0395
   6 C3        0.6998    -9.4775    -5.5533  C.ar    1  <O>11      -0.0495
   7 C4       -0.6516    -9.8011    -5.7190  C.ar    1  <O>11      -0.0605
   8 C5       -1.2354   -10.8050    -4.9421  C.ar    1  <O>11      -0.0540
   9 C6       -0.4567   -11.4852    -3.9984  C.ar    1  <O>11      -0.0172
  10 C7       -1.0576   -12.5093    -3.2085  C.ar    1  <O>11      -0.0176
  11 C8       -0.2957   -13.2061    -2.2545  C.ar    1  <O>11      -0.0540
  12 C9       -0.8838   -14.2192    -1.4885  C.ar    1  <O>11      -0.0609
  13 C10      -2.2315   -14.5437    -1.6635  C.ar    1  <O>11      -0.0582
  14 C11      -2.9900   -13.8453    -2.6089  C.ar    1  <O>11      -0.0409
  15 C12      -4.4134   -14.1901    -2.7891  C.3     1  <O>11       0.0168
  16 C13      -5.2430   -13.3655    -1.8728  C.ar    1  <O>11       0.0693
  17 N2       -5.5331   -13.8256    -0.5933  N.ar    1  <O>11      -0.1753
  18 N3       -6.2890   -13.0783     0.2490  N.ar    1  <O>11      -0.2427
  19 C14      -6.7674   -11.8842    -0.1612  C.ar    1  <O>11       0.2682
  20 O2       -7.5299   -11.1487     0.7662  O.2     1  <O>11      -0.2661
  21 C15      -6.5381   -11.3703    -1.4366  C.ar    1  <O>11       0.0232
  22 C16      -5.7294   -12.1299    -2.2965  C.ar    1  <O>11      -0.0158
  23 C17      -5.4106   -11.6888    -3.7003  C.3     1  <O>11      -0.0255
  24 C18      -5.6714   -10.2034    -3.9334  C.3     1  <O>11      -0.0487
  25 C19      -7.0372    -9.8162    -3.3861  C.3     1  <O>11      -0.0486
  26 C20      -7.0912   -10.0384    -1.8737  C.3     1  <O>11      -0.0222
  27 C21      -2.4152   -12.8307    -3.3775  C.ar    1  <O>11      -0.0505
  28 C22       0.8916   -11.1718    -3.8272  C.ar    1  <O>11      -0.0418
  29 H1        4.4990    -9.9410    -3.1660  H       1  <O>11       0.1882
  30 H2       -4.5629   -15.2460    -2.5645  H       1  <O>11       0.0377
  31 H3       -4.7074   -13.9933    -3.8204  H       1  <O>11       0.0377
  32 H4       -6.4892   -13.4179     1.1787  H       1  <O>11       0.1921
  33 H5       -4.3573   -11.8908    -3.8964  H       1  <O>11       0.0314
  34 H6       -6.0258   -12.2621    -4.3926  H       1  <O>11       0.0314
  35 H7       -4.9031    -9.6192    -3.4279  H       1  <O>11       0.0268
  36 H8       -5.6417    -9.9963    -5.0033  H       1  <O>11       0.0268
  37 H9       -7.2248    -8.7631    -3.6002  H       1  <O>11       0.0269
  38 H10      -7.8029   -10.4265    -3.8663  H       1  <O>11       0.0269
  39 H11      -6.5143    -9.2506    -1.3895  H       1  <O>11       0.0315
  40 H12      -8.1311    -9.9767    -1.5537  H       1  <O>11       0.0315
  41 H13       1.1306    -8.7377    -6.1297  H       1  <O>11       0.0625
  42 H14      -1.2191    -9.2964    -6.4177  H       1  <O>11       0.0618
  43 H15      -2.2323   -11.0429    -5.0628  H       1  <O>11       0.0624
  44 H16       0.6997   -12.9701    -2.1186  H       1  <O>11       0.0624
  45 H17      -0.3192   -14.7290    -0.7911  H       1  <O>11       0.0618
  46 H18      -2.6639   -15.2924    -1.0999  H       1  <O>11       0.0620
  47 H19      -2.9860   -12.3182    -4.0678  H       1  <O>11       0.0626
  48 H20       1.4615   -11.6813    -3.1340  H       1  <O>11       0.0631
@<TRIPOS>BOND
     1     1     2    2
     2     2     3   am
     3     3     4    1
     4     2     5    1
     5     5     6   ar
     6     6     7   ar
     7     7     8   ar
     8     8     9   ar
     9     9    10    1
    10    10    11   ar
    11    11    12   ar
    12    12    13   ar
    13    13    14   ar
    14    14    15    1
    15    15    16    1
    16    16    17   ar
    17    17    18   ar
    18    18    19   ar
    19    19    20    2
    20    19    21   ar
    21    21    22   ar
    22    16    22   ar
    23    22    23    1
    24    23    24    1
    25    24    25    1
    26    25    26    1
    27    21    26    1
    28    14    27   ar
    29    10    27   ar
    30     9    28   ar
    31     5    28   ar
    32     3    29    1
    33    15    30    1
    34    15    31    1
    35    18    32    1
    36    23    33    1
    37    23    34    1
    38    24    35    1
    39    24    36    1
    40    25    37    1
    41    25    38    1
    42    26    39    1
    43    26    40    1
    44     6    41    1
    45     7    42    1
    46     8    43    1
    47    11    44    1
    48    12    45    1
    49    13    46    1
    50    27    47    1
    51    28    48    1
@<TRIPOS>MOLECULE
mol80_1_30
 48 51 0 0 0
SMALL
USER_CHARGES
****
VDW energy = 57.65
@<TRIPOS>ATOM
   1 O1        3.4420    -9.1855    -5.2979  O.2     1  <O>11      -0.2679
   2 C1        2.8552    -9.8129    -4.4288  C.2     1  <O>11       0.2706
   3 N1        3.5160   -10.1860    -3.2900  N.am    1  <O>11      -0.1481
   4 F1        4.9030    -9.8396    -3.1152  F       1  <O>11      -0.1090
   5 C2        1.4620   -10.1610    -4.6040  C.ar    1  <O>11       0.0395
   6 C3        0.6998    -9.4775    -5.5533  C.ar    1  <O>11      -0.0495
   7 C4       -0.6516    -9.8011    -5.7190  C.ar    1  <O>11      -0.0605
   8 C5       -1.2354   -10.8050    -4.9421  C.ar    1  <O>11      -0.0540
   9 C6       -0.4567   -11.4852    -3.9984  C.ar    1  <O>11      -0.0172
  10 C7       -1.0576   -12.5093    -3.2085  C.ar    1  <O>11      -0.0176
  11 C8       -0.2957   -13.2061    -2.2545  C.ar    1  <O>11      -0.0540
  12 C9       -0.8838   -14.2192    -1.4885  C.ar    1  <O>11      -0.0609
  13 C10      -2.2315   -14.5437    -1.6635  C.ar    1  <O>11      -0.0582
  14 C11      -2.9900   -13.8453    -2.6089  C.ar    1  <O>11      -0.0409
  15 C12      -4.4134   -14.1901    -2.7891  C.3     1  <O>11       0.0168
  16 C13      -5.2430   -13.3655    -1.8728  C.ar    1  <O>11       0.0693
  17 N2       -5.5331   -13.8256    -0.5933  N.ar    1  <O>11      -0.1753
  18 N3       -6.2890   -13.0783     0.2490  N.ar    1  <O>11      -0.2427
  19 C14      -6.7674   -11.8842    -0.1612  C.ar    1  <O>11       0.2682
  20 O2       -7.5299   -11.1487     0.7662  O.2     1  <O>11      -0.2661
  21 C15      -6.5381   -11.3703    -1.4366  C.ar    1  <O>11       0.0232
  22 C16      -5.7294   -12.1299    -2.2965  C.ar    1  <O>11      -0.0158
  23 C17      -5.4106   -11.6888    -3.7003  C.3     1  <O>11      -0.0255
  24 C18      -5.6714   -10.2034    -3.9334  C.3     1  <O>11      -0.0487
  25 C19      -7.0372    -9.8162    -3.3861  C.3     1  <O>11      -0.0486
  26 C20      -7.0912   -10.0384    -1.8737  C.3     1  <O>11      -0.0222
  27 C21      -2.4152   -12.8307    -3.3775  C.ar    1  <O>11      -0.0505
  28 C22       0.8916   -11.1718    -3.8272  C.ar    1  <O>11      -0.0418
  29 H1        3.0266   -10.7100    -2.5636  H       1  <O>11       0.1882
  30 H2       -4.5629   -15.2460    -2.5645  H       1  <O>11       0.0377
  31 H3       -4.7074   -13.9933    -3.8204  H       1  <O>11       0.0377
  32 H4       -6.4892   -13.4179     1.1787  H       1  <O>11       0.1921
  33 H5       -4.3573   -11.8908    -3.8964  H       1  <O>11       0.0314
  34 H6       -6.0258   -12.2621    -4.3926  H       1  <O>11       0.0314
  35 H7       -4.9031    -9.6192    -3.4279  H       1  <O>11       0.0268
  36 H8       -5.6417    -9.9963    -5.0033  H       1  <O>11       0.0268
  37 H9       -7.2248    -8.7631    -3.6002  H       1  <O>11       0.0269
  38 H10      -7.8029   -10.4265    -3.8663  H       1  <O>11       0.0269
  39 H11      -6.5143    -9.2506    -1.3895  H       1  <O>11       0.0315
  40 H12      -8.1311    -9.9767    -1.5537  H       1  <O>11       0.0315
  41 H13       1.1306    -8.7377    -6.1297  H       1  <O>11       0.0625
  42 H14      -1.2191    -9.2964    -6.4177  H       1  <O>11       0.0618
  43 H15      -2.2323   -11.0429    -5.0628  H       1  <O>11       0.0624
  44 H16       0.6997   -12.9701    -2.1186  H       1  <O>11       0.0624
  45 H17      -0.3192   -14.7290    -0.7911  H       1  <O>11       0.0618
  46 H18      -2.6639   -15.2924    -1.0999  H       1  <O>11       0.0620
  47 H19      -2.9860   -12.3182    -4.0678  H       1  <O>11       0.0626
  48 H20       1.4615   -11.6813    -3.1340  H       1  <O>11       0.0631
@<TRIPOS>BOND
     1     1     2    2
     2     2     3   am
     3     3     4    1
     4     2     5    1
     5     5     6   ar
     6     6     7   ar
     7     7     8   ar
     8     8     9   ar
     9     9    10    1
    10    10    11   ar
    11    11    12   ar
    12    12    13   ar
    13    13    14   ar
    14    14    15    1
    15    15    16    1
    16    16    17   ar
    17    17    18   ar
    18    18    19   ar
    19    19    20    2
    20    19    21   ar
    21    21    22   ar
    22    16    22   ar
    23    22    23    1
    24    23    24    1
    25    24    25    1
    26    25    26    1
    27    21    26    1
    28    14    27   ar
    29    10    27   ar
    30     9    28   ar
    31     5    28   ar
    32     3    29    1
    33    15    30    1
    34    15    31    1
    35    18    32    1
    36    23    33    1
    37    23    34    1
    38    24    35    1
    39    24    36    1
    40    25    37    1
    41    25    38    1
    42    26    39    1
    43    26    40    1
    44     6    41    1
    45     7    42    1
    46     8    43    1
    47    11    44    1
    48    12    45    1
    49    13    46    1
    50    27    47    1
    51    28    48    1
