@<TRIPOS>MOLECULE
mol83_1_1
 41 43 0 0 0
SMALL
USER_CHARGES
****
VDW energy = -84.97
@<TRIPOS>ATOM
   1 O1        2.8124    -6.3749     2.8314  O.2     1  <O>11      -0.2743
   2 C1        2.5669    -5.2321     3.1878  C.2     1  <O>11       0.2295
   3 C2        2.8470    -4.0880     2.2710  C.3     1  <O>11       0.0322
   4 C3        3.4300    -4.6140     0.9690  C.3     1  <O>11       0.0138
   5 C4        3.7070    -3.4830     0.0620  C.ar    1  <O>11       0.1108
   6 N1        4.9631    -3.2587    -0.3685  N.ar    1  <O>11      -0.2337
   7 C5        5.1703    -2.2192    -1.1892  C.ar    1  <O>11       0.0781
   8 C6        6.4584    -1.9663    -1.6476  C.ar    1  <O>11      -0.0355
   9 C7        6.7417    -0.8982    -2.5055  C.ar    1  <O>11      -0.0597
  10 C8        5.7196    -0.0561    -2.9226  C.ar    1  <O>11      -0.0609
  11 C9        4.4200    -0.2879    -2.4781  C.ar    1  <O>11      -0.0474
  12 C10       4.1426    -1.3712    -1.6080  C.ar    1  <O>11       0.0647
  13 C11       2.8866    -1.6967    -1.1011  C.ar    1  <O>11       0.2592
  14 O2        1.8245    -0.8621    -1.5012  O.2     1  <O>11      -0.2672
  15 N2        2.6518    -2.7365    -0.2763  N.ar    1  <O>11      -0.3103
  16 N3        2.0350    -5.0010     4.4280  N.am    1  <O>11      -0.2341
  17 N4        1.7771    -6.0540     5.2720  N.am    1  <O>11      -0.2304
  18 C12       1.2451    -5.8230     6.5130  C.2     1  <O>11       0.2601
  19 O3        1.0000    -4.6810     6.8690  O.2     1  <O>11      -0.2687
  20 C13       0.9722    -6.9410     7.4071  C.ar    1  <O>11       0.0383
  21 C14       1.8714    -8.0173     7.4903  C.ar    1  <O>11      -0.0469
  22 C15       1.6038    -9.0963     8.3395  C.ar    1  <O>11      -0.0257
  23 C16       0.4399    -9.1105     9.1135  C.ar    1  <O>11       0.1234
  24 F1        0.1692   -10.1656     9.9466  F       1  <O>11      -0.2055
  25 C17      -0.4529    -8.0358     9.0341  C.ar    1  <O>11      -0.0257
  26 C18      -0.1928    -6.9536     8.1919  C.ar    1  <O>11      -0.0469
  27 H1        1.9200    -3.5530     2.0650  H       1  <O>11       0.0363
  28 H2        3.5600    -3.4120     2.7420  H       1  <O>11       0.0363
  29 H3        4.3560    -5.1500     1.1770  H       1  <O>11       0.0348
  30 H4        2.7170    -5.2910     0.4990  H       1  <O>11       0.0348
  31 H5        1.7452    -2.9821     0.0940  H       1  <O>11       0.1700
  32 H6        1.8299    -4.0470     4.7250  H       1  <O>11       0.1728
  33 H7        1.9822    -7.0080     4.9751  H       1  <O>11       0.1731
  34 H8        7.2279    -2.5845    -1.3462  H       1  <O>11       0.0639
  35 H9        7.7086    -0.7364    -2.8277  H       1  <O>11       0.0618
  36 H10       5.9207     0.7336    -3.5558  H       1  <O>11       0.0618
  37 H11       3.6547     0.3331    -2.7842  H       1  <O>11       0.0626
  38 H12       2.7332    -8.0119     6.9225  H       1  <O>11       0.0626
  39 H13       2.2678    -9.8843     8.3947  H       1  <O>11       0.0646
  40 H14      -1.3129    -8.0435     9.6045  H       1  <O>11       0.0646
  41 H15      -0.8554    -6.1637     8.1459  H       1  <O>11       0.0626
@<TRIPOS>BOND
     1     1     2    2
     2     2     3    1
     3     3     4    1
     4     4     5    1
     5     5     6   ar
     6     6     7   ar
     7     7     8   ar
     8     8     9   ar
     9     9    10   ar
    10    10    11   ar
    11    11    12   ar
    12     7    12   ar
    13    12    13   ar
    14    13    14    2
    15    13    15   ar
    16     5    15   ar
    17     2    16   am
    18    16    17    1
    19    17    18   am
    20    18    19    2
    21    18    20    1
    22    20    21   ar
    23    21    22   ar
    24    22    23   ar
    25    23    24    1
    26    23    25   ar
    27    25    26   ar
    28    20    26   ar
    29     3    27    1
    30     3    28    1
    31     4    29    1
    32     4    30    1
    33    15    31    1
    34    16    32    1
    35    17    33    1
    36     8    34    1
    37     9    35    1
    38    10    36    1
    39    11    37    1
    40    21    38    1
    41    22    39    1
    42    25    40    1
    43    26    41    1
@<TRIPOS>MOLECULE
mol83_1_2
 41 43 0 0 0
SMALL
USER_CHARGES
****
VDW energy = -83.20
@<TRIPOS>ATOM
   1 O1        2.8124    -6.3749     2.8314  O.2     1  <O>11      -0.2743
   2 C1        2.5669    -5.2321     3.1878  C.2     1  <O>11       0.2295
   3 C2        2.8470    -4.0880     2.2710  C.3     1  <O>11       0.0322
   4 C3        3.5401    -2.9777     3.0447  C.3     1  <O>11       0.0138
   5 C4        3.8174    -1.8461     2.1384  C.ar    1  <O>11       0.1108
   6 N1        3.4580    -1.9190     0.8427  N.ar    1  <O>11      -0.2337
   7 C5        3.7310    -0.8696     0.0545  C.ar    1  <O>11       0.0781
   8 C6        3.3701    -0.9202    -1.2874  C.ar    1  <O>11      -0.0355
   9 C7        3.6265     0.1405    -2.1626  C.ar    1  <O>11      -0.0597
  10 C8        4.2578     1.2855    -1.6957  C.ar    1  <O>11      -0.0609
  11 C9        4.6295     1.3618    -0.3554  C.ar    1  <O>11      -0.0474
  12 C10       4.3672     0.2818     0.5235  C.ar    1  <O>11       0.0647
  13 C11       4.6936     0.2469     1.8773  C.ar    1  <O>11       0.2592
  14 O2        5.3381     1.3915     2.3863  O.2     1  <O>11      -0.2672
  15 N2        4.4289    -0.7945     2.6909  N.ar    1  <O>11      -0.3103
  16 N3        2.0350    -5.0010     4.4280  N.am    1  <O>11      -0.2341
  17 N4        1.7770    -6.0540     5.2720  N.am    1  <O>11      -0.2304
  18 C12       1.2450    -5.8230     6.5130  C.2     1  <O>11       0.2601
  19 O3        1.0000    -4.6810     6.8690  O.2     1  <O>11      -0.2687
  20 C13       0.9720    -6.9410     7.4070  C.ar    1  <O>11       0.0383
  21 C14       1.8711    -8.0174     7.4902  C.ar    1  <O>11      -0.0469
  22 C15       1.6034    -9.0964     8.3394  C.ar    1  <O>11      -0.0257
  23 C16       0.4395    -9.1105     9.1133  C.ar    1  <O>11       0.1234
  24 F1        0.1687   -10.1656     9.9464  F       1  <O>11      -0.2055
  25 C17      -0.4532    -8.0358     9.0339  C.ar    1  <O>11      -0.0257
  26 C18      -0.1931    -6.9535     8.1918  C.ar    1  <O>11      -0.0469
  27 H1        3.4921    -4.4235     1.4590  H       1  <O>11       0.0363
  28 H2        1.9095    -3.7147     1.8601  H       1  <O>11       0.0363
  29 H3        2.8943    -2.6445     3.8571  H       1  <O>11       0.0348
  30 H4        4.4770    -3.3520     3.4565  H       1  <O>11       0.0348
  31 H5        4.6588    -0.8281     3.6736  H       1  <O>11       0.1700
  32 H6        1.8300    -4.0470     4.7250  H       1  <O>11       0.1728
  33 H7        1.9820    -7.0080     4.9750  H       1  <O>11       0.1731
  34 H8        2.8995    -1.7649    -1.6481  H       1  <O>11       0.0639
  35 H9        3.3468     0.0721    -3.1536  H       1  <O>11       0.0618
  36 H10       4.4499     2.0723    -2.3353  H       1  <O>11       0.0618
  37 H11       5.0986     2.2097    -0.0005  H       1  <O>11       0.0626
  38 H12       2.7329    -8.0120     6.9224  H       1  <O>11       0.0626
  39 H13       2.2674    -9.8845     8.3945  H       1  <O>11       0.0646
  40 H14      -1.3132    -8.0434     9.6043  H       1  <O>11       0.0646
  41 H15      -0.8556    -6.1636     8.1458  H       1  <O>11       0.0626
@<TRIPOS>BOND
     1     1     2    2
     2     2     3    1
     3     3     4    1
     4     4     5    1
     5     5     6   ar
     6     6     7   ar
     7     7     8   ar
     8     8     9   ar
     9     9    10   ar
    10    10    11   ar
    11    11    12   ar
    12     7    12   ar
    13    12    13   ar
    14    13    14    2
    15    13    15   ar
    16     5    15   ar
    17     2    16   am
    18    16    17    1
    19    17    18   am
    20    18    19    2
    21    18    20    1
    22    20    21   ar
    23    21    22   ar
    24    22    23   ar
    25    23    24    1
    26    23    25   ar
    27    25    26   ar
    28    20    26   ar
    29     3    27    1
    30     3    28    1
    31     4    29    1
    32     4    30    1
    33    15    31    1
    34    16    32    1
    35    17    33    1
    36     8    34    1
    37     9    35    1
    38    10    36    1
    39    11    37    1
    40    21    38    1
    41    22    39    1
    42    25    40    1
    43    26    41    1
@<TRIPOS>MOLECULE
mol83_1_3
 41 43 0 0 0
SMALL
USER_CHARGES
****
VDW energy = -82.66
@<TRIPOS>ATOM
   1 O1        2.8124    -6.3749     2.8314  O.2     1  <O>11      -0.2743
   2 C1        2.5669    -5.2321     3.1878  C.2     1  <O>11       0.2295
   3 C2        2.8470    -4.0880     2.2710  C.3     1  <O>11       0.0322
   4 C3        3.4298    -4.6140     0.9689  C.3     1  <O>11       0.0138
   5 C4        3.7068    -3.4830     0.0619  C.ar    1  <O>11       0.1108
   6 N1        2.7583    -3.0616    -0.7961  N.ar    1  <O>11      -0.2337
   7 C5        3.0530    -2.0328    -1.6034  C.ar    1  <O>11       0.0781
   8 C6        2.0906    -1.5789    -2.4986  C.ar    1  <O>11      -0.0355
   9 C7        2.3347    -0.5104    -3.3679  C.ar    1  <O>11      -0.0597
  10 C8        3.5673     0.1283    -3.3500  C.ar    1  <O>11      -0.0609
  11 C9        4.5488    -0.3068    -2.4624  C.ar    1  <O>11      -0.0474
  12 C10       4.2932    -1.3909    -1.5866  C.ar    1  <O>11       0.0647
  13 C11       5.1963    -1.9099    -0.6616  C.ar    1  <O>11       0.2592
  14 O2        6.4595    -1.2879    -0.6166  O.2     1  <O>11      -0.2672
  15 N2        4.9242    -2.9417     0.1618  N.ar    1  <O>11      -0.3103
  16 N3        2.0350    -5.0010     4.4280  N.am    1  <O>11      -0.2341
  17 N4        1.7770    -6.0540     5.2720  N.am    1  <O>11      -0.2304
  18 C12       1.2450    -5.8230     6.5130  C.2     1  <O>11       0.2601
  19 O3        1.0000    -4.6810     6.8690  O.2     1  <O>11      -0.2687
  20 C13       0.9720    -6.9410     7.4070  C.ar    1  <O>11       0.0383
  21 C14       0.4280    -6.7120     8.6820  C.ar    1  <O>11      -0.0469
  22 C15       0.1770    -7.7840     9.5450  C.ar    1  <O>11      -0.0257
  23 C16       0.4640    -9.0920     9.1440  C.ar    1  <O>11       0.1234
  24 F1        0.2230   -10.1480     9.9850  F       1  <O>11      -0.2055
  25 C17       1.0010    -9.3200     7.8720  C.ar    1  <O>11      -0.0257
  26 C18       1.2520    -8.2570     7.0030  C.ar    1  <O>11      -0.0469
  27 H1        1.9200    -3.5529     2.0651  H       1  <O>11       0.0363
  28 H2        3.5601    -3.4121     2.7419  H       1  <O>11       0.0363
  29 H3        4.3558    -5.1501     1.1768  H       1  <O>11       0.0348
  30 H4        2.7167    -5.2909     0.4990  H       1  <O>11       0.0348
  31 H5        5.5707    -3.3230     0.8372  H       1  <O>11       0.1700
  32 H6        1.8300    -4.0470     4.7250  H       1  <O>11       0.1728
  33 H7        1.9820    -7.0080     4.9750  H       1  <O>11       0.1731
  34 H8        1.1696    -2.0439    -2.5223  H       1  <O>11       0.0639
  35 H9        1.5998    -0.1975    -4.0213  H       1  <O>11       0.0618
  36 H10       3.7546     0.9175    -3.9879  H       1  <O>11       0.0618
  37 H11       5.4673     0.1632    -2.4425  H       1  <O>11       0.0626
  38 H12       0.2126    -5.7487     8.9832  H       1  <O>11       0.0626
  39 H13      -0.2213    -7.6086    10.4807  H       1  <O>11       0.0646
  40 H14       1.2137   -10.2846     7.5732  H       1  <O>11       0.0646
  41 H15       1.6427    -8.4375     6.0650  H       1  <O>11       0.0626
@<TRIPOS>BOND
     1     1     2    2
     2     2     3    1
     3     3     4    1
     4     4     5    1
     5     5     6   ar
     6     6     7   ar
     7     7     8   ar
     8     8     9   ar
     9     9    10   ar
    10    10    11   ar
    11    11    12   ar
    12     7    12   ar
    13    12    13   ar
    14    13    14    2
    15    13    15   ar
    16     5    15   ar
    17     2    16   am
    18    16    17    1
    19    17    18   am
    20    18    19    2
    21    18    20    1
    22    20    21   ar
    23    21    22   ar
    24    22    23   ar
    25    23    24    1
    26    23    25   ar
    27    25    26   ar
    28    20    26   ar
    29     3    27    1
    30     3    28    1
    31     4    29    1
    32     4    30    1
    33    15    31    1
    34    16    32    1
    35    17    33    1
    36     8    34    1
    37     9    35    1
    38    10    36    1
    39    11    37    1
    40    21    38    1
    41    22    39    1
    42    25    40    1
    43    26    41    1
@<TRIPOS>MOLECULE
mol83_1_4
 41 43 0 0 0
SMALL
USER_CHARGES
****
VDW energy = -81.93
@<TRIPOS>ATOM
   1 O1        2.8124    -6.3749     2.8314  O.2     1  <O>11      -0.2743
   2 C1        2.5669    -5.2321     3.1878  C.2     1  <O>11       0.2295
   3 C2        2.8470    -4.0880     2.2710  C.3     1  <O>11       0.0322
   4 C3        3.4300    -4.6140     0.9690  C.3     1  <O>11       0.0138
   5 C4        3.7070    -3.4830     0.0620  C.ar    1  <O>11       0.1108
   6 N1        3.4350    -2.2240     0.4550  N.ar    1  <O>11      -0.2337
   7 C5        3.7000    -1.2270    -0.4010  C.ar    1  <O>11       0.0781
   8 C6        3.4280     0.0820    -0.0190  C.ar    1  <O>11      -0.0355
   9 C7        3.6810     1.1670    -0.8650  C.ar    1  <O>11      -0.0597
  10 C8        4.2200     0.9500    -2.1260  C.ar    1  <O>11      -0.0609
  11 C9        4.5020    -0.3520    -2.5330  C.ar    1  <O>11      -0.0474
  12 C10       4.2410    -1.4450    -1.6700  C.ar    1  <O>11       0.0647
  13 C11       4.4810    -2.7840    -1.9700  C.ar    1  <O>11       0.2592
  14 O2        5.0260    -3.0430    -3.2430  O.2     1  <O>11      -0.2672
  15 N2        4.2250    -3.8040    -1.1270  N.ar    1  <O>11      -0.3103
  16 N3        2.0350    -5.0010     4.4280  N.am    1  <O>11      -0.2341
  17 N4        1.7770    -6.0540     5.2720  N.am    1  <O>11      -0.2304
  18 C12       1.2450    -5.8230     6.5130  C.2     1  <O>11       0.2601
  19 O3        1.0000    -4.6810     6.8690  O.2     1  <O>11      -0.2687
  20 C13       0.9720    -6.9410     7.4070  C.ar    1  <O>11       0.0383
  21 C14       0.4280    -6.7120     8.6820  C.ar    1  <O>11      -0.0469
  22 C15       0.1770    -7.7840     9.5450  C.ar    1  <O>11      -0.0257
  23 C16       0.4640    -9.0920     9.1440  C.ar    1  <O>11       0.1234
  24 F1        0.2230   -10.1480     9.9850  F       1  <O>11      -0.2055
  25 C17       1.0010    -9.3200     7.8720  C.ar    1  <O>11      -0.0257
  26 C18       1.2520    -8.2570     7.0030  C.ar    1  <O>11      -0.0469
  27 H1        1.9200    -3.5530     2.0650  H       1  <O>11       0.0363
  28 H2        3.5600    -3.4120     2.7420  H       1  <O>11       0.0363
  29 H3        4.3560    -5.1500     1.1770  H       1  <O>11       0.0348
  30 H4        2.7170    -5.2910     0.4990  H       1  <O>11       0.0348
  31 H5        4.3980    -4.7770    -1.3340  H       1  <O>11       0.1700
  32 H6        1.8300    -4.0470     4.7250  H       1  <O>11       0.1728
  33 H7        1.9820    -7.0080     4.9750  H       1  <O>11       0.1731
  34 H8        3.0278     0.2582     0.9158  H       1  <O>11       0.0639
  35 H9        3.4674     2.1270    -0.5524  H       1  <O>11       0.0618
  36 H10       4.4098     1.7454    -2.7555  H       1  <O>11       0.0618
  37 H11       4.9034    -0.5215    -3.4685  H       1  <O>11       0.0626
  38 H12       0.2126    -5.7487     8.9832  H       1  <O>11       0.0626
  39 H13      -0.2213    -7.6086    10.4807  H       1  <O>11       0.0646
  40 H14       1.2137   -10.2846     7.5732  H       1  <O>11       0.0646
  41 H15       1.6427    -8.4375     6.0650  H       1  <O>11       0.0626
@<TRIPOS>BOND
     1     1     2    2
     2     2     3    1
     3     3     4    1
     4     4     5    1
     5     5     6   ar
     6     6     7   ar
     7     7     8   ar
     8     8     9   ar
     9     9    10   ar
    10    10    11   ar
    11    11    12   ar
    12     7    12   ar
    13    12    13   ar
    14    13    14    2
    15    13    15   ar
    16     5    15   ar
    17     2    16   am
    18    16    17    1
    19    17    18   am
    20    18    19    2
    21    18    20    1
    22    20    21   ar
    23    21    22   ar
    24    22    23   ar
    25    23    24    1
    26    23    25   ar
    27    25    26   ar
    28    20    26   ar
    29     3    27    1
    30     3    28    1
    31     4    29    1
    32     4    30    1
    33    15    31    1
    34    16    32    1
    35    17    33    1
    36     8    34    1
    37     9    35    1
    38    10    36    1
    39    11    37    1
    40    21    38    1
    41    22    39    1
    42    25    40    1
    43    26    41    1
@<TRIPOS>MOLECULE
mol83_1_5
 41 43 0 0 0
SMALL
USER_CHARGES
****
VDW energy = -80.99
@<TRIPOS>ATOM
   1 O1        2.8124    -6.3749     2.8314  O.2     1  <O>11      -0.2743
   2 C1        2.5669    -5.2321     3.1878  C.2     1  <O>11       0.2295
   3 C2        2.8470    -4.0880     2.2710  C.3     1  <O>11       0.0322
   4 C3        3.4300    -4.6140     0.9690  C.3     1  <O>11       0.0138
   5 C4        2.4637    -5.5303     0.3324  C.ar    1  <O>11       0.1108
   6 N1        1.2797    -5.7761     0.9249  N.ar    1  <O>11      -0.2337
   7 C5        0.4329    -6.6163     0.3134  C.ar    1  <O>11       0.0781
   8 C6       -0.7960    -6.8867     0.9049  C.ar    1  <O>11      -0.0355
   9 C7       -1.7241    -7.7539     0.3187  C.ar    1  <O>11      -0.0597
  10 C8       -1.4274    -8.3710    -0.8891  C.ar    1  <O>11      -0.0609
  11 C9       -0.2030    -8.1168    -1.5028  C.ar    1  <O>11      -0.0474
  12 C10       0.7316    -7.2382    -0.9010  C.ar    1  <O>11       0.0647
  13 C11       1.9819    -6.9119    -1.4214  C.ar    1  <O>11       0.2592
  14 O2        2.3188    -7.5215    -2.6459  O.2     1  <O>11      -0.2672
  15 N2        2.8502    -6.0695    -0.8273  N.ar    1  <O>11      -0.3103
  16 N3        2.0350    -5.0010     4.4280  N.am    1  <O>11      -0.2341
  17 N4        1.7770    -6.0540     5.2720  N.am    1  <O>11      -0.2304
  18 C12       1.2450    -5.8230     6.5130  C.2     1  <O>11       0.2601
  19 O3        1.0000    -4.6810     6.8690  O.2     1  <O>11      -0.2687
  20 C13       0.9720    -6.9410     7.4070  C.ar    1  <O>11       0.0383
  21 C14      -0.2788    -7.5804     7.3801  C.ar    1  <O>11      -0.0469
  22 C15      -0.5453    -8.6459     8.2466  C.ar    1  <O>11      -0.0257
  23 C16       0.4324    -9.0838     9.1446  C.ar    1  <O>11       0.1234
  24 F1        0.1781   -10.1260     9.9988  F       1  <O>11      -0.2055
  25 C17       1.6798    -8.4499     9.1674  C.ar    1  <O>11      -0.0257
  26 C18       1.9558    -7.3880     8.3047  C.ar    1  <O>11      -0.0469
  27 H1        1.9200    -3.5530     2.0650  H       1  <O>11       0.0363
  28 H2        3.5600    -3.4120     2.7420  H       1  <O>11       0.0363
  29 H3        3.6354    -3.7782     0.3001  H       1  <O>11       0.0348
  30 H4        4.3566    -5.1490     1.1758  H       1  <O>11       0.0348
  31 H5        3.7571    -5.8246    -1.1978  H       1  <O>11       0.1700
  32 H6        1.8300    -4.0470     4.7250  H       1  <O>11       0.1728
  33 H7        1.9820    -7.0080     4.9750  H       1  <O>11       0.1731
  34 H8       -1.0302    -6.4346     1.8026  H       1  <O>11       0.0639
  35 H9       -2.6277    -7.9347     0.7832  H       1  <O>11       0.0618
  36 H10      -2.1071    -9.0115    -1.3279  H       1  <O>11       0.0618
  37 H11       0.0248    -8.5710    -2.4011  H       1  <O>11       0.0626
  38 H12      -1.0041    -7.2627     6.7183  H       1  <O>11       0.0626
  39 H13      -1.4666    -9.1102     8.2226  H       1  <O>11       0.0646
  40 H14       2.4035    -8.7711     9.8292  H       1  <O>11       0.0646
  41 H15       2.8813    -6.9318     8.3261  H       1  <O>11       0.0626
@<TRIPOS>BOND
     1     1     2    2
     2     2     3    1
     3     3     4    1
     4     4     5    1
     5     5     6   ar
     6     6     7   ar
     7     7     8   ar
     8     8     9   ar
     9     9    10   ar
    10    10    11   ar
    11    11    12   ar
    12     7    12   ar
    13    12    13   ar
    14    13    14    2
    15    13    15   ar
    16     5    15   ar
    17     2    16   am
    18    16    17    1
    19    17    18   am
    20    18    19    2
    21    18    20    1
    22    20    21   ar
    23    21    22   ar
    24    22    23   ar
    25    23    24    1
    26    23    25   ar
    27    25    26   ar
    28    20    26   ar
    29     3    27    1
    30     3    28    1
    31     4    29    1
    32     4    30    1
    33    15    31    1
    34    16    32    1
    35    17    33    1
    36     8    34    1
    37     9    35    1
    38    10    36    1
    39    11    37    1
    40    21    38    1
    41    22    39    1
    42    25    40    1
    43    26    41    1
@<TRIPOS>MOLECULE
mol83_1_6
 41 43 0 0 0
SMALL
USER_CHARGES
****
VDW energy = -80.59
@<TRIPOS>ATOM
   1 O1        2.8124    -6.3749     2.8314  O.2     1  <O>11      -0.2743
   2 C1        2.5669    -5.2321     3.1878  C.2     1  <O>11       0.2295
   3 C2        2.8470    -4.0880     2.2710  C.3     1  <O>11       0.0322
   4 C3        3.4300    -4.6140     0.9690  C.3     1  <O>11       0.0138
   5 C4        3.7070    -3.4830     0.0620  C.ar    1  <O>11       0.1108
   6 N1        4.9631    -3.2587    -0.3685  N.ar    1  <O>11      -0.2337
   7 C5        5.1703    -2.2192    -1.1892  C.ar    1  <O>11       0.0781
   8 C6        6.4584    -1.9663    -1.6476  C.ar    1  <O>11      -0.0355
   9 C7        6.7417    -0.8982    -2.5055  C.ar    1  <O>11      -0.0597
  10 C8        5.7196    -0.0561    -2.9226  C.ar    1  <O>11      -0.0609
  11 C9        4.4200    -0.2879    -2.4781  C.ar    1  <O>11      -0.0474
  12 C10       4.1426    -1.3712    -1.6080  C.ar    1  <O>11       0.0647
  13 C11       2.8866    -1.6967    -1.1011  C.ar    1  <O>11       0.2592
  14 O2        1.8245    -0.8621    -1.5012  O.2     1  <O>11      -0.2672
  15 N2        2.6518    -2.7365    -0.2763  N.ar    1  <O>11      -0.3103
  16 N3        2.0350    -5.0010     4.4280  N.am    1  <O>11      -0.2341
  17 N4        1.7771    -6.0540     5.2720  N.am    1  <O>11      -0.2304
  18 C12       1.2451    -5.8230     6.5130  C.2     1  <O>11       0.2601
  19 O3        1.0000    -4.6810     6.8690  O.2     1  <O>11      -0.2687
  20 C13       0.9722    -6.9410     7.4071  C.ar    1  <O>11       0.0383
  21 C14       0.4282    -6.7120     8.6821  C.ar    1  <O>11      -0.0469
  22 C15       0.1773    -7.7840     9.5451  C.ar    1  <O>11      -0.0257
  23 C16       0.4644    -9.0920     9.1442  C.ar    1  <O>11       0.1234
  24 F1        0.2235   -10.1480     9.9852  F       1  <O>11      -0.2055
  25 C17       1.0014    -9.3200     7.8722  C.ar    1  <O>11      -0.0257
  26 C18       1.2523    -8.2570     7.0031  C.ar    1  <O>11      -0.0469
  27 H1        1.9200    -3.5530     2.0650  H       1  <O>11       0.0363
  28 H2        3.5600    -3.4120     2.7420  H       1  <O>11       0.0363
  29 H3        4.3560    -5.1500     1.1770  H       1  <O>11       0.0348
  30 H4        2.7170    -5.2910     0.4990  H       1  <O>11       0.0348
  31 H5        1.7452    -2.9821     0.0940  H       1  <O>11       0.1700
  32 H6        1.8299    -4.0470     4.7250  H       1  <O>11       0.1728
  33 H7        1.9822    -7.0080     4.9751  H       1  <O>11       0.1731
  34 H8        7.2279    -2.5845    -1.3462  H       1  <O>11       0.0639
  35 H9        7.7086    -0.7364    -2.8277  H       1  <O>11       0.0618
  36 H10       5.9207     0.7336    -3.5558  H       1  <O>11       0.0618
  37 H11       3.6547     0.3331    -2.7842  H       1  <O>11       0.0626
  38 H12       0.2127    -5.7487     8.9833  H       1  <O>11       0.0626
  39 H13      -0.2210    -7.6086    10.4808  H       1  <O>11       0.0646
  40 H14       1.2142   -10.2846     7.5734  H       1  <O>11       0.0646
  41 H15       1.6430    -8.4375     6.0651  H       1  <O>11       0.0626
@<TRIPOS>BOND
     1     1     2    2
     2     2     3    1
     3     3     4    1
     4     4     5    1
     5     5     6   ar
     6     6     7   ar
     7     7     8   ar
     8     8     9   ar
     9     9    10   ar
    10    10    11   ar
    11    11    12   ar
    12     7    12   ar
    13    12    13   ar
    14    13    14    2
    15    13    15   ar
    16     5    15   ar
    17     2    16   am
    18    16    17    1
    19    17    18   am
    20    18    19    2
    21    18    20    1
    22    20    21   ar
    23    21    22   ar
    24    22    23   ar
    25    23    24    1
    26    23    25   ar
    27    25    26   ar
    28    20    26   ar
    29     3    27    1
    30     3    28    1
    31     4    29    1
    32     4    30    1
    33    15    31    1
    34    16    32    1
    35    17    33    1
    36     8    34    1
    37     9    35    1
    38    10    36    1
    39    11    37    1
    40    21    38    1
    41    22    39    1
    42    25    40    1
    43    26    41    1
@<TRIPOS>MOLECULE
mol83_1_7
 41 43 0 0 0
SMALL
USER_CHARGES
****
VDW energy = -80.04
@<TRIPOS>ATOM
   1 O1        2.8124    -6.3749     2.8314  O.2     1  <O>11      -0.2743
   2 C1        2.5669    -5.2321     3.1878  C.2     1  <O>11       0.2295
   3 C2        2.8470    -4.0880     2.2710  C.3     1  <O>11       0.0322
   4 C3        3.4300    -4.6140     0.9690  C.3     1  <O>11       0.0138
   5 C4        3.7070    -3.4830     0.0620  C.ar    1  <O>11       0.1108
   6 N1        3.4350    -2.2240     0.4550  N.ar    1  <O>11      -0.2337
   7 C5        3.7000    -1.2270    -0.4010  C.ar    1  <O>11       0.0781
   8 C6        3.4280     0.0820    -0.0190  C.ar    1  <O>11      -0.0355
   9 C7        3.6810     1.1670    -0.8650  C.ar    1  <O>11      -0.0597
  10 C8        4.2200     0.9500    -2.1260  C.ar    1  <O>11      -0.0609
  11 C9        4.5020    -0.3520    -2.5330  C.ar    1  <O>11      -0.0474
  12 C10       4.2410    -1.4450    -1.6700  C.ar    1  <O>11       0.0647
  13 C11       4.4810    -2.7840    -1.9700  C.ar    1  <O>11       0.2592
  14 O2        5.0260    -3.0430    -3.2430  O.2     1  <O>11      -0.2672
  15 N2        4.2250    -3.8040    -1.1270  N.ar    1  <O>11      -0.3103
  16 N3        2.0350    -5.0010     4.4280  N.am    1  <O>11      -0.2341
  17 N4        1.7591    -3.7161     4.8287  N.am    1  <O>11      -0.2304
  18 C12       1.2267    -3.4846     6.0694  C.2     1  <O>11       0.2601
  19 O3        0.9975    -4.4205     6.8194  O.2     1  <O>11      -0.2687
  20 C13       0.9346    -2.1211     6.4928  C.ar    1  <O>11       0.0383
  21 C14       0.3869    -1.8758     7.7632  C.ar    1  <O>11      -0.0469
  22 C15       0.0952    -0.5681     8.1653  C.ar    1  <O>11      -0.0257
  23 C16       0.3485     0.5051     7.3061  C.ar    1  <O>11       0.1234
  24 F1        0.0632     1.7897     7.6920  F       1  <O>11      -0.2055
  25 C17       0.8988     0.2607     6.0429  C.ar    1  <O>11      -0.0257
  26 C18       1.1959    -1.0404     5.6342  C.ar    1  <O>11      -0.0469
  27 H1        1.9200    -3.5530     2.0650  H       1  <O>11       0.0363
  28 H2        3.5600    -3.4120     2.7420  H       1  <O>11       0.0363
  29 H3        4.3560    -5.1500     1.1770  H       1  <O>11       0.0348
  30 H4        2.7170    -5.2910     0.4990  H       1  <O>11       0.0348
  31 H5        4.3980    -4.7770    -1.3340  H       1  <O>11       0.1700
  32 H6        1.8440    -5.7829     5.0545  H       1  <O>11       0.1728
  33 H7        1.9500    -2.9342     4.2022  H       1  <O>11       0.1731
  34 H8        3.0278     0.2582     0.9158  H       1  <O>11       0.0639
  35 H9        3.4674     2.1270    -0.5524  H       1  <O>11       0.0618
  36 H10       4.4098     1.7454    -2.7555  H       1  <O>11       0.0618
  37 H11       4.9034    -0.5215    -3.4685  H       1  <O>11       0.0626
  38 H12       0.1990    -2.6639     8.4025  H       1  <O>11       0.0626
  39 H13      -0.3084    -0.3951     9.0992  H       1  <O>11       0.0646
  40 H14       1.0871     1.0510     5.4066  H       1  <O>11       0.0646
  41 H15       1.6071    -1.2083     4.7026  H       1  <O>11       0.0626
@<TRIPOS>BOND
     1     1     2    2
     2     2     3    1
     3     3     4    1
     4     4     5    1
     5     5     6   ar
     6     6     7   ar
     7     7     8   ar
     8     8     9   ar
     9     9    10   ar
    10    10    11   ar
    11    11    12   ar
    12     7    12   ar
    13    12    13   ar
    14    13    14    2
    15    13    15   ar
    16     5    15   ar
    17     2    16   am
    18    16    17    1
    19    17    18   am
    20    18    19    2
    21    18    20    1
    22    20    21   ar
    23    21    22   ar
    24    22    23   ar
    25    23    24    1
    26    23    25   ar
    27    25    26   ar
    28    20    26   ar
    29     3    27    1
    30     3    28    1
    31     4    29    1
    32     4    30    1
    33    15    31    1
    34    16    32    1
    35    17    33    1
    36     8    34    1
    37     9    35    1
    38    10    36    1
    39    11    37    1
    40    21    38    1
    41    22    39    1
    42    25    40    1
    43    26    41    1
@<TRIPOS>MOLECULE
mol83_1_8
 41 43 0 0 0
SMALL
USER_CHARGES
****
VDW energy = -79.93
@<TRIPOS>ATOM
   1 O1        2.8124    -6.3749     2.8314  O.2     1  <O>11      -0.2743
   2 C1        2.5669    -5.2321     3.1878  C.2     1  <O>11       0.2295
   3 C2        2.8470    -4.0880     2.2710  C.3     1  <O>11       0.0322
   4 C3        3.5401    -2.9777     3.0447  C.3     1  <O>11       0.0138
   5 C4        3.8174    -1.8461     2.1384  C.ar    1  <O>11       0.1108
   6 N1        4.9821    -1.7947     1.4643  N.ar    1  <O>11      -0.2337
   7 C5        5.1937    -0.7481     0.6539  C.ar    1  <O>11       0.0781
   8 C6        6.3886    -0.6716    -0.0532  C.ar    1  <O>11      -0.0355
   9 C7        6.6711     0.3936    -0.9148  C.ar    1  <O>11      -0.0597
  10 C8        5.7433     1.4129    -1.0821  C.ar    1  <O>11      -0.0609
  11 C9        4.5382     1.3601    -0.3855  C.ar    1  <O>11      -0.0474
  12 C10       4.2612     0.2780     0.4863  C.ar    1  <O>11       0.0647
  13 C11       3.0948     0.1217     1.2317  C.ar    1  <O>11       0.2592
  14 O2        2.1305     1.1387     1.0890  O.2     1  <O>11      -0.2672
  15 N2        2.8572    -0.9211     2.0519  N.ar    1  <O>11      -0.3103
  16 N3        2.0350    -5.0010     4.4280  N.am    1  <O>11      -0.2341
  17 N4        1.7770    -6.0540     5.2720  N.am    1  <O>11      -0.2304
  18 C12       1.2450    -5.8230     6.5130  C.2     1  <O>11       0.2601
  19 O3        1.0000    -4.6810     6.8690  O.2     1  <O>11      -0.2687
  20 C13       0.9720    -6.9410     7.4070  C.ar    1  <O>11       0.0383
  21 C14       0.4280    -6.7120     8.6820  C.ar    1  <O>11      -0.0469
  22 C15       0.1770    -7.7840     9.5450  C.ar    1  <O>11      -0.0257
  23 C16       0.4640    -9.0920     9.1440  C.ar    1  <O>11       0.1234
  24 F1        0.2230   -10.1480     9.9850  F       1  <O>11      -0.2055
  25 C17       1.0010    -9.3200     7.8720  C.ar    1  <O>11      -0.0257
  26 C18       1.2520    -8.2570     7.0030  C.ar    1  <O>11      -0.0469
  27 H1        3.4921    -4.4235     1.4590  H       1  <O>11       0.0363
  28 H2        1.9095    -3.7147     1.8601  H       1  <O>11       0.0363
  29 H3        2.8943    -2.6445     3.8571  H       1  <O>11       0.0348
  30 H4        4.4770    -3.3520     3.4565  H       1  <O>11       0.0348
  31 H5        2.0143    -1.0447     2.5939  H       1  <O>11       0.1700
  32 H6        1.8300    -4.0470     4.7250  H       1  <O>11       0.1728
  33 H7        1.9820    -7.0080     4.9750  H       1  <O>11       0.1731
  34 H8        7.0872    -1.4226     0.0610  H       1  <O>11       0.0639
  35 H9        7.5676     0.4219    -1.4251  H       1  <O>11       0.0618
  36 H10       5.9444     2.2017    -1.7163  H       1  <O>11       0.0618
  37 H11       3.8431     2.1134    -0.5050  H       1  <O>11       0.0626
  38 H12       0.2126    -5.7487     8.9832  H       1  <O>11       0.0626
  39 H13      -0.2213    -7.6086    10.4807  H       1  <O>11       0.0646
  40 H14       1.2137   -10.2846     7.5732  H       1  <O>11       0.0646
  41 H15       1.6427    -8.4375     6.0650  H       1  <O>11       0.0626
@<TRIPOS>BOND
     1     1     2    2
     2     2     3    1
     3     3     4    1
     4     4     5    1
     5     5     6   ar
     6     6     7   ar
     7     7     8   ar
     8     8     9   ar
     9     9    10   ar
    10    10    11   ar
    11    11    12   ar
    12     7    12   ar
    13    12    13   ar
    14    13    14    2
    15    13    15   ar
    16     5    15   ar
    17     2    16   am
    18    16    17    1
    19    17    18   am
    20    18    19    2
    21    18    20    1
    22    20    21   ar
    23    21    22   ar
    24    22    23   ar
    25    23    24    1
    26    23    25   ar
    27    25    26   ar
    28    20    26   ar
    29     3    27    1
    30     3    28    1
    31     4    29    1
    32     4    30    1
    33    15    31    1
    34    16    32    1
    35    17    33    1
    36     8    34    1
    37     9    35    1
    38    10    36    1
    39    11    37    1
    40    21    38    1
    41    22    39    1
    42    25    40    1
    43    26    41    1
@<TRIPOS>MOLECULE
mol83_1_9
 41 43 0 0 0
SMALL
USER_CHARGES
****
VDW energy = -78.82
@<TRIPOS>ATOM
   1 O1        2.8124    -6.3749     2.8314  O.2     1  <O>11      -0.2743
   2 C1        2.5669    -5.2321     3.1878  C.2     1  <O>11       0.2295
   3 C2        2.8470    -4.0880     2.2710  C.3     1  <O>11       0.0322
   4 C3        1.6587    -3.1395     2.2679  C.3     1  <O>11       0.0138
   5 C4        1.9353    -2.0078     1.3616  C.ar    1  <O>11       0.1108
   6 N1        3.1061    -1.9480     0.6990  N.ar    1  <O>11      -0.2337
   7 C5        3.3168    -0.9016    -0.1120  C.ar    1  <O>11       0.0781
   8 C6        4.5180    -0.8166    -0.8073  C.ar    1  <O>11      -0.0355
   9 C7        4.7999     0.2490    -1.6688  C.ar    1  <O>11      -0.0597
  10 C8        3.8650     1.2597    -1.8480  C.ar    1  <O>11      -0.0609
  11 C9        2.6535     1.1981    -1.1633  C.ar    1  <O>11      -0.0474
  12 C10       2.3772     0.1159    -0.2916  C.ar    1  <O>11       0.0647
  13 C11       1.2048    -0.0486     0.4426  C.ar    1  <O>11       0.2592
  14 O2        0.2332     0.9596     0.2877  O.2     1  <O>11      -0.2672
  15 N2        0.9681    -1.0914     1.2631  N.ar    1  <O>11      -0.3103
  16 N3        2.0350    -5.0010     4.4280  N.am    1  <O>11      -0.2341
  17 N4        1.7770    -6.0540     5.2720  N.am    1  <O>11      -0.2304
  18 C12       1.2450    -5.8230     6.5130  C.2     1  <O>11       0.2601
  19 O3        1.0000    -4.6810     6.8690  O.2     1  <O>11      -0.2687
  20 C13       0.9720    -6.9410     7.4070  C.ar    1  <O>11       0.0383
  21 C14       0.4280    -6.7120     8.6820  C.ar    1  <O>11      -0.0469
  22 C15       0.1770    -7.7840     9.5450  C.ar    1  <O>11      -0.0257
  23 C16       0.4640    -9.0920     9.1440  C.ar    1  <O>11       0.1234
  24 F1        0.2230   -10.1480     9.9850  F       1  <O>11      -0.2055
  25 C17       1.0010    -9.3200     7.8720  C.ar    1  <O>11      -0.0257
  26 C18       1.2520    -8.2570     7.0030  C.ar    1  <O>11      -0.0469
  27 H1        3.7354    -3.5577     2.6138  H       1  <O>11       0.0363
  28 H2        3.0148    -4.4642     1.2623  H       1  <O>11       0.0363
  29 H3        0.7710    -3.6718     1.9264  H       1  <O>11       0.0348
  30 H4        1.4906    -2.7645     3.2773  H       1  <O>11       0.0348
  31 H5        0.1209    -1.2210     1.7969  H       1  <O>11       0.1700
  32 H6        1.8300    -4.0470     4.7250  H       1  <O>11       0.1728
  33 H7        1.9820    -7.0080     4.9750  H       1  <O>11       0.1731
  34 H8        5.2219    -1.5611    -0.6842  H       1  <O>11       0.0639
  35 H9        5.7012     0.2837    -2.1702  H       1  <O>11       0.0618
  36 H10       4.0656     2.0486    -2.4822  H       1  <O>11       0.0618
  37 H11       1.9531     1.9451    -1.2917  H       1  <O>11       0.0626
  38 H12       0.2126    -5.7487     8.9832  H       1  <O>11       0.0626
  39 H13      -0.2213    -7.6086    10.4807  H       1  <O>11       0.0646
  40 H14       1.2137   -10.2846     7.5732  H       1  <O>11       0.0646
  41 H15       1.6427    -8.4375     6.0650  H       1  <O>11       0.0626
@<TRIPOS>BOND
     1     1     2    2
     2     2     3    1
     3     3     4    1
     4     4     5    1
     5     5     6   ar
     6     6     7   ar
     7     7     8   ar
     8     8     9   ar
     9     9    10   ar
    10    10    11   ar
    11    11    12   ar
    12     7    12   ar
    13    12    13   ar
    14    13    14    2
    15    13    15   ar
    16     5    15   ar
    17     2    16   am
    18    16    17    1
    19    17    18   am
    20    18    19    2
    21    18    20    1
    22    20    21   ar
    23    21    22   ar
    24    22    23   ar
    25    23    24    1
    26    23    25   ar
    27    25    26   ar
    28    20    26   ar
    29     3    27    1
    30     3    28    1
    31     4    29    1
    32     4    30    1
    33    15    31    1
    34    16    32    1
    35    17    33    1
    36     8    34    1
    37     9    35    1
    38    10    36    1
    39    11    37    1
    40    21    38    1
    41    22    39    1
    42    25    40    1
    43    26    41    1
@<TRIPOS>MOLECULE
mol83_1_10
 41 43 0 0 0
SMALL
USER_CHARGES
****
VDW energy = -78.81
@<TRIPOS>ATOM
   1 O1        2.8124    -6.3749     2.8314  O.2     1  <O>11      -0.2743
   2 C1        2.5669    -5.2321     3.1878  C.2     1  <O>11       0.2295
   3 C2        2.8470    -4.0880     2.2710  C.3     1  <O>11       0.0322
   4 C3        3.5401    -2.9777     3.0447  C.3     1  <O>11       0.0138
   5 C4        3.8174    -1.8461     2.1384  C.ar    1  <O>11       0.1108
   6 N1        3.4580    -1.9190     0.8427  N.ar    1  <O>11      -0.2337
   7 C5        3.7310    -0.8696     0.0545  C.ar    1  <O>11       0.0781
   8 C6        3.3701    -0.9202    -1.2874  C.ar    1  <O>11      -0.0355
   9 C7        3.6265     0.1405    -2.1626  C.ar    1  <O>11      -0.0597
  10 C8        4.2578     1.2855    -1.6957  C.ar    1  <O>11      -0.0609
  11 C9        4.6295     1.3618    -0.3554  C.ar    1  <O>11      -0.0474
  12 C10       4.3672     0.2818     0.5235  C.ar    1  <O>11       0.0647
  13 C11       4.6936     0.2469     1.8773  C.ar    1  <O>11       0.2592
  14 O2        5.3381     1.3915     2.3863  O.2     1  <O>11      -0.2672
  15 N2        4.4289    -0.7945     2.6909  N.ar    1  <O>11      -0.3103
  16 N3        2.0350    -5.0010     4.4280  N.am    1  <O>11      -0.2341
  17 N4        1.7770    -6.0540     5.2720  N.am    1  <O>11      -0.2304
  18 C12       1.2450    -5.8230     6.5130  C.2     1  <O>11       0.2601
  19 O3        1.0000    -4.6810     6.8690  O.2     1  <O>11      -0.2687
  20 C13       0.9720    -6.9410     7.4070  C.ar    1  <O>11       0.0383
  21 C14       0.4280    -6.7120     8.6820  C.ar    1  <O>11      -0.0469
  22 C15       0.1770    -7.7840     9.5450  C.ar    1  <O>11      -0.0257
  23 C16       0.4640    -9.0920     9.1440  C.ar    1  <O>11       0.1234
  24 F1        0.2230   -10.1480     9.9850  F       1  <O>11      -0.2055
  25 C17       1.0010    -9.3200     7.8720  C.ar    1  <O>11      -0.0257
  26 C18       1.2520    -8.2570     7.0030  C.ar    1  <O>11      -0.0469
  27 H1        3.4921    -4.4235     1.4590  H       1  <O>11       0.0363
  28 H2        1.9095    -3.7147     1.8601  H       1  <O>11       0.0363
  29 H3        2.8943    -2.6445     3.8571  H       1  <O>11       0.0348
  30 H4        4.4770    -3.3520     3.4565  H       1  <O>11       0.0348
  31 H5        4.6588    -0.8281     3.6736  H       1  <O>11       0.1700
  32 H6        1.8300    -4.0470     4.7250  H       1  <O>11       0.1728
  33 H7        1.9820    -7.0080     4.9750  H       1  <O>11       0.1731
  34 H8        2.8995    -1.7649    -1.6481  H       1  <O>11       0.0639
  35 H9        3.3468     0.0721    -3.1536  H       1  <O>11       0.0618
  36 H10       4.4499     2.0723    -2.3353  H       1  <O>11       0.0618
  37 H11       5.0986     2.2097    -0.0005  H       1  <O>11       0.0626
  38 H12       0.2126    -5.7487     8.9832  H       1  <O>11       0.0626
  39 H13      -0.2213    -7.6086    10.4807  H       1  <O>11       0.0646
  40 H14       1.2137   -10.2846     7.5732  H       1  <O>11       0.0646
  41 H15       1.6427    -8.4375     6.0650  H       1  <O>11       0.0626
@<TRIPOS>BOND
     1     1     2    2
     2     2     3    1
     3     3     4    1
     4     4     5    1
     5     5     6   ar
     6     6     7   ar
     7     7     8   ar
     8     8     9   ar
     9     9    10   ar
    10    10    11   ar
    11    11    12   ar
    12     7    12   ar
    13    12    13   ar
    14    13    14    2
    15    13    15   ar
    16     5    15   ar
    17     2    16   am
    18    16    17    1
    19    17    18   am
    20    18    19    2
    21    18    20    1
    22    20    21   ar
    23    21    22   ar
    24    22    23   ar
    25    23    24    1
    26    23    25   ar
    27    25    26   ar
    28    20    26   ar
    29     3    27    1
    30     3    28    1
    31     4    29    1
    32     4    30    1
    33    15    31    1
    34    16    32    1
    35    17    33    1
    36     8    34    1
    37     9    35    1
    38    10    36    1
    39    11    37    1
    40    21    38    1
    41    22    39    1
    42    25    40    1
    43    26    41    1
@<TRIPOS>MOLECULE
mol83_1_11
 41 43 0 0 0
SMALL
USER_CHARGES
****
VDW energy = -77.56
@<TRIPOS>ATOM
   1 O1        2.8124    -6.3749     2.8314  O.2     1  <O>11      -0.2743
   2 C1        2.5669    -5.2321     3.1878  C.2     1  <O>11       0.2295
   3 C2        2.8470    -4.0880     2.2710  C.3     1  <O>11       0.0322
   4 C3        3.4300    -4.6140     0.9690  C.3     1  <O>11       0.0138
   5 C4        3.7070    -3.4830     0.0620  C.ar    1  <O>11       0.1108
   6 N1        4.9631    -3.2587    -0.3685  N.ar    1  <O>11      -0.2337
   7 C5        5.1703    -2.2192    -1.1892  C.ar    1  <O>11       0.0781
   8 C6        6.4584    -1.9663    -1.6476  C.ar    1  <O>11      -0.0355
   9 C7        6.7417    -0.8982    -2.5055  C.ar    1  <O>11      -0.0597
  10 C8        5.7196    -0.0561    -2.9226  C.ar    1  <O>11      -0.0609
  11 C9        4.4200    -0.2879    -2.4781  C.ar    1  <O>11      -0.0474
  12 C10       4.1426    -1.3712    -1.6080  C.ar    1  <O>11       0.0647
  13 C11       2.8866    -1.6967    -1.1011  C.ar    1  <O>11       0.2592
  14 O2        1.8245    -0.8621    -1.5012  O.2     1  <O>11      -0.2672
  15 N2        2.6518    -2.7365    -0.2763  N.ar    1  <O>11      -0.3103
  16 N3        2.0350    -5.0010     4.4280  N.am    1  <O>11      -0.2341
  17 N4        1.7591    -3.7161     4.8287  N.am    1  <O>11      -0.2304
  18 C12       1.2267    -3.4846     6.0694  C.2     1  <O>11       0.2601
  19 O3        0.9975    -4.4205     6.8194  O.2     1  <O>11      -0.2687
  20 C13       0.9346    -2.1211     6.4928  C.ar    1  <O>11       0.0383
  21 C14       0.3869    -1.8758     7.7632  C.ar    1  <O>11      -0.0469
  22 C15       0.0952    -0.5681     8.1653  C.ar    1  <O>11      -0.0257
  23 C16       0.3485     0.5051     7.3061  C.ar    1  <O>11       0.1234
  24 F1        0.0632     1.7897     7.6920  F       1  <O>11      -0.2055
  25 C17       0.8988     0.2607     6.0429  C.ar    1  <O>11      -0.0257
  26 C18       1.1959    -1.0404     5.6342  C.ar    1  <O>11      -0.0469
  27 H1        1.9200    -3.5530     2.0650  H       1  <O>11       0.0363
  28 H2        3.5600    -3.4120     2.7420  H       1  <O>11       0.0363
  29 H3        4.3560    -5.1500     1.1770  H       1  <O>11       0.0348
  30 H4        2.7170    -5.2910     0.4990  H       1  <O>11       0.0348
  31 H5        1.7452    -2.9821     0.0940  H       1  <O>11       0.1700
  32 H6        1.8440    -5.7829     5.0545  H       1  <O>11       0.1728
  33 H7        1.9500    -2.9342     4.2022  H       1  <O>11       0.1731
  34 H8        7.2279    -2.5845    -1.3462  H       1  <O>11       0.0639
  35 H9        7.7086    -0.7364    -2.8277  H       1  <O>11       0.0618
  36 H10       5.9207     0.7336    -3.5558  H       1  <O>11       0.0618
  37 H11       3.6547     0.3331    -2.7842  H       1  <O>11       0.0626
  38 H12       0.1990    -2.6639     8.4025  H       1  <O>11       0.0626
  39 H13      -0.3084    -0.3951     9.0992  H       1  <O>11       0.0646
  40 H14       1.0871     1.0510     5.4066  H       1  <O>11       0.0646
  41 H15       1.6071    -1.2083     4.7026  H       1  <O>11       0.0626
@<TRIPOS>BOND
     1     1     2    2
     2     2     3    1
     3     3     4    1
     4     4     5    1
     5     5     6   ar
     6     6     7   ar
     7     7     8   ar
     8     8     9   ar
     9     9    10   ar
    10    10    11   ar
    11    11    12   ar
    12     7    12   ar
    13    12    13   ar
    14    13    14    2
    15    13    15   ar
    16     5    15   ar
    17     2    16   am
    18    16    17    1
    19    17    18   am
    20    18    19    2
    21    18    20    1
    22    20    21   ar
    23    21    22   ar
    24    22    23   ar
    25    23    24    1
    26    23    25   ar
    27    25    26   ar
    28    20    26   ar
    29     3    27    1
    30     3    28    1
    31     4    29    1
    32     4    30    1
    33    15    31    1
    34    16    32    1
    35    17    33    1
    36     8    34    1
    37     9    35    1
    38    10    36    1
    39    11    37    1
    40    21    38    1
    41    22    39    1
    42    25    40    1
    43    26    41    1
@<TRIPOS>MOLECULE
mol83_1_12
 41 43 0 0 0
SMALL
USER_CHARGES
****
VDW energy = -77.34
@<TRIPOS>ATOM
   1 O1        2.8124    -6.3749     2.8314  O.2     1  <O>11      -0.2743
   2 C1        2.5669    -5.2321     3.1878  C.2     1  <O>11       0.2295
   3 C2        2.8470    -4.0880     2.2710  C.3     1  <O>11       0.0322
   4 C3        3.4300    -4.6140     0.9690  C.3     1  <O>11       0.0138
   5 C4        3.7070    -3.4830     0.0620  C.ar    1  <O>11       0.1108
   6 N1        3.4350    -2.2240     0.4550  N.ar    1  <O>11      -0.2337
   7 C5        3.7000    -1.2270    -0.4010  C.ar    1  <O>11       0.0781
   8 C6        3.4280     0.0820    -0.0190  C.ar    1  <O>11      -0.0355
   9 C7        3.6810     1.1670    -0.8650  C.ar    1  <O>11      -0.0597
  10 C8        4.2200     0.9500    -2.1260  C.ar    1  <O>11      -0.0609
  11 C9        4.5020    -0.3520    -2.5330  C.ar    1  <O>11      -0.0474
  12 C10       4.2410    -1.4450    -1.6700  C.ar    1  <O>11       0.0647
  13 C11       4.4810    -2.7840    -1.9700  C.ar    1  <O>11       0.2592
  14 O2        5.0260    -3.0430    -3.2430  O.2     1  <O>11      -0.2672
  15 N2        4.2250    -3.8040    -1.1270  N.ar    1  <O>11      -0.3103
  16 N3        2.0350    -5.0010     4.4280  N.am    1  <O>11      -0.2341
  17 N4        1.7770    -6.0540     5.2720  N.am    1  <O>11      -0.2304
  18 C12       2.7966    -6.8759     5.6737  C.2     1  <O>11       0.2601
  19 O3        3.9349    -6.6724     5.2816  O.2     1  <O>11      -0.2687
  20 C13       2.5212    -7.9924     6.5689  C.ar    1  <O>11       0.0383
  21 C14       2.1859    -9.2529     6.0468  C.ar    1  <O>11      -0.0469
  22 C15       1.9098   -10.3218     6.9060  C.ar    1  <O>11      -0.0257
  23 C16       1.9675   -10.1438     8.2913  C.ar    1  <O>11       0.1234
  24 F1        1.6959   -11.1860     9.1402  F       1  <O>11      -0.2055
  25 C17       2.3066    -8.8894     8.8107  C.ar    1  <O>11      -0.0257
  26 C18       2.5866    -7.8179     7.9613  C.ar    1  <O>11      -0.0469
  27 H1        1.9200    -3.5530     2.0650  H       1  <O>11       0.0363
  28 H2        3.5600    -3.4120     2.7420  H       1  <O>11       0.0363
  29 H3        4.3560    -5.1500     1.1770  H       1  <O>11       0.0348
  30 H4        2.7170    -5.2910     0.4990  H       1  <O>11       0.0348
  31 H5        4.3980    -4.7770    -1.3340  H       1  <O>11       0.1700
  32 H6        1.8300    -4.0470     4.7250  H       1  <O>11       0.1728
  33 H7        0.8261    -6.2244     5.5993  H       1  <O>11       0.1731
  34 H8        3.0278     0.2582     0.9158  H       1  <O>11       0.0639
  35 H9        3.4674     2.1270    -0.5524  H       1  <O>11       0.0618
  36 H10       4.4098     1.7454    -2.7555  H       1  <O>11       0.0618
  37 H11       4.9034    -0.5215    -3.4685  H       1  <O>11       0.0626
  38 H12       2.1431    -9.3909     5.0249  H       1  <O>11       0.0626
  39 H13       1.6627   -11.2446     6.5159  H       1  <O>11       0.0646
  40 H14       2.3502    -8.7551     9.8330  H       1  <O>11       0.0646
  41 H15       2.8414    -6.8988     8.3555  H       1  <O>11       0.0626
@<TRIPOS>BOND
     1     1     2    2
     2     2     3    1
     3     3     4    1
     4     4     5    1
     5     5     6   ar
     6     6     7   ar
     7     7     8   ar
     8     8     9   ar
     9     9    10   ar
    10    10    11   ar
    11    11    12   ar
    12     7    12   ar
    13    12    13   ar
    14    13    14    2
    15    13    15   ar
    16     5    15   ar
    17     2    16   am
    18    16    17    1
    19    17    18   am
    20    18    19    2
    21    18    20    1
    22    20    21   ar
    23    21    22   ar
    24    22    23   ar
    25    23    24    1
    26    23    25   ar
    27    25    26   ar
    28    20    26   ar
    29     3    27    1
    30     3    28    1
    31     4    29    1
    32     4    30    1
    33    15    31    1
    34    16    32    1
    35    17    33    1
    36     8    34    1
    37     9    35    1
    38    10    36    1
    39    11    37    1
    40    21    38    1
    41    22    39    1
    42    25    40    1
    43    26    41    1
@<TRIPOS>MOLECULE
mol83_1_13
 41 43 0 0 0
SMALL
USER_CHARGES
****
VDW energy = -75.92
@<TRIPOS>ATOM
   1 O1        2.8124    -6.3749     2.8314  O.2     1  <O>11      -0.2743
   2 C1        2.5669    -5.2321     3.1878  C.2     1  <O>11       0.2295
   3 C2        2.8470    -4.0880     2.2710  C.3     1  <O>11       0.0322
   4 C3        3.4300    -4.6140     0.9690  C.3     1  <O>11       0.0138
   5 C4        3.7070    -3.4830     0.0620  C.ar    1  <O>11       0.1108
   6 N1        4.9078    -2.8742     0.0941  N.ar    1  <O>11      -0.2337
   7 C5        5.1159    -1.8498    -0.7452  C.ar    1  <O>11       0.0781
   8 C6        6.3474    -1.2043    -0.7314  C.ar    1  <O>11      -0.0355
   9 C7        6.6284    -0.1292    -1.5812  C.ar    1  <O>11      -0.0597
  10 C8        5.6622     0.3197    -2.4715  C.ar    1  <O>11      -0.0609
  11 C9        4.4201    -0.3099    -2.5055  C.ar    1  <O>11      -0.0474
  12 C10       4.1438    -1.3971    -1.6400  C.ar    1  <O>11       0.0647
  13 C11       2.9418    -2.0991    -1.5861  C.ar    1  <O>11       0.2592
  14 O2        1.9362    -1.6698    -2.4743  O.2     1  <O>11      -0.2672
  15 N2        2.7081    -3.1327    -0.7532  N.ar    1  <O>11      -0.3103
  16 N3        2.0350    -5.0010     4.4280  N.am    1  <O>11      -0.2341
  17 N4        1.7591    -3.7161     4.8287  N.am    1  <O>11      -0.2304
  18 C12       0.8722    -2.9520     4.1172  C.2     1  <O>11       0.2601
  19 O3        0.3269    -3.4131     3.1268  O.2     1  <O>11      -0.2687
  20 C13       0.5807    -1.5893     4.5435  C.ar    1  <O>11       0.0383
  21 C14       0.4486    -1.2872     5.9092  C.ar    1  <O>11      -0.0469
  22 C15       0.1569     0.0184     6.3181  C.ar    1  <O>11      -0.0257
  23 C16      -0.0034     1.0332     5.3702  C.ar    1  <O>11       0.1234
  24 F1       -0.2917     2.3150     5.7629  F       1  <O>11      -0.2055
  25 C17       0.1334     0.7328     4.0103  C.ar    1  <O>11      -0.0257
  26 C18       0.4273    -0.5663     3.5930  C.ar    1  <O>11      -0.0469
  27 H1        1.9200    -3.5530     2.0650  H       1  <O>11       0.0363
  28 H2        3.5600    -3.4120     2.7420  H       1  <O>11       0.0363
  29 H3        4.3560    -5.1500     1.1770  H       1  <O>11       0.0348
  30 H4        2.7170    -5.2910     0.4990  H       1  <O>11       0.0348
  31 H5        1.8417    -3.6494    -0.7086  H       1  <O>11       0.1700
  32 H6        1.8440    -5.7829     5.0545  H       1  <O>11       0.1728
  33 H7        2.2149    -3.3305     5.6557  H       1  <O>11       0.1731
  34 H8        7.0753    -1.5278    -0.0752  H       1  <O>11       0.0639
  35 H9        7.5522     0.3294    -1.5464  H       1  <O>11       0.0618
  36 H10       5.8623     1.1119    -3.1018  H       1  <O>11       0.0618
  37 H11       3.6969     0.0174    -3.1649  H       1  <O>11       0.0626
  38 H12       0.5673    -2.0318     6.6139  H       1  <O>11       0.0626
  39 H13       0.0597     0.2331     7.3228  H       1  <O>11       0.0646
  40 H14       0.0158     1.4800     3.3083  H       1  <O>11       0.0646
  41 H15       0.5318    -0.7750     2.5878  H       1  <O>11       0.0626
@<TRIPOS>BOND
     1     1     2    2
     2     2     3    1
     3     3     4    1
     4     4     5    1
     5     5     6   ar
     6     6     7   ar
     7     7     8   ar
     8     8     9   ar
     9     9    10   ar
    10    10    11   ar
    11    11    12   ar
    12     7    12   ar
    13    12    13   ar
    14    13    14    2
    15    13    15   ar
    16     5    15   ar
    17     2    16   am
    18    16    17    1
    19    17    18   am
    20    18    19    2
    21    18    20    1
    22    20    21   ar
    23    21    22   ar
    24    22    23   ar
    25    23    24    1
    26    23    25   ar
    27    25    26   ar
    28    20    26   ar
    29     3    27    1
    30     3    28    1
    31     4    29    1
    32     4    30    1
    33    15    31    1
    34    16    32    1
    35    17    33    1
    36     8    34    1
    37     9    35    1
    38    10    36    1
    39    11    37    1
    40    21    38    1
    41    22    39    1
    42    25    40    1
    43    26    41    1
@<TRIPOS>MOLECULE
mol83_1_14
 41 43 0 0 0
SMALL
USER_CHARGES
****
VDW energy = -74.81
@<TRIPOS>ATOM
   1 O1        2.8124    -6.3749     2.8314  O.2     1  <O>11      -0.2743
   2 C1        2.5669    -5.2321     3.1878  C.2     1  <O>11       0.2295
   3 C2        2.8470    -4.0880     2.2710  C.3     1  <O>11       0.0322
   4 C3        3.4300    -4.6140     0.9690  C.3     1  <O>11       0.0138
   5 C4        3.7070    -3.4830     0.0620  C.ar    1  <O>11       0.1108
   6 N1        3.4350    -2.2240     0.4550  N.ar    1  <O>11      -0.2337
   7 C5        3.7000    -1.2270    -0.4010  C.ar    1  <O>11       0.0781
   8 C6        3.4280     0.0820    -0.0190  C.ar    1  <O>11      -0.0355
   9 C7        3.6810     1.1670    -0.8650  C.ar    1  <O>11      -0.0597
  10 C8        4.2200     0.9500    -2.1260  C.ar    1  <O>11      -0.0609
  11 C9        4.5020    -0.3520    -2.5330  C.ar    1  <O>11      -0.0474
  12 C10       4.2410    -1.4450    -1.6700  C.ar    1  <O>11       0.0647
  13 C11       4.4810    -2.7840    -1.9700  C.ar    1  <O>11       0.2592
  14 O2        5.0260    -3.0430    -3.2430  O.2     1  <O>11      -0.2672
  15 N2        4.2250    -3.8040    -1.1270  N.ar    1  <O>11      -0.3103
  16 N3        2.0350    -5.0010     4.4280  N.am    1  <O>11      -0.2341
  17 N4        1.7770    -6.0540     5.2720  N.am    1  <O>11      -0.2304
  18 C12       2.7966    -6.8759     5.6737  C.2     1  <O>11       0.2601
  19 O3        3.9349    -6.6724     5.2816  O.2     1  <O>11      -0.2687
  20 C13       2.5212    -7.9924     6.5689  C.ar    1  <O>11       0.0383
  21 C14       1.6126    -7.8422     7.6299  C.ar    1  <O>11      -0.0469
  22 C15       1.3571    -8.9101     8.4966  C.ar    1  <O>11      -0.0257
  23 C16       2.0030   -10.1360     8.3120  C.ar    1  <O>11       0.1234
  24 F1        1.7597   -11.1869     9.1586  F       1  <O>11      -0.2055
  25 C17       2.9040   -10.2866     7.2519  C.ar    1  <O>11      -0.0257
  26 C18       3.1630    -9.2277     6.3803  C.ar    1  <O>11      -0.0469
  27 H1        1.9200    -3.5530     2.0650  H       1  <O>11       0.0363
  28 H2        3.5600    -3.4120     2.7420  H       1  <O>11       0.0363
  29 H3        4.3560    -5.1500     1.1770  H       1  <O>11       0.0348
  30 H4        2.7170    -5.2910     0.4990  H       1  <O>11       0.0348
  31 H5        4.3980    -4.7770    -1.3340  H       1  <O>11       0.1700
  32 H6        1.8300    -4.0470     4.7250  H       1  <O>11       0.1728
  33 H7        0.8261    -6.2244     5.5993  H       1  <O>11       0.1731
  34 H8        3.0278     0.2582     0.9158  H       1  <O>11       0.0639
  35 H9        3.4674     2.1270    -0.5524  H       1  <O>11       0.0618
  36 H10       4.4098     1.7454    -2.7555  H       1  <O>11       0.0618
  37 H11       4.9034    -0.5215    -3.4685  H       1  <O>11       0.0626
  38 H12       1.1315    -6.9400     7.7705  H       1  <O>11       0.0626
  39 H13       0.6896    -8.7925     9.2748  H       1  <O>11       0.0646
  40 H14       3.3822   -11.1905     7.1131  H       1  <O>11       0.0646
  41 H15       3.8250    -9.3520     5.5984  H       1  <O>11       0.0626
@<TRIPOS>BOND
     1     1     2    2
     2     2     3    1
     3     3     4    1
     4     4     5    1
     5     5     6   ar
     6     6     7   ar
     7     7     8   ar
     8     8     9   ar
     9     9    10   ar
    10    10    11   ar
    11    11    12   ar
    12     7    12   ar
    13    12    13   ar
    14    13    14    2
    15    13    15   ar
    16     5    15   ar
    17     2    16   am
    18    16    17    1
    19    17    18   am
    20    18    19    2
    21    18    20    1
    22    20    21   ar
    23    21    22   ar
    24    22    23   ar
    25    23    24    1
    26    23    25   ar
    27    25    26   ar
    28    20    26   ar
    29     3    27    1
    30     3    28    1
    31     4    29    1
    32     4    30    1
    33    15    31    1
    34    16    32    1
    35    17    33    1
    36     8    34    1
    37     9    35    1
    38    10    36    1
    39    11    37    1
    40    21    38    1
    41    22    39    1
    42    25    40    1
    43    26    41    1
@<TRIPOS>MOLECULE
mol83_1_15
 41 43 0 0 0
SMALL
USER_CHARGES
****
VDW energy = -74.42
@<TRIPOS>ATOM
   1 O1        2.8124    -6.3749     2.8314  O.2     1  <O>11      -0.2743
   2 C1        2.5669    -5.2321     3.1878  C.2     1  <O>11       0.2295
   3 C2        2.8470    -4.0880     2.2710  C.3     1  <O>11       0.0322
   4 C3        3.4300    -4.6140     0.9690  C.3     1  <O>11       0.0138
   5 C4        3.7070    -3.4830     0.0620  C.ar    1  <O>11       0.1108
   6 N1        3.4350    -2.2240     0.4550  N.ar    1  <O>11      -0.2337
   7 C5        3.7000    -1.2270    -0.4010  C.ar    1  <O>11       0.0781
   8 C6        3.4280     0.0820    -0.0190  C.ar    1  <O>11      -0.0355
   9 C7        3.6810     1.1670    -0.8650  C.ar    1  <O>11      -0.0597
  10 C8        4.2200     0.9500    -2.1260  C.ar    1  <O>11      -0.0609
  11 C9        4.5020    -0.3520    -2.5330  C.ar    1  <O>11      -0.0474
  12 C10       4.2410    -1.4450    -1.6700  C.ar    1  <O>11       0.0647
  13 C11       4.4810    -2.7840    -1.9700  C.ar    1  <O>11       0.2592
  14 O2        5.0260    -3.0430    -3.2430  O.2     1  <O>11      -0.2672
  15 N2        4.2250    -3.8040    -1.1270  N.ar    1  <O>11      -0.3103
  16 N3        2.0350    -5.0010     4.4280  N.am    1  <O>11      -0.2341
  17 N4        1.7591    -3.7161     4.8287  N.am    1  <O>11      -0.2304
  18 C12       0.8722    -2.9520     4.1172  C.2     1  <O>11       0.2601
  19 O3        0.3269    -3.4131     3.1268  O.2     1  <O>11      -0.2687
  20 C13       0.5807    -1.5893     4.5435  C.ar    1  <O>11       0.0383
  21 C14       0.4486    -1.2872     5.9092  C.ar    1  <O>11      -0.0469
  22 C15       0.1569     0.0184     6.3181  C.ar    1  <O>11      -0.0257
  23 C16      -0.0034     1.0332     5.3702  C.ar    1  <O>11       0.1234
  24 F1       -0.2917     2.3150     5.7629  F       1  <O>11      -0.2055
  25 C17       0.1334     0.7328     4.0103  C.ar    1  <O>11      -0.0257
  26 C18       0.4273    -0.5663     3.5930  C.ar    1  <O>11      -0.0469
  27 H1        1.9200    -3.5530     2.0650  H       1  <O>11       0.0363
  28 H2        3.5600    -3.4120     2.7420  H       1  <O>11       0.0363
  29 H3        4.3560    -5.1500     1.1770  H       1  <O>11       0.0348
  30 H4        2.7170    -5.2910     0.4990  H       1  <O>11       0.0348
  31 H5        4.3980    -4.7770    -1.3340  H       1  <O>11       0.1700
  32 H6        1.8440    -5.7829     5.0545  H       1  <O>11       0.1728
  33 H7        2.2149    -3.3305     5.6557  H       1  <O>11       0.1731
  34 H8        3.0278     0.2582     0.9158  H       1  <O>11       0.0639
  35 H9        3.4674     2.1270    -0.5524  H       1  <O>11       0.0618
  36 H10       4.4098     1.7454    -2.7555  H       1  <O>11       0.0618
  37 H11       4.9034    -0.5215    -3.4685  H       1  <O>11       0.0626
  38 H12       0.5673    -2.0318     6.6139  H       1  <O>11       0.0626
  39 H13       0.0597     0.2331     7.3228  H       1  <O>11       0.0646
  40 H14       0.0158     1.4800     3.3083  H       1  <O>11       0.0646
  41 H15       0.5318    -0.7750     2.5878  H       1  <O>11       0.0626
@<TRIPOS>BOND
     1     1     2    2
     2     2     3    1
     3     3     4    1
     4     4     5    1
     5     5     6   ar
     6     6     7   ar
     7     7     8   ar
     8     8     9   ar
     9     9    10   ar
    10    10    11   ar
    11    11    12   ar
    12     7    12   ar
    13    12    13   ar
    14    13    14    2
    15    13    15   ar
    16     5    15   ar
    17     2    16   am
    18    16    17    1
    19    17    18   am
    20    18    19    2
    21    18    20    1
    22    20    21   ar
    23    21    22   ar
    24    22    23   ar
    25    23    24    1
    26    23    25   ar
    27    25    26   ar
    28    20    26   ar
    29     3    27    1
    30     3    28    1
    31     4    29    1
    32     4    30    1
    33    15    31    1
    34    16    32    1
    35    17    33    1
    36     8    34    1
    37     9    35    1
    38    10    36    1
    39    11    37    1
    40    21    38    1
    41    22    39    1
    42    25    40    1
    43    26    41    1
@<TRIPOS>MOLECULE
mol83_1_16
 41 43 0 0 0
SMALL
USER_CHARGES
****
VDW energy = -73.95
@<TRIPOS>ATOM
   1 O1        2.8124    -6.3749     2.8314  O.2     1  <O>11      -0.2743
   2 C1        2.5669    -5.2321     3.1878  C.2     1  <O>11       0.2295
   3 C2        2.8470    -4.0880     2.2710  C.3     1  <O>11       0.0322
   4 C3        3.4300    -4.6140     0.9690  C.3     1  <O>11       0.0138
   5 C4        2.4637    -5.5303     0.3324  C.ar    1  <O>11       0.1108
   6 N1        1.2797    -5.7761     0.9249  N.ar    1  <O>11      -0.2337
   7 C5        0.4329    -6.6163     0.3134  C.ar    1  <O>11       0.0781
   8 C6       -0.7960    -6.8867     0.9049  C.ar    1  <O>11      -0.0355
   9 C7       -1.7241    -7.7539     0.3187  C.ar    1  <O>11      -0.0597
  10 C8       -1.4274    -8.3710    -0.8891  C.ar    1  <O>11      -0.0609
  11 C9       -0.2030    -8.1168    -1.5028  C.ar    1  <O>11      -0.0474
  12 C10       0.7316    -7.2382    -0.9010  C.ar    1  <O>11       0.0647
  13 C11       1.9819    -6.9119    -1.4214  C.ar    1  <O>11       0.2592
  14 O2        2.3188    -7.5215    -2.6459  O.2     1  <O>11      -0.2672
  15 N2        2.8502    -6.0695    -0.8273  N.ar    1  <O>11      -0.3103
  16 N3        2.0350    -5.0010     4.4280  N.am    1  <O>11      -0.2341
  17 N4        1.7770    -6.0540     5.2720  N.am    1  <O>11      -0.2304
  18 C12       1.2450    -5.8230     6.5130  C.2     1  <O>11       0.2601
  19 O3        1.0000    -4.6810     6.8690  O.2     1  <O>11      -0.2687
  20 C13       0.9720    -6.9410     7.4070  C.ar    1  <O>11       0.0383
  21 C14       0.4280    -6.7120     8.6820  C.ar    1  <O>11      -0.0469
  22 C15       0.1770    -7.7840     9.5450  C.ar    1  <O>11      -0.0257
  23 C16       0.4640    -9.0920     9.1440  C.ar    1  <O>11       0.1234
  24 F1        0.2230   -10.1480     9.9850  F       1  <O>11      -0.2055
  25 C17       1.0010    -9.3200     7.8720  C.ar    1  <O>11      -0.0257
  26 C18       1.2520    -8.2570     7.0030  C.ar    1  <O>11      -0.0469
  27 H1        1.9200    -3.5530     2.0650  H       1  <O>11       0.0363
  28 H2        3.5600    -3.4120     2.7420  H       1  <O>11       0.0363
  29 H3        3.6354    -3.7782     0.3001  H       1  <O>11       0.0348
  30 H4        4.3566    -5.1490     1.1758  H       1  <O>11       0.0348
  31 H5        3.7571    -5.8246    -1.1978  H       1  <O>11       0.1700
  32 H6        1.8300    -4.0470     4.7250  H       1  <O>11       0.1728
  33 H7        1.9820    -7.0080     4.9750  H       1  <O>11       0.1731
  34 H8       -1.0302    -6.4346     1.8026  H       1  <O>11       0.0639
  35 H9       -2.6277    -7.9347     0.7832  H       1  <O>11       0.0618
  36 H10      -2.1071    -9.0115    -1.3279  H       1  <O>11       0.0618
  37 H11       0.0248    -8.5710    -2.4011  H       1  <O>11       0.0626
  38 H12       0.2126    -5.7487     8.9832  H       1  <O>11       0.0626
  39 H13      -0.2213    -7.6086    10.4807  H       1  <O>11       0.0646
  40 H14       1.2137   -10.2846     7.5732  H       1  <O>11       0.0646
  41 H15       1.6427    -8.4375     6.0650  H       1  <O>11       0.0626
@<TRIPOS>BOND
     1     1     2    2
     2     2     3    1
     3     3     4    1
     4     4     5    1
     5     5     6   ar
     6     6     7   ar
     7     7     8   ar
     8     8     9   ar
     9     9    10   ar
    10    10    11   ar
    11    11    12   ar
    12     7    12   ar
    13    12    13   ar
    14    13    14    2
    15    13    15   ar
    16     5    15   ar
    17     2    16   am
    18    16    17    1
    19    17    18   am
    20    18    19    2
    21    18    20    1
    22    20    21   ar
    23    21    22   ar
    24    22    23   ar
    25    23    24    1
    26    23    25   ar
    27    25    26   ar
    28    20    26   ar
    29     3    27    1
    30     3    28    1
    31     4    29    1
    32     4    30    1
    33    15    31    1
    34    16    32    1
    35    17    33    1
    36     8    34    1
    37     9    35    1
    38    10    36    1
    39    11    37    1
    40    21    38    1
    41    22    39    1
    42    25    40    1
    43    26    41    1
@<TRIPOS>MOLECULE
mol83_1_17
 41 43 0 0 0
SMALL
USER_CHARGES
****
VDW energy = -70.73
@<TRIPOS>ATOM
   1 O1        2.8124    -6.3749     2.8314  O.2     1  <O>11      -0.2743
   2 C1        2.5669    -5.2321     3.1878  C.2     1  <O>11       0.2295
   3 C2        2.8470    -4.0880     2.2710  C.3     1  <O>11       0.0322
   4 C3        3.4300    -4.6140     0.9690  C.3     1  <O>11       0.0138
   5 C4        4.6847    -5.3390     1.2496  C.ar    1  <O>11       0.1108
   6 N1        5.1325    -5.4426     2.5154  N.ar    1  <O>11      -0.2337
   7 C5        6.2774    -6.1076     2.7248  C.ar    1  <O>11       0.0781
   8 C6        6.7610    -6.2285     4.0229  C.ar    1  <O>11      -0.0355
   9 C7        7.9491    -6.9093     4.3090  C.ar    1  <O>11      -0.0597
  10 C8        8.6796    -7.4884     3.2800  C.ar    1  <O>11      -0.0609
  11 C9        8.2168    -7.3820     1.9704  C.ar    1  <O>11      -0.0474
  12 C10       7.0131    -6.6892     1.6899  C.ar    1  <O>11       0.0647
  13 C11       6.4572    -6.5194     0.4239  C.ar    1  <O>11       0.2592
  14 O2        7.1727    -7.0919    -0.6460  O.2     1  <O>11      -0.2672
  15 N2        5.3076    -5.8569     0.1871  N.ar    1  <O>11      -0.3103
  16 N3        2.0350    -5.0010     4.4280  N.am    1  <O>11      -0.2341
  17 N4        1.7591    -3.7161     4.8287  N.am    1  <O>11      -0.2304
  18 C12       1.2267    -3.4846     6.0694  C.2     1  <O>11       0.2601
  19 O3        0.9975    -4.4205     6.8194  O.2     1  <O>11      -0.2687
  20 C13       0.9346    -2.1211     6.4928  C.ar    1  <O>11       0.0383
  21 C14       0.3869    -1.8758     7.7632  C.ar    1  <O>11      -0.0469
  22 C15       0.0952    -0.5681     8.1653  C.ar    1  <O>11      -0.0257
  23 C16       0.3485     0.5051     7.3061  C.ar    1  <O>11       0.1234
  24 F1        0.0632     1.7897     7.6920  F       1  <O>11      -0.2055
  25 C17       0.8988     0.2607     6.0429  C.ar    1  <O>11      -0.0257
  26 C18       1.1959    -1.0404     5.6342  C.ar    1  <O>11      -0.0469
  27 H1        1.9200    -3.5530     2.0650  H       1  <O>11       0.0363
  28 H2        3.5600    -3.4120     2.7420  H       1  <O>11       0.0363
  29 H3        2.7156    -5.2897     0.4989  H       1  <O>11       0.0348
  30 H4        3.6343    -3.7792     0.2990  H       1  <O>11       0.0348
  31 H5        4.8953    -5.7309    -0.7260  H       1  <O>11       0.1700
  32 H6        1.8440    -5.7829     5.0545  H       1  <O>11       0.1728
  33 H7        1.9500    -2.9342     4.2022  H       1  <O>11       0.1731
  34 H8        6.2280    -5.8036     4.7977  H       1  <O>11       0.0639
  35 H9        8.2821    -6.9811     5.2831  H       1  <O>11       0.0618
  36 H10       9.5568    -7.9926     3.4833  H       1  <O>11       0.0618
  37 H11       8.7536    -7.8103     1.2002  H       1  <O>11       0.0626
  38 H12       0.1990    -2.6639     8.4025  H       1  <O>11       0.0626
  39 H13      -0.3084    -0.3951     9.0992  H       1  <O>11       0.0646
  40 H14       1.0871     1.0510     5.4066  H       1  <O>11       0.0646
  41 H15       1.6071    -1.2083     4.7026  H       1  <O>11       0.0626
@<TRIPOS>BOND
     1     1     2    2
     2     2     3    1
     3     3     4    1
     4     4     5    1
     5     5     6   ar
     6     6     7   ar
     7     7     8   ar
     8     8     9   ar
     9     9    10   ar
    10    10    11   ar
    11    11    12   ar
    12     7    12   ar
    13    12    13   ar
    14    13    14    2
    15    13    15   ar
    16     5    15   ar
    17     2    16   am
    18    16    17    1
    19    17    18   am
    20    18    19    2
    21    18    20    1
    22    20    21   ar
    23    21    22   ar
    24    22    23   ar
    25    23    24    1
    26    23    25   ar
    27    25    26   ar
    28    20    26   ar
    29     3    27    1
    30     3    28    1
    31     4    29    1
    32     4    30    1
    33    15    31    1
    34    16    32    1
    35    17    33    1
    36     8    34    1
    37     9    35    1
    38    10    36    1
    39    11    37    1
    40    21    38    1
    41    22    39    1
    42    25    40    1
    43    26    41    1
@<TRIPOS>MOLECULE
mol83_1_18
 41 43 0 0 0
SMALL
USER_CHARGES
****
VDW energy = -70.68
@<TRIPOS>ATOM
   1 O1        2.8124    -6.3749     2.8314  O.2     1  <O>11      -0.2743
   2 C1        2.5669    -5.2321     3.1878  C.2     1  <O>11       0.2295
   3 C2        2.8470    -4.0880     2.2710  C.3     1  <O>11       0.0322
   4 C3        3.4300    -4.6140     0.9690  C.3     1  <O>11       0.0138
   5 C4        2.4637    -5.5303     0.3324  C.ar    1  <O>11       0.1108
   6 N1        1.2797    -5.7761     0.9249  N.ar    1  <O>11      -0.2337
   7 C5        0.4329    -6.6163     0.3134  C.ar    1  <O>11       0.0781
   8 C6       -0.7960    -6.8867     0.9049  C.ar    1  <O>11      -0.0355
   9 C7       -1.7241    -7.7539     0.3187  C.ar    1  <O>11      -0.0597
  10 C8       -1.4274    -8.3710    -0.8891  C.ar    1  <O>11      -0.0609
  11 C9       -0.2030    -8.1168    -1.5028  C.ar    1  <O>11      -0.0474
  12 C10       0.7316    -7.2382    -0.9010  C.ar    1  <O>11       0.0647
  13 C11       1.9819    -6.9119    -1.4214  C.ar    1  <O>11       0.2592
  14 O2        2.3188    -7.5215    -2.6459  O.2     1  <O>11      -0.2672
  15 N2        2.8502    -6.0695    -0.8273  N.ar    1  <O>11      -0.3103
  16 N3        2.0350    -5.0010     4.4280  N.am    1  <O>11      -0.2341
  17 N4        1.7591    -3.7161     4.8287  N.am    1  <O>11      -0.2304
  18 C12       1.2267    -3.4846     6.0694  C.2     1  <O>11       0.2601
  19 O3        0.9975    -4.4205     6.8194  O.2     1  <O>11      -0.2687
  20 C13       0.9346    -2.1211     6.4928  C.ar    1  <O>11       0.0383
  21 C14       0.3869    -1.8758     7.7632  C.ar    1  <O>11      -0.0469
  22 C15       0.0952    -0.5681     8.1653  C.ar    1  <O>11      -0.0257
  23 C16       0.3485     0.5051     7.3061  C.ar    1  <O>11       0.1234
  24 F1        0.0632     1.7897     7.6920  F       1  <O>11      -0.2055
  25 C17       0.8988     0.2607     6.0429  C.ar    1  <O>11      -0.0257
  26 C18       1.1959    -1.0404     5.6342  C.ar    1  <O>11      -0.0469
  27 H1        1.9200    -3.5530     2.0650  H       1  <O>11       0.0363
  28 H2        3.5600    -3.4120     2.7420  H       1  <O>11       0.0363
  29 H3        3.6354    -3.7782     0.3001  H       1  <O>11       0.0348
  30 H4        4.3566    -5.1490     1.1758  H       1  <O>11       0.0348
  31 H5        3.7571    -5.8246    -1.1978  H       1  <O>11       0.1700
  32 H6        1.8440    -5.7829     5.0545  H       1  <O>11       0.1728
  33 H7        1.9500    -2.9342     4.2022  H       1  <O>11       0.1731
  34 H8       -1.0302    -6.4346     1.8026  H       1  <O>11       0.0639
  35 H9       -2.6277    -7.9347     0.7832  H       1  <O>11       0.0618
  36 H10      -2.1071    -9.0115    -1.3279  H       1  <O>11       0.0618
  37 H11       0.0248    -8.5710    -2.4011  H       1  <O>11       0.0626
  38 H12       0.1990    -2.6639     8.4025  H       1  <O>11       0.0626
  39 H13      -0.3084    -0.3951     9.0992  H       1  <O>11       0.0646
  40 H14       1.0871     1.0510     5.4066  H       1  <O>11       0.0646
  41 H15       1.6071    -1.2083     4.7026  H       1  <O>11       0.0626
@<TRIPOS>BOND
     1     1     2    2
     2     2     3    1
     3     3     4    1
     4     4     5    1
     5     5     6   ar
     6     6     7   ar
     7     7     8   ar
     8     8     9   ar
     9     9    10   ar
    10    10    11   ar
    11    11    12   ar
    12     7    12   ar
    13    12    13   ar
    14    13    14    2
    15    13    15   ar
    16     5    15   ar
    17     2    16   am
    18    16    17    1
    19    17    18   am
    20    18    19    2
    21    18    20    1
    22    20    21   ar
    23    21    22   ar
    24    22    23   ar
    25    23    24    1
    26    23    25   ar
    27    25    26   ar
    28    20    26   ar
    29     3    27    1
    30     3    28    1
    31     4    29    1
    32     4    30    1
    33    15    31    1
    34    16    32    1
    35    17    33    1
    36     8    34    1
    37     9    35    1
    38    10    36    1
    39    11    37    1
    40    21    38    1
    41    22    39    1
    42    25    40    1
    43    26    41    1
@<TRIPOS>MOLECULE
mol83_1_19
 41 43 0 0 0
SMALL
USER_CHARGES
****
VDW energy = -70.60
@<TRIPOS>ATOM
   1 O1        2.8124    -6.3749     2.8314  O.2     1  <O>11      -0.2743
   2 C1        2.5669    -5.2321     3.1878  C.2     1  <O>11       0.2295
   3 C2        2.8470    -4.0880     2.2710  C.3     1  <O>11       0.0322
   4 C3        3.4300    -4.6140     0.9690  C.3     1  <O>11       0.0138
   5 C4        3.7070    -3.4830     0.0620  C.ar    1  <O>11       0.1108
   6 N1        4.9631    -3.2587    -0.3685  N.ar    1  <O>11      -0.2337
   7 C5        5.1703    -2.2192    -1.1892  C.ar    1  <O>11       0.0781
   8 C6        6.4584    -1.9663    -1.6476  C.ar    1  <O>11      -0.0355
   9 C7        6.7417    -0.8982    -2.5055  C.ar    1  <O>11      -0.0597
  10 C8        5.7196    -0.0561    -2.9226  C.ar    1  <O>11      -0.0609
  11 C9        4.4200    -0.2879    -2.4781  C.ar    1  <O>11      -0.0474
  12 C10       4.1426    -1.3712    -1.6080  C.ar    1  <O>11       0.0647
  13 C11       2.8866    -1.6967    -1.1011  C.ar    1  <O>11       0.2592
  14 O2        1.8245    -0.8621    -1.5012  O.2     1  <O>11      -0.2672
  15 N2        2.6518    -2.7365    -0.2763  N.ar    1  <O>11      -0.3103
  16 N3        2.0350    -5.0010     4.4280  N.am    1  <O>11      -0.2341
  17 N4        1.7591    -3.7161     4.8287  N.am    1  <O>11      -0.2304
  18 C12       0.8722    -2.9520     4.1172  C.2     1  <O>11       0.2601
  19 O3        0.3269    -3.4131     3.1268  O.2     1  <O>11      -0.2687
  20 C13       0.5807    -1.5893     4.5435  C.ar    1  <O>11       0.0383
  21 C14      -0.3264    -0.7988     3.8180  C.ar    1  <O>11      -0.0469
  22 C15      -0.5974     0.5134     4.2200  C.ar    1  <O>11      -0.0257
  23 C16       0.0314     1.0474     5.3485  C.ar    1  <O>11       0.1234
  24 F1       -0.2271     2.3336     5.7477  F       1  <O>11      -0.2055
  25 C17       0.9309     0.2580     6.0737  C.ar    1  <O>11      -0.0257
  26 C18       1.2053    -1.0533     5.6819  C.ar    1  <O>11      -0.0469
  27 H1        1.9200    -3.5530     2.0650  H       1  <O>11       0.0363
  28 H2        3.5600    -3.4120     2.7420  H       1  <O>11       0.0363
  29 H3        4.3560    -5.1500     1.1770  H       1  <O>11       0.0348
  30 H4        2.7170    -5.2910     0.4990  H       1  <O>11       0.0348
  31 H5        1.7452    -2.9821     0.0940  H       1  <O>11       0.1700
  32 H6        1.8440    -5.7829     5.0545  H       1  <O>11       0.1728
  33 H7        2.2149    -3.3305     5.6557  H       1  <O>11       0.1731
  34 H8        7.2279    -2.5845    -1.3462  H       1  <O>11       0.0639
  35 H9        7.7086    -0.7364    -2.8277  H       1  <O>11       0.0618
  36 H10       5.9207     0.7336    -3.5558  H       1  <O>11       0.0618
  37 H11       3.6547     0.3331    -2.7842  H       1  <O>11       0.0626
  38 H12      -0.7949    -1.1880     2.9849  H       1  <O>11       0.0626
  39 H13      -1.2636     1.0890     3.6818  H       1  <O>11       0.0646
  40 H14       1.3965     0.6495     6.9073  H       1  <O>11       0.0646
  41 H15       1.8659    -1.6283     6.2278  H       1  <O>11       0.0626
@<TRIPOS>BOND
     1     1     2    2
     2     2     3    1
     3     3     4    1
     4     4     5    1
     5     5     6   ar
     6     6     7   ar
     7     7     8   ar
     8     8     9   ar
     9     9    10   ar
    10    10    11   ar
    11    11    12   ar
    12     7    12   ar
    13    12    13   ar
    14    13    14    2
    15    13    15   ar
    16     5    15   ar
    17     2    16   am
    18    16    17    1
    19    17    18   am
    20    18    19    2
    21    18    20    1
    22    20    21   ar
    23    21    22   ar
    24    22    23   ar
    25    23    24    1
    26    23    25   ar
    27    25    26   ar
    28    20    26   ar
    29     3    27    1
    30     3    28    1
    31     4    29    1
    32     4    30    1
    33    15    31    1
    34    16    32    1
    35    17    33    1
    36     8    34    1
    37     9    35    1
    38    10    36    1
    39    11    37    1
    40    21    38    1
    41    22    39    1
    42    25    40    1
    43    26    41    1
@<TRIPOS>MOLECULE
mol83_1_20
 41 43 0 0 0
SMALL
USER_CHARGES
****
VDW energy = -70.53
@<TRIPOS>ATOM
   1 O1        2.8124    -6.3749     2.8314  O.2     1  <O>11      -0.2743
   2 C1        2.5669    -5.2321     3.1878  C.2     1  <O>11       0.2295
   3 C2        2.8470    -4.0880     2.2710  C.3     1  <O>11       0.0322
   4 C3        3.4300    -4.6140     0.9690  C.3     1  <O>11       0.0138
   5 C4        3.7070    -3.4830     0.0620  C.ar    1  <O>11       0.1108
   6 N1        3.4350    -2.2240     0.4550  N.ar    1  <O>11      -0.2337
   7 C5        3.7000    -1.2270    -0.4010  C.ar    1  <O>11       0.0781
   8 C6        3.4280     0.0820    -0.0190  C.ar    1  <O>11      -0.0355
   9 C7        3.6810     1.1670    -0.8650  C.ar    1  <O>11      -0.0597
  10 C8        4.2200     0.9500    -2.1260  C.ar    1  <O>11      -0.0609
  11 C9        4.5020    -0.3520    -2.5330  C.ar    1  <O>11      -0.0474
  12 C10       4.2410    -1.4450    -1.6700  C.ar    1  <O>11       0.0647
  13 C11       4.4810    -2.7840    -1.9700  C.ar    1  <O>11       0.2592
  14 O2        5.0260    -3.0430    -3.2430  O.2     1  <O>11      -0.2672
  15 N2        4.2250    -3.8040    -1.1270  N.ar    1  <O>11      -0.3103
  16 N3        2.0350    -5.0010     4.4280  N.am    1  <O>11      -0.2341
  17 N4        1.7770    -6.0540     5.2720  N.am    1  <O>11      -0.2304
  18 C12       2.7966    -6.8759     5.6737  C.2     1  <O>11       0.2601
  19 O3        3.9349    -6.6724     5.2816  O.2     1  <O>11      -0.2687
  20 C13       2.5212    -7.9924     6.5689  C.ar    1  <O>11       0.0383
  21 C14       3.5614    -8.8407     6.9840  C.ar    1  <O>11      -0.0469
  22 C15       3.2954    -9.9197     7.8337  C.ar    1  <O>11      -0.0257
  23 C16       1.9921   -10.1606     8.2779  C.ar    1  <O>11       0.1234
  24 F1        1.7227   -11.2175     9.1091  F       1  <O>11      -0.2055
  25 C17       0.9572    -9.3122     7.8683  C.ar    1  <O>11      -0.0257
  26 C18       1.2136    -8.2315     7.0231  C.ar    1  <O>11      -0.0469
  27 H1        1.9200    -3.5530     2.0650  H       1  <O>11       0.0363
  28 H2        3.5600    -3.4120     2.7420  H       1  <O>11       0.0363
  29 H3        4.3560    -5.1500     1.1770  H       1  <O>11       0.0348
  30 H4        2.7170    -5.2910     0.4990  H       1  <O>11       0.0348
  31 H5        4.3980    -4.7770    -1.3340  H       1  <O>11       0.1700
  32 H6        1.8300    -4.0470     4.7250  H       1  <O>11       0.1728
  33 H7        0.8261    -6.2244     5.5993  H       1  <O>11       0.1731
  34 H8        3.0278     0.2582     0.9158  H       1  <O>11       0.0639
  35 H9        3.4674     2.1270    -0.5524  H       1  <O>11       0.0618
  36 H10       4.4098     1.7454    -2.7555  H       1  <O>11       0.0618
  37 H11       4.9034    -0.5215    -3.4685  H       1  <O>11       0.0626
  38 H12       4.5260    -8.6672     6.6606  H       1  <O>11       0.0626
  39 H13       4.0638   -10.5398     8.1335  H       1  <O>11       0.0646
  40 H14      -0.0059    -9.4875     8.1948  H       1  <O>11       0.0646
  41 H15       0.4436    -7.6089     6.7322  H       1  <O>11       0.0626
@<TRIPOS>BOND
     1     1     2    2
     2     2     3    1
     3     3     4    1
     4     4     5    1
     5     5     6   ar
     6     6     7   ar
     7     7     8   ar
     8     8     9   ar
     9     9    10   ar
    10    10    11   ar
    11    11    12   ar
    12     7    12   ar
    13    12    13   ar
    14    13    14    2
    15    13    15   ar
    16     5    15   ar
    17     2    16   am
    18    16    17    1
    19    17    18   am
    20    18    19    2
    21    18    20    1
    22    20    21   ar
    23    21    22   ar
    24    22    23   ar
    25    23    24    1
    26    23    25   ar
    27    25    26   ar
    28    20    26   ar
    29     3    27    1
    30     3    28    1
    31     4    29    1
    32     4    30    1
    33    15    31    1
    34    16    32    1
    35    17    33    1
    36     8    34    1
    37     9    35    1
    38    10    36    1
    39    11    37    1
    40    21    38    1
    41    22    39    1
    42    25    40    1
    43    26    41    1
@<TRIPOS>MOLECULE
mol83_1_21
 41 43 0 0 0
SMALL
USER_CHARGES
****
VDW energy = -69.94
@<TRIPOS>ATOM
   1 O1        2.8124    -6.3749     2.8314  O.2     1  <O>11      -0.2743
   2 C1        2.5669    -5.2321     3.1878  C.2     1  <O>11       0.2295
   3 C2        2.8470    -4.0880     2.2710  C.3     1  <O>11       0.0322
   4 C3        3.4300    -4.6140     0.9690  C.3     1  <O>11       0.0138
   5 C4        3.7070    -3.4830     0.0620  C.ar    1  <O>11       0.1108
   6 N1        3.4350    -2.2240     0.4550  N.ar    1  <O>11      -0.2337
   7 C5        3.7000    -1.2270    -0.4010  C.ar    1  <O>11       0.0781
   8 C6        3.4280     0.0820    -0.0190  C.ar    1  <O>11      -0.0355
   9 C7        3.6810     1.1670    -0.8650  C.ar    1  <O>11      -0.0597
  10 C8        4.2200     0.9500    -2.1260  C.ar    1  <O>11      -0.0609
  11 C9        4.5020    -0.3520    -2.5330  C.ar    1  <O>11      -0.0474
  12 C10       4.2410    -1.4450    -1.6700  C.ar    1  <O>11       0.0647
  13 C11       4.4810    -2.7840    -1.9700  C.ar    1  <O>11       0.2592
  14 O2        5.0260    -3.0430    -3.2430  O.2     1  <O>11      -0.2672
  15 N2        4.2250    -3.8040    -1.1270  N.ar    1  <O>11      -0.3103
  16 N3        2.0350    -5.0010     4.4280  N.am    1  <O>11      -0.2341
  17 N4        1.7591    -3.7161     4.8287  N.am    1  <O>11      -0.2304
  18 C12       0.8722    -2.9520     4.1172  C.2     1  <O>11       0.2601
  19 O3        0.3269    -3.4131     3.1268  O.2     1  <O>11      -0.2687
  20 C13       0.5807    -1.5893     4.5435  C.ar    1  <O>11       0.0383
  21 C14      -0.3264    -0.7988     3.8180  C.ar    1  <O>11      -0.0469
  22 C15      -0.5974     0.5134     4.2200  C.ar    1  <O>11      -0.0257
  23 C16       0.0314     1.0474     5.3485  C.ar    1  <O>11       0.1234
  24 F1       -0.2271     2.3336     5.7477  F       1  <O>11      -0.2055
  25 C17       0.9309     0.2580     6.0737  C.ar    1  <O>11      -0.0257
  26 C18       1.2053    -1.0533     5.6819  C.ar    1  <O>11      -0.0469
  27 H1        1.9200    -3.5530     2.0650  H       1  <O>11       0.0363
  28 H2        3.5600    -3.4120     2.7420  H       1  <O>11       0.0363
  29 H3        4.3560    -5.1500     1.1770  H       1  <O>11       0.0348
  30 H4        2.7170    -5.2910     0.4990  H       1  <O>11       0.0348
  31 H5        4.3980    -4.7770    -1.3340  H       1  <O>11       0.1700
  32 H6        1.8440    -5.7829     5.0545  H       1  <O>11       0.1728
  33 H7        2.2149    -3.3305     5.6557  H       1  <O>11       0.1731
  34 H8        3.0278     0.2582     0.9158  H       1  <O>11       0.0639
  35 H9        3.4674     2.1270    -0.5524  H       1  <O>11       0.0618
  36 H10       4.4098     1.7454    -2.7555  H       1  <O>11       0.0618
  37 H11       4.9034    -0.5215    -3.4685  H       1  <O>11       0.0626
  38 H12      -0.7949    -1.1880     2.9849  H       1  <O>11       0.0626
  39 H13      -1.2636     1.0890     3.6818  H       1  <O>11       0.0646
  40 H14       1.3965     0.6495     6.9073  H       1  <O>11       0.0646
  41 H15       1.8659    -1.6283     6.2278  H       1  <O>11       0.0626
@<TRIPOS>BOND
     1     1     2    2
     2     2     3    1
     3     3     4    1
     4     4     5    1
     5     5     6   ar
     6     6     7   ar
     7     7     8   ar
     8     8     9   ar
     9     9    10   ar
    10    10    11   ar
    11    11    12   ar
    12     7    12   ar
    13    12    13   ar
    14    13    14    2
    15    13    15   ar
    16     5    15   ar
    17     2    16   am
    18    16    17    1
    19    17    18   am
    20    18    19    2
    21    18    20    1
    22    20    21   ar
    23    21    22   ar
    24    22    23   ar
    25    23    24    1
    26    23    25   ar
    27    25    26   ar
    28    20    26   ar
    29     3    27    1
    30     3    28    1
    31     4    29    1
    32     4    30    1
    33    15    31    1
    34    16    32    1
    35    17    33    1
    36     8    34    1
    37     9    35    1
    38    10    36    1
    39    11    37    1
    40    21    38    1
    41    22    39    1
    42    25    40    1
    43    26    41    1
@<TRIPOS>MOLECULE
mol83_1_22
 41 43 0 0 0
SMALL
USER_CHARGES
****
VDW energy = -68.69
@<TRIPOS>ATOM
   1 O1        2.8124    -6.3749     2.8314  O.2     1  <O>11      -0.2743
   2 C1        2.5669    -5.2321     3.1878  C.2     1  <O>11       0.2295
   3 C2        2.8470    -4.0880     2.2710  C.3     1  <O>11       0.0322
   4 C3        3.4300    -4.6140     0.9690  C.3     1  <O>11       0.0138
   5 C4        2.4637    -5.5303     0.3324  C.ar    1  <O>11       0.1108
   6 N1        1.2797    -5.7761     0.9249  N.ar    1  <O>11      -0.2337
   7 C5        0.4329    -6.6163     0.3134  C.ar    1  <O>11       0.0781
   8 C6       -0.7960    -6.8867     0.9049  C.ar    1  <O>11      -0.0355
   9 C7       -1.7241    -7.7539     0.3187  C.ar    1  <O>11      -0.0597
  10 C8       -1.4274    -8.3710    -0.8891  C.ar    1  <O>11      -0.0609
  11 C9       -0.2030    -8.1168    -1.5028  C.ar    1  <O>11      -0.0474
  12 C10       0.7316    -7.2382    -0.9010  C.ar    1  <O>11       0.0647
  13 C11       1.9819    -6.9119    -1.4214  C.ar    1  <O>11       0.2592
  14 O2        2.3188    -7.5215    -2.6459  O.2     1  <O>11      -0.2672
  15 N2        2.8502    -6.0695    -0.8273  N.ar    1  <O>11      -0.3103
  16 N3        2.0350    -5.0010     4.4280  N.am    1  <O>11      -0.2341
  17 N4        1.7591    -3.7161     4.8287  N.am    1  <O>11      -0.2304
  18 C12       2.7653    -2.7892     4.8987  C.2     1  <O>11       0.2601
  19 O3        3.9075    -3.1051     4.6049  O.2     1  <O>11      -0.2687
  20 C13       2.4709    -1.4267     5.3239  C.ar    1  <O>11       0.0383
  21 C14       2.5373    -1.0790     6.6836  C.ar    1  <O>11      -0.0469
  22 C15       2.2431     0.2258     7.0934  C.ar    1  <O>11      -0.0257
  23 C16       1.8826     1.1943     6.1522  C.ar    1  <O>11       0.1234
  24 F1        1.5905     2.4749     6.5461  F       1  <O>11      -0.2055
  25 C17       1.8217     0.8488     4.7975  C.ar    1  <O>11      -0.0257
  26 C18       2.1164    -0.4497     4.3789  C.ar    1  <O>11      -0.0469
  27 H1        1.9200    -3.5530     2.0650  H       1  <O>11       0.0363
  28 H2        3.5600    -3.4120     2.7420  H       1  <O>11       0.0363
  29 H3        3.6354    -3.7782     0.3001  H       1  <O>11       0.0348
  30 H4        4.3566    -5.1490     1.1758  H       1  <O>11       0.0348
  31 H5        3.7571    -5.8246    -1.1978  H       1  <O>11       0.1700
  32 H6        1.8440    -5.7829     5.0545  H       1  <O>11       0.1728
  33 H7        0.8050    -3.4521     5.0745  H       1  <O>11       0.1731
  34 H8       -1.0302    -6.4346     1.8026  H       1  <O>11       0.0639
  35 H9       -2.6277    -7.9347     0.7832  H       1  <O>11       0.0618
  36 H10      -2.1071    -9.0115    -1.3279  H       1  <O>11       0.0618
  37 H11       0.0248    -8.5710    -2.4011  H       1  <O>11       0.0626
  38 H12       2.8043    -1.7893     7.3831  H       1  <O>11       0.0626
  39 H13       2.2924     0.4740     8.0939  H       1  <O>11       0.0646
  40 H14       1.5560     1.5618     4.1003  H       1  <O>11       0.0646
  41 H15       2.0739    -0.6917     3.3765  H       1  <O>11       0.0626
@<TRIPOS>BOND
     1     1     2    2
     2     2     3    1
     3     3     4    1
     4     4     5    1
     5     5     6   ar
     6     6     7   ar
     7     7     8   ar
     8     8     9   ar
     9     9    10   ar
    10    10    11   ar
    11    11    12   ar
    12     7    12   ar
    13    12    13   ar
    14    13    14    2
    15    13    15   ar
    16     5    15   ar
    17     2    16   am
    18    16    17    1
    19    17    18   am
    20    18    19    2
    21    18    20    1
    22    20    21   ar
    23    21    22   ar
    24    22    23   ar
    25    23    24    1
    26    23    25   ar
    27    25    26   ar
    28    20    26   ar
    29     3    27    1
    30     3    28    1
    31     4    29    1
    32     4    30    1
    33    15    31    1
    34    16    32    1
    35    17    33    1
    36     8    34    1
    37     9    35    1
    38    10    36    1
    39    11    37    1
    40    21    38    1
    41    22    39    1
    42    25    40    1
    43    26    41    1
@<TRIPOS>MOLECULE
mol83_1_23
 41 43 0 0 0
SMALL
USER_CHARGES
****
VDW energy = -66.22
@<TRIPOS>ATOM
   1 O1        2.8124    -6.3749     2.8314  O.2     1  <O>11      -0.2743
   2 C1        2.5669    -5.2321     3.1878  C.2     1  <O>11       0.2295
   3 C2        2.8470    -4.0880     2.2710  C.3     1  <O>11       0.0322
   4 C3        3.5401    -2.9777     3.0447  C.3     1  <O>11       0.0138
   5 C4        3.8174    -1.8461     2.1384  C.ar    1  <O>11       0.1108
   6 N1        3.4580    -1.9190     0.8427  N.ar    1  <O>11      -0.2337
   7 C5        3.7310    -0.8696     0.0545  C.ar    1  <O>11       0.0781
   8 C6        3.3701    -0.9202    -1.2874  C.ar    1  <O>11      -0.0355
   9 C7        3.6265     0.1405    -2.1626  C.ar    1  <O>11      -0.0597
  10 C8        4.2578     1.2855    -1.6957  C.ar    1  <O>11      -0.0609
  11 C9        4.6295     1.3618    -0.3554  C.ar    1  <O>11      -0.0474
  12 C10       4.3672     0.2818     0.5235  C.ar    1  <O>11       0.0647
  13 C11       4.6936     0.2469     1.8773  C.ar    1  <O>11       0.2592
  14 O2        5.3381     1.3915     2.3863  O.2     1  <O>11      -0.2672
  15 N2        4.4289    -0.7945     2.6909  N.ar    1  <O>11      -0.3103
  16 N3        2.0350    -5.0010     4.4280  N.am    1  <O>11      -0.2341
  17 N4        1.7770    -6.0540     5.2720  N.am    1  <O>11      -0.2304
  18 C12       1.2450    -5.8230     6.5130  C.2     1  <O>11       0.2601
  19 O3        1.0160    -6.7592     7.2627  O.2     1  <O>11      -0.2687
  20 C13       0.9531    -4.4597     6.9370  C.ar    1  <O>11       0.0383
  21 C14       0.4076    -3.5368     6.0288  C.ar    1  <O>11      -0.0469
  22 C15       0.1384    -2.2246     6.4322  C.ar    1  <O>11      -0.0257
  23 C16       0.4085    -1.8224     7.7434  C.ar    1  <O>11       0.1234
  24 F1        0.1496    -0.5373     8.1460  F       1  <O>11      -0.2055
  25 C17       0.9470    -2.7434     8.6491  C.ar    1  <O>11      -0.0257
  26 C18       1.2160    -4.0555     8.2565  C.ar    1  <O>11      -0.0469
  27 H1        3.4921    -4.4235     1.4590  H       1  <O>11       0.0363
  28 H2        1.9095    -3.7147     1.8601  H       1  <O>11       0.0363
  29 H3        2.8943    -2.6445     3.8571  H       1  <O>11       0.0348
  30 H4        4.4770    -3.3520     3.4565  H       1  <O>11       0.0348
  31 H5        4.6588    -0.8281     3.6736  H       1  <O>11       0.1700
  32 H6        1.8300    -4.0470     4.7250  H       1  <O>11       0.1728
  33 H7        1.9820    -7.0080     4.9750  H       1  <O>11       0.1731
  34 H8        2.8995    -1.7649    -1.6481  H       1  <O>11       0.0639
  35 H9        3.3468     0.0721    -3.1536  H       1  <O>11       0.0618
  36 H10       4.4499     2.0723    -2.3353  H       1  <O>11       0.0618
  37 H11       5.0986     2.2097    -0.0005  H       1  <O>11       0.0626
  38 H12       0.2047    -3.8282     5.0598  H       1  <O>11       0.0626
  39 H13      -0.2608    -1.5515     5.7596  H       1  <O>11       0.0646
  40 H14       1.1472    -2.4493     9.6178  H       1  <O>11       0.0646
  41 H15       1.6076    -4.7278     8.9345  H       1  <O>11       0.0626
@<TRIPOS>BOND
     1     1     2    2
     2     2     3    1
     3     3     4    1
     4     4     5    1
     5     5     6   ar
     6     6     7   ar
     7     7     8   ar
     8     8     9   ar
     9     9    10   ar
    10    10    11   ar
    11    11    12   ar
    12     7    12   ar
    13    12    13   ar
    14    13    14    2
    15    13    15   ar
    16     5    15   ar
    17     2    16   am
    18    16    17    1
    19    17    18   am
    20    18    19    2
    21    18    20    1
    22    20    21   ar
    23    21    22   ar
    24    22    23   ar
    25    23    24    1
    26    23    25   ar
    27    25    26   ar
    28    20    26   ar
    29     3    27    1
    30     3    28    1
    31     4    29    1
    32     4    30    1
    33    15    31    1
    34    16    32    1
    35    17    33    1
    36     8    34    1
    37     9    35    1
    38    10    36    1
    39    11    37    1
    40    21    38    1
    41    22    39    1
    42    25    40    1
    43    26    41    1
@<TRIPOS>MOLECULE
mol83_1_24
 41 43 0 0 0
SMALL
USER_CHARGES
****
VDW energy = -65.98
@<TRIPOS>ATOM
   1 O1        2.8124    -6.3749     2.8314  O.2     1  <O>11      -0.2743
   2 C1        2.5669    -5.2321     3.1878  C.2     1  <O>11       0.2295
   3 C2        2.8470    -4.0880     2.2710  C.3     1  <O>11       0.0322
   4 C3        3.4300    -4.6140     0.9690  C.3     1  <O>11       0.0138
   5 C4        2.4637    -5.5303     0.3324  C.ar    1  <O>11       0.1108
   6 N1        1.2797    -5.7761     0.9249  N.ar    1  <O>11      -0.2337
   7 C5        0.4329    -6.6163     0.3134  C.ar    1  <O>11       0.0781
   8 C6       -0.7960    -6.8867     0.9049  C.ar    1  <O>11      -0.0355
   9 C7       -1.7241    -7.7539     0.3187  C.ar    1  <O>11      -0.0597
  10 C8       -1.4274    -8.3710    -0.8891  C.ar    1  <O>11      -0.0609
  11 C9       -0.2030    -8.1168    -1.5028  C.ar    1  <O>11      -0.0474
  12 C10       0.7316    -7.2382    -0.9010  C.ar    1  <O>11       0.0647
  13 C11       1.9819    -6.9119    -1.4214  C.ar    1  <O>11       0.2592
  14 O2        2.3188    -7.5215    -2.6459  O.2     1  <O>11      -0.2672
  15 N2        2.8502    -6.0695    -0.8273  N.ar    1  <O>11      -0.3103
  16 N3        2.0350    -5.0010     4.4280  N.am    1  <O>11      -0.2341
  17 N4        1.7591    -3.7161     4.8287  N.am    1  <O>11      -0.2304
  18 C12       2.7653    -2.7892     4.8987  C.2     1  <O>11       0.2601
  19 O3        3.9075    -3.1051     4.6049  O.2     1  <O>11      -0.2687
  20 C13       2.4709    -1.4267     5.3239  C.ar    1  <O>11       0.0383
  21 C14       1.2940    -0.7897     4.8960  C.ar    1  <O>11      -0.0469
  22 C15       1.0170     0.5224     5.2942  C.ar    1  <O>11      -0.0257
  23 C16       1.9089     1.2090     6.1231  C.ar    1  <O>11       0.1234
  24 F1        1.6457     2.4962     6.5161  F       1  <O>11      -0.2055
  25 C17       3.0784     0.5723     6.5534  C.ar    1  <O>11      -0.0257
  26 C18       3.3617    -0.7376     6.1636  C.ar    1  <O>11      -0.0469
  27 H1        1.9200    -3.5530     2.0650  H       1  <O>11       0.0363
  28 H2        3.5600    -3.4120     2.7420  H       1  <O>11       0.0363
  29 H3        3.6354    -3.7782     0.3001  H       1  <O>11       0.0348
  30 H4        4.3566    -5.1490     1.1758  H       1  <O>11       0.0348
  31 H5        3.7571    -5.8246    -1.1978  H       1  <O>11       0.1700
  32 H6        1.8440    -5.7829     5.0545  H       1  <O>11       0.1728
  33 H7        0.8050    -3.4521     5.0745  H       1  <O>11       0.1731
  34 H8       -1.0302    -6.4346     1.8026  H       1  <O>11       0.0639
  35 H9       -2.6277    -7.9347     0.7832  H       1  <O>11       0.0618
  36 H10      -2.1071    -9.0115    -1.3279  H       1  <O>11       0.0618
  37 H11       0.0248    -8.5710    -2.4011  H       1  <O>11       0.0626
  38 H12       0.6310    -1.2920     4.2851  H       1  <O>11       0.0626
  39 H13       0.1515     0.9848     4.9750  H       1  <O>11       0.0646
  40 H14       3.7385     1.0767     7.1655  H       1  <O>11       0.0646
  41 H15       4.2244    -1.1993     6.4918  H       1  <O>11       0.0626
@<TRIPOS>BOND
     1     1     2    2
     2     2     3    1
     3     3     4    1
     4     4     5    1
     5     5     6   ar
     6     6     7   ar
     7     7     8   ar
     8     8     9   ar
     9     9    10   ar
    10    10    11   ar
    11    11    12   ar
    12     7    12   ar
    13    12    13   ar
    14    13    14    2
    15    13    15   ar
    16     5    15   ar
    17     2    16   am
    18    16    17    1
    19    17    18   am
    20    18    19    2
    21    18    20    1
    22    20    21   ar
    23    21    22   ar
    24    22    23   ar
    25    23    24    1
    26    23    25   ar
    27    25    26   ar
    28    20    26   ar
    29     3    27    1
    30     3    28    1
    31     4    29    1
    32     4    30    1
    33    15    31    1
    34    16    32    1
    35    17    33    1
    36     8    34    1
    37     9    35    1
    38    10    36    1
    39    11    37    1
    40    21    38    1
    41    22    39    1
    42    25    40    1
    43    26    41    1
@<TRIPOS>MOLECULE
mol83_1_25
 41 43 0 0 0
SMALL
USER_CHARGES
****
VDW energy = -65.69
@<TRIPOS>ATOM
   1 O1        2.8124    -6.3749     2.8314  O.2     1  <O>11      -0.2743
   2 C1        2.5669    -5.2321     3.1878  C.2     1  <O>11       0.2295
   3 C2        2.8470    -4.0880     2.2710  C.3     1  <O>11       0.0322
   4 C3        3.4300    -4.6140     0.9690  C.3     1  <O>11       0.0138
   5 C4        2.4637    -5.5303     0.3324  C.ar    1  <O>11       0.1108
   6 N1        1.2797    -5.7761     0.9249  N.ar    1  <O>11      -0.2337
   7 C5        0.4329    -6.6163     0.3134  C.ar    1  <O>11       0.0781
   8 C6       -0.7960    -6.8867     0.9049  C.ar    1  <O>11      -0.0355
   9 C7       -1.7241    -7.7539     0.3187  C.ar    1  <O>11      -0.0597
  10 C8       -1.4274    -8.3710    -0.8891  C.ar    1  <O>11      -0.0609
  11 C9       -0.2030    -8.1168    -1.5028  C.ar    1  <O>11      -0.0474
  12 C10       0.7316    -7.2382    -0.9010  C.ar    1  <O>11       0.0647
  13 C11       1.9819    -6.9119    -1.4214  C.ar    1  <O>11       0.2592
  14 O2        2.3188    -7.5215    -2.6459  O.2     1  <O>11      -0.2672
  15 N2        2.8502    -6.0695    -0.8273  N.ar    1  <O>11      -0.3103
  16 N3        2.0350    -5.0010     4.4280  N.am    1  <O>11      -0.2341
  17 N4        1.7591    -3.7161     4.8287  N.am    1  <O>11      -0.2304
  18 C12       0.8722    -2.9520     4.1172  C.2     1  <O>11       0.2601
  19 O3        0.3269    -3.4131     3.1268  O.2     1  <O>11      -0.2687
  20 C13       0.5807    -1.5893     4.5435  C.ar    1  <O>11       0.0383
  21 C14       1.3475    -0.5162     4.0592  C.ar    1  <O>11      -0.0469
  22 C15       1.0756     0.7907     4.4775  C.ar    1  <O>11      -0.0257
  23 C16       0.0370     1.0389     5.3795  C.ar    1  <O>11       0.1234
  24 F1       -0.2344     2.3169     5.7962  F       1  <O>11      -0.2055
  25 C17      -0.7298    -0.0297     5.8575  C.ar    1  <O>11      -0.0257
  26 C18      -0.4679    -1.3366     5.4435  C.ar    1  <O>11      -0.0469
  27 H1        1.9200    -3.5530     2.0650  H       1  <O>11       0.0363
  28 H2        3.5600    -3.4120     2.7420  H       1  <O>11       0.0363
  29 H3        3.6354    -3.7782     0.3001  H       1  <O>11       0.0348
  30 H4        4.3566    -5.1490     1.1758  H       1  <O>11       0.0348
  31 H5        3.7571    -5.8246    -1.1978  H       1  <O>11       0.1700
  32 H6        1.8440    -5.7829     5.0545  H       1  <O>11       0.1728
  33 H7        2.2149    -3.3305     5.6557  H       1  <O>11       0.1731
  34 H8       -1.0302    -6.4346     1.8026  H       1  <O>11       0.0639
  35 H9       -2.6277    -7.9347     0.7832  H       1  <O>11       0.0618
  36 H10      -2.1071    -9.0115    -1.3279  H       1  <O>11       0.0618
  37 H11       0.0248    -8.5710    -2.4011  H       1  <O>11       0.0626
  38 H12       2.1148    -0.6929     3.3920  H       1  <O>11       0.0626
  39 H13       1.6437     1.5741     4.1191  H       1  <O>11       0.0646
  40 H14      -1.4974     0.1506     6.5234  H       1  <O>11       0.0646
  41 H15      -1.0437    -2.1163     5.7981  H       1  <O>11       0.0626
@<TRIPOS>BOND
     1     1     2    2
     2     2     3    1
     3     3     4    1
     4     4     5    1
     5     5     6   ar
     6     6     7   ar
     7     7     8   ar
     8     8     9   ar
     9     9    10   ar
    10    10    11   ar
    11    11    12   ar
    12     7    12   ar
    13    12    13   ar
    14    13    14    2
    15    13    15   ar
    16     5    15   ar
    17     2    16   am
    18    16    17    1
    19    17    18   am
    20    18    19    2
    21    18    20    1
    22    20    21   ar
    23    21    22   ar
    24    22    23   ar
    25    23    24    1
    26    23    25   ar
    27    25    26   ar
    28    20    26   ar
    29     3    27    1
    30     3    28    1
    31     4    29    1
    32     4    30    1
    33    15    31    1
    34    16    32    1
    35    17    33    1
    36     8    34    1
    37     9    35    1
    38    10    36    1
    39    11    37    1
    40    21    38    1
    41    22    39    1
    42    25    40    1
    43    26    41    1
@<TRIPOS>MOLECULE
mol83_1_26
 41 43 0 0 0
SMALL
USER_CHARGES
****
VDW energy = -63.42
@<TRIPOS>ATOM
   1 O1        2.8124    -6.3749     2.8314  O.2     1  <O>11      -0.2743
   2 C1        2.5669    -5.2321     3.1878  C.2     1  <O>11       0.2295
   3 C2        2.8470    -4.0880     2.2710  C.3     1  <O>11       0.0322
   4 C3        3.4300    -4.6140     0.9690  C.3     1  <O>11       0.0138
   5 C4        2.4637    -5.5303     0.3324  C.ar    1  <O>11       0.1108
   6 N1        1.5494    -5.0488    -0.5312  N.ar    1  <O>11      -0.2337
   7 C5        0.6896    -5.9156    -1.0846  C.ar    1  <O>11       0.0781
   8 C6       -0.2643    -5.4434    -1.9794  C.ar    1  <O>11      -0.0355
   9 C7       -1.1901    -6.2952    -2.5911  C.ar    1  <O>11      -0.0597
  10 C8       -1.1708    -7.6546    -2.3096  C.ar    1  <O>11      -0.0609
  11 C9       -0.2250    -8.1534    -1.4167  C.ar    1  <O>11      -0.0474
  12 C10       0.7079    -7.2830    -0.8007  C.ar    1  <O>11       0.0647
  13 C11       1.6936    -7.6685     0.1050  C.ar    1  <O>11       0.2592
  14 O2        1.7421    -9.0414     0.4169  O.2     1  <O>11      -0.2672
  15 N2        2.5705    -6.8175     0.6739  N.ar    1  <O>11      -0.3103
  16 N3        2.0350    -5.0010     4.4280  N.am    1  <O>11      -0.2341
  17 N4        1.7591    -3.7161     4.8287  N.am    1  <O>11      -0.2304
  18 C12       1.2267    -3.4846     6.0694  C.2     1  <O>11       0.2601
  19 O3        0.9975    -4.4205     6.8194  O.2     1  <O>11      -0.2687
  20 C13       0.9346    -2.1211     6.4928  C.ar    1  <O>11       0.0383
  21 C14       0.3869    -1.8758     7.7632  C.ar    1  <O>11      -0.0469
  22 C15       0.0952    -0.5681     8.1653  C.ar    1  <O>11      -0.0257
  23 C16       0.3485     0.5051     7.3061  C.ar    1  <O>11       0.1234
  24 F1        0.0632     1.7897     7.6920  F       1  <O>11      -0.2055
  25 C17       0.8988     0.2607     6.0429  C.ar    1  <O>11      -0.0257
  26 C18       1.1959    -1.0404     5.6342  C.ar    1  <O>11      -0.0469
  27 H1        1.9200    -3.5530     2.0650  H       1  <O>11       0.0363
  28 H2        3.5600    -3.4120     2.7420  H       1  <O>11       0.0363
  29 H3        3.6354    -3.7782     0.3001  H       1  <O>11       0.0348
  30 H4        4.3566    -5.1490     1.1758  H       1  <O>11       0.0348
  31 H5        3.2899    -7.0875     1.3289  H       1  <O>11       0.1700
  32 H6        1.8440    -5.7829     5.0545  H       1  <O>11       0.1728
  33 H7        1.9500    -2.9342     4.2022  H       1  <O>11       0.1731
  34 H8       -0.2899    -4.4353    -2.1986  H       1  <O>11       0.0639
  35 H9       -1.8863    -5.9138    -3.2505  H       1  <O>11       0.0618
  36 H10      -1.8503    -8.2892    -2.7573  H       1  <O>11       0.0618
  37 H11      -0.2036    -9.1627    -1.2028  H       1  <O>11       0.0626
  38 H12       0.1990    -2.6639     8.4025  H       1  <O>11       0.0626
  39 H13      -0.3084    -0.3951     9.0992  H       1  <O>11       0.0646
  40 H14       1.0871     1.0510     5.4066  H       1  <O>11       0.0646
  41 H15       1.6071    -1.2083     4.7026  H       1  <O>11       0.0626
@<TRIPOS>BOND
     1     1     2    2
     2     2     3    1
     3     3     4    1
     4     4     5    1
     5     5     6   ar
     6     6     7   ar
     7     7     8   ar
     8     8     9   ar
     9     9    10   ar
    10    10    11   ar
    11    11    12   ar
    12     7    12   ar
    13    12    13   ar
    14    13    14    2
    15    13    15   ar
    16     5    15   ar
    17     2    16   am
    18    16    17    1
    19    17    18   am
    20    18    19    2
    21    18    20    1
    22    20    21   ar
    23    21    22   ar
    24    22    23   ar
    25    23    24    1
    26    23    25   ar
    27    25    26   ar
    28    20    26   ar
    29     3    27    1
    30     3    28    1
    31     4    29    1
    32     4    30    1
    33    15    31    1
    34    16    32    1
    35    17    33    1
    36     8    34    1
    37     9    35    1
    38    10    36    1
    39    11    37    1
    40    21    38    1
    41    22    39    1
    42    25    40    1
    43    26    41    1
@<TRIPOS>MOLECULE
mol83_1_27
 41 43 0 0 0
SMALL
USER_CHARGES
****
VDW energy = -62.60
@<TRIPOS>ATOM
   1 O1        2.8124    -6.3749     2.8314  O.2     1  <O>11      -0.2743
   2 C1        2.5669    -5.2321     3.1878  C.2     1  <O>11       0.2295
   3 C2        2.8470    -4.0880     2.2710  C.3     1  <O>11       0.0322
   4 C3        3.4300    -4.6140     0.9690  C.3     1  <O>11       0.0138
   5 C4        2.4637    -5.5303     0.3324  C.ar    1  <O>11       0.1108
   6 N1        2.4979    -6.8463     0.6161  N.ar    1  <O>11      -0.2337
   7 C5        1.6036    -7.6427     0.0138  C.ar    1  <O>11       0.0781
   8 C6        1.6183    -9.0055     0.2898  C.ar    1  <O>11      -0.0355
   9 C7        0.7127    -9.8903    -0.3051  C.ar    1  <O>11      -0.0597
  10 C8       -0.2360    -9.4121    -1.1990  C.ar    1  <O>11      -0.0609
  11 C9       -0.2722    -8.0509    -1.4925  C.ar    1  <O>11      -0.0474
  12 C10       0.6500    -7.1622    -0.8864  C.ar    1  <O>11       0.0647
  13 C11       0.7073    -5.7877    -1.1048  C.ar    1  <O>11       0.2592
  14 O2       -0.2394    -5.2665    -2.0085  O.2     1  <O>11      -0.2672
  15 N2        1.5950    -4.9654    -0.5111  N.ar    1  <O>11      -0.3103
  16 N3        2.0350    -5.0010     4.4280  N.am    1  <O>11      -0.2341
  17 N4        1.7591    -3.7161     4.8287  N.am    1  <O>11      -0.2304
  18 C12       1.2267    -3.4846     6.0694  C.2     1  <O>11       0.2601
  19 O3        0.9975    -4.4205     6.8194  O.2     1  <O>11      -0.2687
  20 C13       0.9346    -2.1211     6.4928  C.ar    1  <O>11       0.0383
  21 C14       0.3869    -1.8758     7.7632  C.ar    1  <O>11      -0.0469
  22 C15       0.0952    -0.5681     8.1653  C.ar    1  <O>11      -0.0257
  23 C16       0.3485     0.5051     7.3061  C.ar    1  <O>11       0.1234
  24 F1        0.0632     1.7897     7.6920  F       1  <O>11      -0.2055
  25 C17       0.8988     0.2607     6.0429  C.ar    1  <O>11      -0.0257
  26 C18       1.1959    -1.0404     5.6342  C.ar    1  <O>11      -0.0469
  27 H1        1.9200    -3.5530     2.0650  H       1  <O>11       0.0363
  28 H2        3.5600    -3.4120     2.7420  H       1  <O>11       0.0363
  29 H3        3.6354    -3.7782     0.3001  H       1  <O>11       0.0348
  30 H4        4.3566    -5.1490     1.1758  H       1  <O>11       0.0348
  31 H5        1.6428    -3.9680    -0.6607  H       1  <O>11       0.1700
  32 H6        1.8440    -5.7829     5.0545  H       1  <O>11       0.1728
  33 H7        1.9500    -2.9342     4.2022  H       1  <O>11       0.1731
  34 H8        2.3176    -9.3748     0.9528  H       1  <O>11       0.0639
  35 H9        0.7497   -10.8967    -0.0800  H       1  <O>11       0.0618
  36 H10      -0.9076   -10.0587    -1.6415  H       1  <O>11       0.0618
  37 H11      -0.9749    -7.6875    -2.1553  H       1  <O>11       0.0626
  38 H12       0.1990    -2.6639     8.4025  H       1  <O>11       0.0626
  39 H13      -0.3084    -0.3951     9.0992  H       1  <O>11       0.0646
  40 H14       1.0871     1.0510     5.4066  H       1  <O>11       0.0646
  41 H15       1.6071    -1.2083     4.7026  H       1  <O>11       0.0626
@<TRIPOS>BOND
     1     1     2    2
     2     2     3    1
     3     3     4    1
     4     4     5    1
     5     5     6   ar
     6     6     7   ar
     7     7     8   ar
     8     8     9   ar
     9     9    10   ar
    10    10    11   ar
    11    11    12   ar
    12     7    12   ar
    13    12    13   ar
    14    13    14    2
    15    13    15   ar
    16     5    15   ar
    17     2    16   am
    18    16    17    1
    19    17    18   am
    20    18    19    2
    21    18    20    1
    22    20    21   ar
    23    21    22   ar
    24    22    23   ar
    25    23    24    1
    26    23    25   ar
    27    25    26   ar
    28    20    26   ar
    29     3    27    1
    30     3    28    1
    31     4    29    1
    32     4    30    1
    33    15    31    1
    34    16    32    1
    35    17    33    1
    36     8    34    1
    37     9    35    1
    38    10    36    1
    39    11    37    1
    40    21    38    1
    41    22    39    1
    42    25    40    1
    43    26    41    1
@<TRIPOS>MOLECULE
mol83_1_28
 41 43 0 0 0
SMALL
USER_CHARGES
****
VDW energy = -61.68
@<TRIPOS>ATOM
   1 O1        2.8124    -6.3749     2.8314  O.2     1  <O>11      -0.2743
   2 C1        2.5669    -5.2321     3.1878  C.2     1  <O>11       0.2295
   3 C2        2.8470    -4.0880     2.2710  C.3     1  <O>11       0.0322
   4 C3        3.4300    -4.6140     0.9690  C.3     1  <O>11       0.0138
   5 C4        4.6847    -5.3390     1.2496  C.ar    1  <O>11       0.1108
   6 N1        5.1325    -5.4426     2.5154  N.ar    1  <O>11      -0.2337
   7 C5        6.2774    -6.1076     2.7248  C.ar    1  <O>11       0.0781
   8 C6        6.7610    -6.2285     4.0229  C.ar    1  <O>11      -0.0355
   9 C7        7.9491    -6.9093     4.3090  C.ar    1  <O>11      -0.0597
  10 C8        8.6796    -7.4884     3.2800  C.ar    1  <O>11      -0.0609
  11 C9        8.2168    -7.3820     1.9704  C.ar    1  <O>11      -0.0474
  12 C10       7.0131    -6.6892     1.6899  C.ar    1  <O>11       0.0647
  13 C11       6.4572    -6.5194     0.4239  C.ar    1  <O>11       0.2592
  14 O2        7.1727    -7.0919    -0.6460  O.2     1  <O>11      -0.2672
  15 N2        5.3076    -5.8569     0.1871  N.ar    1  <O>11      -0.3103
  16 N3        2.0350    -5.0010     4.4280  N.am    1  <O>11      -0.2341
  17 N4        1.7591    -3.7161     4.8287  N.am    1  <O>11      -0.2304
  18 C12       0.8722    -2.9520     4.1172  C.2     1  <O>11       0.2601
  19 O3        0.3269    -3.4131     3.1268  O.2     1  <O>11      -0.2687
  20 C13       0.5807    -1.5893     4.5435  C.ar    1  <O>11       0.0383
  21 C14      -0.3264    -0.7988     3.8180  C.ar    1  <O>11      -0.0469
  22 C15      -0.5974     0.5134     4.2200  C.ar    1  <O>11      -0.0257
  23 C16       0.0314     1.0474     5.3485  C.ar    1  <O>11       0.1234
  24 F1       -0.2271     2.3336     5.7477  F       1  <O>11      -0.2055
  25 C17       0.9309     0.2580     6.0737  C.ar    1  <O>11      -0.0257
  26 C18       1.2053    -1.0533     5.6819  C.ar    1  <O>11      -0.0469
  27 H1        1.9200    -3.5530     2.0650  H       1  <O>11       0.0363
  28 H2        3.5600    -3.4120     2.7420  H       1  <O>11       0.0363
  29 H3        2.7156    -5.2897     0.4989  H       1  <O>11       0.0348
  30 H4        3.6343    -3.7792     0.2990  H       1  <O>11       0.0348
  31 H5        4.8953    -5.7309    -0.7260  H       1  <O>11       0.1700
  32 H6        1.8440    -5.7829     5.0545  H       1  <O>11       0.1728
  33 H7        2.2149    -3.3305     5.6557  H       1  <O>11       0.1731
  34 H8        6.2280    -5.8036     4.7977  H       1  <O>11       0.0639
  35 H9        8.2821    -6.9811     5.2831  H       1  <O>11       0.0618
  36 H10       9.5568    -7.9926     3.4833  H       1  <O>11       0.0618
  37 H11       8.7536    -7.8103     1.2002  H       1  <O>11       0.0626
  38 H12      -0.7949    -1.1880     2.9849  H       1  <O>11       0.0626
  39 H13      -1.2636     1.0890     3.6818  H       1  <O>11       0.0646
  40 H14       1.3965     0.6495     6.9073  H       1  <O>11       0.0646
  41 H15       1.8659    -1.6283     6.2278  H       1  <O>11       0.0626
@<TRIPOS>BOND
     1     1     2    2
     2     2     3    1
     3     3     4    1
     4     4     5    1
     5     5     6   ar
     6     6     7   ar
     7     7     8   ar
     8     8     9   ar
     9     9    10   ar
    10    10    11   ar
    11    11    12   ar
    12     7    12   ar
    13    12    13   ar
    14    13    14    2
    15    13    15   ar
    16     5    15   ar
    17     2    16   am
    18    16    17    1
    19    17    18   am
    20    18    19    2
    21    18    20    1
    22    20    21   ar
    23    21    22   ar
    24    22    23   ar
    25    23    24    1
    26    23    25   ar
    27    25    26   ar
    28    20    26   ar
    29     3    27    1
    30     3    28    1
    31     4    29    1
    32     4    30    1
    33    15    31    1
    34    16    32    1
    35    17    33    1
    36     8    34    1
    37     9    35    1
    38    10    36    1
    39    11    37    1
    40    21    38    1
    41    22    39    1
    42    25    40    1
    43    26    41    1
@<TRIPOS>MOLECULE
mol83_1_29
 41 43 0 0 0
SMALL
USER_CHARGES
****
VDW energy = -61.64
@<TRIPOS>ATOM
   1 O1        2.8124    -6.3749     2.8314  O.2     1  <O>11      -0.2743
   2 C1        2.5669    -5.2321     3.1878  C.2     1  <O>11       0.2295
   3 C2        2.8470    -4.0880     2.2710  C.3     1  <O>11       0.0322
   4 C3        3.4300    -4.6140     0.9690  C.3     1  <O>11       0.0138
   5 C4        2.4637    -5.5303     0.3324  C.ar    1  <O>11       0.1108
   6 N1        1.2797    -5.7761     0.9249  N.ar    1  <O>11      -0.2337
   7 C5        0.4329    -6.6163     0.3134  C.ar    1  <O>11       0.0781
   8 C6       -0.7960    -6.8867     0.9049  C.ar    1  <O>11      -0.0355
   9 C7       -1.7241    -7.7539     0.3187  C.ar    1  <O>11      -0.0597
  10 C8       -1.4274    -8.3710    -0.8891  C.ar    1  <O>11      -0.0609
  11 C9       -0.2030    -8.1168    -1.5028  C.ar    1  <O>11      -0.0474
  12 C10       0.7316    -7.2382    -0.9010  C.ar    1  <O>11       0.0647
  13 C11       1.9819    -6.9119    -1.4214  C.ar    1  <O>11       0.2592
  14 O2        2.3188    -7.5215    -2.6459  O.2     1  <O>11      -0.2672
  15 N2        2.8502    -6.0695    -0.8273  N.ar    1  <O>11      -0.3103
  16 N3        2.0350    -5.0010     4.4280  N.am    1  <O>11      -0.2341
  17 N4        1.7591    -3.7161     4.8287  N.am    1  <O>11      -0.2304
  18 C12       2.7653    -2.7892     4.8987  C.2     1  <O>11       0.2601
  19 O3        3.9075    -3.1051     4.6049  O.2     1  <O>11      -0.2687
  20 C13       2.4709    -1.4267     5.3239  C.ar    1  <O>11       0.0383
  21 C14       3.4978    -0.4709     5.4000  C.ar    1  <O>11      -0.0469
  22 C15       3.2177     0.8339     5.8196  C.ar    1  <O>11      -0.0257
  23 C16       1.9126     1.1969     6.1647  C.ar    1  <O>11       0.1234
  24 F1        1.6303     2.4732     6.5792  F       1  <O>11      -0.2055
  25 C17       0.8892     0.2458     6.0839  C.ar    1  <O>11      -0.0257
  26 C18       1.1587    -1.0575     5.6634  C.ar    1  <O>11      -0.0469
  27 H1        1.9200    -3.5530     2.0650  H       1  <O>11       0.0363
  28 H2        3.5600    -3.4120     2.7420  H       1  <O>11       0.0363
  29 H3        3.6354    -3.7782     0.3001  H       1  <O>11       0.0348
  30 H4        4.3566    -5.1490     1.1758  H       1  <O>11       0.0348
  31 H5        3.7571    -5.8246    -1.1978  H       1  <O>11       0.1700
  32 H6        1.8440    -5.7829     5.0545  H       1  <O>11       0.1728
  33 H7        0.8050    -3.4521     5.0745  H       1  <O>11       0.1731
  34 H8       -1.0302    -6.4346     1.8026  H       1  <O>11       0.0639
  35 H9       -2.6277    -7.9347     0.7832  H       1  <O>11       0.0618
  36 H10      -2.1071    -9.0115    -1.3279  H       1  <O>11       0.0618
  37 H11       0.0248    -8.5710    -2.4011  H       1  <O>11       0.0626
  38 H12       4.4631    -0.7325     5.1451  H       1  <O>11       0.0626
  39 H13       3.9769     1.5306     5.8746  H       1  <O>11       0.0646
  40 H14      -0.0752     0.5111     6.3378  H       1  <O>11       0.0646
  41 H15       0.3950    -1.7490     5.6019  H       1  <O>11       0.0626
@<TRIPOS>BOND
     1     1     2    2
     2     2     3    1
     3     3     4    1
     4     4     5    1
     5     5     6   ar
     6     6     7   ar
     7     7     8   ar
     8     8     9   ar
     9     9    10   ar
    10    10    11   ar
    11    11    12   ar
    12     7    12   ar
    13    12    13   ar
    14    13    14    2
    15    13    15   ar
    16     5    15   ar
    17     2    16   am
    18    16    17    1
    19    17    18   am
    20    18    19    2
    21    18    20    1
    22    20    21   ar
    23    21    22   ar
    24    22    23   ar
    25    23    24    1
    26    23    25   ar
    27    25    26   ar
    28    20    26   ar
    29     3    27    1
    30     3    28    1
    31     4    29    1
    32     4    30    1
    33    15    31    1
    34    16    32    1
    35    17    33    1
    36     8    34    1
    37     9    35    1
    38    10    36    1
    39    11    37    1
    40    21    38    1
    41    22    39    1
    42    25    40    1
    43    26    41    1
@<TRIPOS>MOLECULE
mol83_1_30
 41 43 0 0 0
SMALL
USER_CHARGES
****
VDW energy = -58.67
@<TRIPOS>ATOM
   1 O1        2.8124    -6.3749     2.8314  O.2     1  <O>11      -0.2743
   2 C1        2.5669    -5.2321     3.1878  C.2     1  <O>11       0.2295
   3 C2        2.8470    -4.0880     2.2710  C.3     1  <O>11       0.0322
   4 C3        3.4300    -4.6140     0.9690  C.3     1  <O>11       0.0138
   5 C4        4.6847    -5.3390     1.2496  C.ar    1  <O>11       0.1108
   6 N1        5.1325    -5.4426     2.5154  N.ar    1  <O>11      -0.2337
   7 C5        6.2774    -6.1076     2.7248  C.ar    1  <O>11       0.0781
   8 C6        6.7610    -6.2285     4.0229  C.ar    1  <O>11      -0.0355
   9 C7        7.9491    -6.9093     4.3090  C.ar    1  <O>11      -0.0597
  10 C8        8.6796    -7.4884     3.2800  C.ar    1  <O>11      -0.0609
  11 C9        8.2168    -7.3820     1.9704  C.ar    1  <O>11      -0.0474
  12 C10       7.0131    -6.6892     1.6899  C.ar    1  <O>11       0.0647
  13 C11       6.4572    -6.5194     0.4239  C.ar    1  <O>11       0.2592
  14 O2        7.1727    -7.0919    -0.6460  O.2     1  <O>11      -0.2672
  15 N2        5.3076    -5.8569     0.1871  N.ar    1  <O>11      -0.3103
  16 N3        2.0350    -5.0010     4.4280  N.am    1  <O>11      -0.2341
  17 N4        1.7591    -3.7161     4.8287  N.am    1  <O>11      -0.2304
  18 C12       2.7653    -2.7892     4.8987  C.2     1  <O>11       0.2601
  19 O3        3.9075    -3.1051     4.6049  O.2     1  <O>11      -0.2687
  20 C13       2.4709    -1.4267     5.3239  C.ar    1  <O>11       0.0383
  21 C14       3.4978    -0.4709     5.4000  C.ar    1  <O>11      -0.0469
  22 C15       3.2177     0.8339     5.8196  C.ar    1  <O>11      -0.0257
  23 C16       1.9126     1.1969     6.1647  C.ar    1  <O>11       0.1234
  24 F1        1.6303     2.4732     6.5792  F       1  <O>11      -0.2055
  25 C17       0.8892     0.2458     6.0839  C.ar    1  <O>11      -0.0257
  26 C18       1.1587    -1.0575     5.6634  C.ar    1  <O>11      -0.0469
  27 H1        1.9200    -3.5530     2.0650  H       1  <O>11       0.0363
  28 H2        3.5600    -3.4120     2.7420  H       1  <O>11       0.0363
  29 H3        2.7156    -5.2897     0.4989  H       1  <O>11       0.0348
  30 H4        3.6343    -3.7792     0.2990  H       1  <O>11       0.0348
  31 H5        4.8953    -5.7309    -0.7260  H       1  <O>11       0.1700
  32 H6        1.8440    -5.7829     5.0545  H       1  <O>11       0.1728
  33 H7        0.8050    -3.4521     5.0745  H       1  <O>11       0.1731
  34 H8        6.2280    -5.8036     4.7977  H       1  <O>11       0.0639
  35 H9        8.2821    -6.9811     5.2831  H       1  <O>11       0.0618
  36 H10       9.5568    -7.9926     3.4833  H       1  <O>11       0.0618
  37 H11       8.7536    -7.8103     1.2002  H       1  <O>11       0.0626
  38 H12       4.4631    -0.7325     5.1451  H       1  <O>11       0.0626
  39 H13       3.9769     1.5306     5.8746  H       1  <O>11       0.0646
  40 H14      -0.0752     0.5111     6.3378  H       1  <O>11       0.0646
  41 H15       0.3950    -1.7490     5.6019  H       1  <O>11       0.0626
@<TRIPOS>BOND
     1     1     2    2
     2     2     3    1
     3     3     4    1
     4     4     5    1
     5     5     6   ar
     6     6     7   ar
     7     7     8   ar
     8     8     9   ar
     9     9    10   ar
    10    10    11   ar
    11    11    12   ar
    12     7    12   ar
    13    12    13   ar
    14    13    14    2
    15    13    15   ar
    16     5    15   ar
    17     2    16   am
    18    16    17    1
    19    17    18   am
    20    18    19    2
    21    18    20    1
    22    20    21   ar
    23    21    22   ar
    24    22    23   ar
    25    23    24    1
    26    23    25   ar
    27    25    26   ar
    28    20    26   ar
    29     3    27    1
    30     3    28    1
    31     4    29    1
    32     4    30    1
    33    15    31    1
    34    16    32    1
    35    17    33    1
    36     8    34    1
    37     9    35    1
    38    10    36    1
    39    11    37    1
    40    21    38    1
    41    22    39    1
    42    25    40    1
    43    26    41    1
