@<TRIPOS>MOLECULE
mol82_1_1
 50 53 0 0 0
SMALL
USER_CHARGES
****
VDW energy = -240.03
@<TRIPOS>ATOM
   1 O1        2.8275    -7.9910    -5.9239  O.2     1  <O>11      -0.2751
   2 C1        3.3598    -9.0478    -5.6186  C.2     1  <O>11       0.2226
   3 C2        2.8830    -9.8060    -4.4250  C.3     1  <O>11       0.0495
   4 C3        2.8824   -11.2510    -4.7281  C.ar    1  <O>11      -0.0386
   5 C4        2.0959   -11.7288    -5.7789  C.ar    1  <O>11      -0.0581
   6 C5        2.0810   -13.0981    -6.0632  C.ar    1  <O>11      -0.0615
   7 C6        2.8508   -13.9830    -5.3045  C.ar    1  <O>11      -0.0617
   8 C7        3.6379   -13.4885    -4.2588  C.ar    1  <O>11      -0.0615
   9 C8        3.6621   -12.1237    -3.9674  C.ar    1  <O>11      -0.0581
  10 N1        4.3940    -9.5360    -6.3720  N.am    1  <O>11      -0.2701
  11 C9        4.8390    -8.8270    -7.4880  C.ar    1  <O>11       0.1252
  12 C10       4.2537    -9.0882    -8.7556  C.ar    1  <O>11      -0.0215
  13 C11       4.6972    -8.3699    -9.8628  C.ar    1  <O>11      -0.0568
  14 C12       5.7236    -7.4341    -9.6815  C.ar    1  <O>11      -0.0399
  15 C13       6.2523    -7.2299    -8.4079  C.ar    1  <O>11       0.0492
  16 C14       7.3290    -6.2467    -8.1740  C.3     1  <O>11       0.0340
  17 C15       6.8620    -5.2204    -7.2062  C.ar    1  <O>11       0.0708
  18 N2        5.5781    -5.2952    -6.6794  N.ar    1  <O>11      -0.1753
  19 N3        5.1445    -4.3636    -5.7936  N.ar    1  <O>11      -0.2427
  20 C16       5.9640    -3.3545    -5.4313  C.ar    1  <O>11       0.2682
  21 O2        5.4601    -2.4309    -4.4967  O.2     1  <O>11      -0.2661
  22 C17       7.2526    -3.1992    -5.9378  C.ar    1  <O>11       0.0232
  23 C18       7.7125    -4.1823    -6.8290  C.ar    1  <O>11      -0.0157
  24 C19       9.0823    -4.1305    -7.4484  C.3     1  <O>11      -0.0255
  25 C20      10.0374    -3.1936    -6.7105  C.3     1  <O>11      -0.0487
  26 C21       9.3569    -1.8625    -6.4332  C.3     1  <O>11      -0.0486
  27 C22       8.1442    -2.0588    -5.5229  C.3     1  <O>11      -0.0222
  28 N4        5.8127    -7.9134    -7.3398  N.ar    1  <O>11      -0.2364
  29 H1        3.5463    -9.6113    -3.5824  H       1  <O>11       0.0407
  30 H2        1.8714    -9.4871    -4.1723  H       1  <O>11       0.0407
  31 H3        4.8380   -10.4180    -6.1170  H       1  <O>11       0.1562
  32 H4        7.5920    -5.7663    -9.1161  H       1  <O>11       0.0392
  33 H5        8.2045    -6.7555    -7.7704  H       1  <O>11       0.0392
  34 H6        4.2123    -4.4315    -5.4115  H       1  <O>11       0.1921
  35 H7        9.5051    -5.1344    -7.4402  H       1  <O>11       0.0314
  36 H8        8.9832    -3.7855    -8.4778  H       1  <O>11       0.0314
  37 H9       10.3329    -3.6508    -5.7669  H       1  <O>11       0.0268
  38 H10      10.9215    -3.0245    -7.3265  H       1  <O>11       0.0268
  39 H11      10.0659    -1.1911    -5.9456  H       1  <O>11       0.0269
  40 H12       9.0300    -1.4219    -7.3755  H       1  <O>11       0.0269
  41 H13       8.5025    -2.2507    -4.5108  H       1  <O>11       0.0315
  42 H14       7.5549    -1.1410    -5.5326  H       1  <O>11       0.0315
  43 H15       1.5294   -11.0754    -6.3420  H       1  <O>11       0.0620
  44 H16       1.4991   -13.4561    -6.8367  H       1  <O>11       0.0618
  45 H17       2.8390   -14.9935    -5.5137  H       1  <O>11       0.0618
  46 H18       4.2072   -14.1403    -3.6965  H       1  <O>11       0.0618
  47 H19       4.2494   -11.7642    -3.1987  H       1  <O>11       0.0620
  48 H20       3.5119    -9.7988    -8.8543  H       1  <O>11       0.0652
  49 H21       4.2800    -8.5231   -10.7941  H       1  <O>11       0.0619
  50 H22       6.0862    -6.8991   -10.4860  H       1  <O>11       0.0636
@<TRIPOS>BOND
     1     1     2    2
     2     2     3    1
     3     3     4    1
     4     4     5   ar
     5     5     6   ar
     6     6     7   ar
     7     7     8   ar
     8     8     9   ar
     9     4     9   ar
    10     2    10   am
    11    10    11    1
    12    11    12   ar
    13    12    13   ar
    14    13    14   ar
    15    14    15   ar
    16    15    16    1
    17    16    17    1
    18    17    18   ar
    19    18    19   ar
    20    19    20   ar
    21    20    21    2
    22    20    22   ar
    23    22    23   ar
    24    17    23   ar
    25    23    24    1
    26    24    25    1
    27    25    26    1
    28    26    27    1
    29    22    27    1
    30    15    28   ar
    31    11    28   ar
    32     3    29    1
    33     3    30    1
    34    10    31    1
    35    16    32    1
    36    16    33    1
    37    19    34    1
    38    24    35    1
    39    24    36    1
    40    25    37    1
    41    25    38    1
    42    26    39    1
    43    26    40    1
    44    27    41    1
    45    27    42    1
    46     5    43    1
    47     6    44    1
    48     7    45    1
    49     8    46    1
    50     9    47    1
    51    12    48    1
    52    13    49    1
    53    14    50    1
@<TRIPOS>MOLECULE
mol82_1_2
 50 53 0 0 0
SMALL
USER_CHARGES
****
VDW energy = -239.11
@<TRIPOS>ATOM
   1 O1        2.8275    -7.9910    -5.9239  O.2     1  <O>11      -0.2751
   2 C1        3.3598    -9.0478    -5.6186  C.2     1  <O>11       0.2226
   3 C2        2.8830    -9.8060    -4.4250  C.3     1  <O>11       0.0495
   4 C3        1.7690    -9.0740    -3.7900  C.ar    1  <O>11      -0.0386
   5 C4        2.0478    -8.1330    -2.7961  C.ar    1  <O>11      -0.0581
   6 C5        0.9963    -7.4453    -2.1818  C.ar    1  <O>11      -0.0615
   7 C6       -0.3247    -7.6940    -2.5618  C.ar    1  <O>11      -0.0617
   8 C7       -0.5876    -8.6354    -3.5629  C.ar    1  <O>11      -0.0615
   9 C8        0.4541    -9.3262    -4.1843  C.ar    1  <O>11      -0.0581
  10 N1        4.3940    -9.5360    -6.3720  N.am    1  <O>11      -0.2701
  11 C9        5.0018   -10.7423    -6.0234  C.ar    1  <O>11       0.1252
  12 C10       4.9878   -11.8200    -6.9486  C.ar    1  <O>11      -0.0215
  13 C11       5.6044   -13.0176    -6.5967  C.ar    1  <O>11      -0.0568
  14 C12       6.1928   -13.1158    -5.3293  C.ar    1  <O>11      -0.0399
  15 C13       6.1684   -12.0172    -4.4716  C.ar    1  <O>11       0.0492
  16 C14       6.7848   -12.0780    -3.1311  C.3     1  <O>11       0.0340
  17 C15       8.2051   -11.6497    -3.2183  C.ar    1  <O>11       0.0708
  18 N2        8.7438   -11.2746    -4.4432  N.ar    1  <O>11      -0.1753
  19 N3       10.0389   -10.8802    -4.5314  N.ar    1  <O>11      -0.2427
  20 C16      10.8083   -10.8624    -3.4228  C.ar    1  <O>11       0.2682
  21 O2       12.1376   -10.4278    -3.5787  O.2     1  <O>11      -0.2661
  22 C17      10.3458   -11.2504    -2.1672  C.ar    1  <O>11       0.0232
  23 C18       8.9961   -11.6265    -2.0707  C.ar    1  <O>11      -0.0157
  24 C19       8.3737   -12.0681    -0.7744  C.3     1  <O>11      -0.0255
  25 C20       9.1932   -11.6649     0.4505  C.3     1  <O>11      -0.0487
  26 C21      10.6588   -12.0097     0.2382  C.3     1  <O>11      -0.0486
  27 C22      11.2278   -11.2290    -0.9469  C.3     1  <O>11      -0.0222
  28 N4        5.5860   -10.8592    -4.8194  N.ar    1  <O>11      -0.2364
  29 H1        2.5400   -10.7930    -4.7350  H       1  <O>11       0.0407
  30 H2        3.7010    -9.9130    -3.7120  H       1  <O>11       0.0407
  31 H3        4.7196    -9.0170    -7.1873  H       1  <O>11       0.1562
  32 H4        6.7347   -13.0995    -2.7551  H       1  <O>11       0.0392
  33 H5        6.2463   -11.4158    -2.4530  H       1  <O>11       0.0392
  34 H6       10.4182   -10.6027    -5.4251  H       1  <O>11       0.1921
  35 H7        7.3845   -11.6193    -0.6937  H       1  <O>11       0.0314
  36 H8        8.2808   -13.1543    -0.7881  H       1  <O>11       0.0314
  37 H9        9.0950   -10.5920     0.6120  H       1  <O>11       0.0268
  38 H10       8.8201   -12.2008     1.3242  H       1  <O>11       0.0268
  39 H11      11.2217   -11.7557     1.1381  H       1  <O>11       0.0269
  40 H12      10.7525   -13.0781     0.0417  H       1  <O>11       0.0269
  41 H13      11.3672   -10.1920    -0.6394  H       1  <O>11       0.0315
  42 H14      12.1926   -11.6628    -1.2129  H       1  <O>11       0.0315
  43 H15       3.0236    -7.9463    -2.5170  H       1  <O>11       0.0620
  44 H16       1.1971    -6.7514    -1.4447  H       1  <O>11       0.0618
  45 H17      -1.1007    -7.1873    -2.1077  H       1  <O>11       0.0618
  46 H18      -1.5627    -8.8212    -3.8451  H       1  <O>11       0.0618
  47 H19       0.2543   -10.0150    -4.9264  H       1  <O>11       0.0620
  48 H20       4.5280   -11.7169    -7.8668  H       1  <O>11       0.0652
  49 H21       5.6274   -13.8134    -7.2533  H       1  <O>11       0.0619
  50 H22       6.6418   -13.9964    -5.0323  H       1  <O>11       0.0636
@<TRIPOS>BOND
     1     1     2    2
     2     2     3    1
     3     3     4    1
     4     4     5   ar
     5     5     6   ar
     6     6     7   ar
     7     7     8   ar
     8     8     9   ar
     9     4     9   ar
    10     2    10   am
    11    10    11    1
    12    11    12   ar
    13    12    13   ar
    14    13    14   ar
    15    14    15   ar
    16    15    16    1
    17    16    17    1
    18    17    18   ar
    19    18    19   ar
    20    19    20   ar
    21    20    21    2
    22    20    22   ar
    23    22    23   ar
    24    17    23   ar
    25    23    24    1
    26    24    25    1
    27    25    26    1
    28    26    27    1
    29    22    27    1
    30    15    28   ar
    31    11    28   ar
    32     3    29    1
    33     3    30    1
    34    10    31    1
    35    16    32    1
    36    16    33    1
    37    19    34    1
    38    24    35    1
    39    24    36    1
    40    25    37    1
    41    25    38    1
    42    26    39    1
    43    26    40    1
    44    27    41    1
    45    27    42    1
    46     5    43    1
    47     6    44    1
    48     7    45    1
    49     8    46    1
    50     9    47    1
    51    12    48    1
    52    13    49    1
    53    14    50    1
@<TRIPOS>MOLECULE
mol82_1_3
 50 53 0 0 0
SMALL
USER_CHARGES
****
VDW energy = -238.03
@<TRIPOS>ATOM
   1 O1        2.8275    -7.9910    -5.9239  O.2     1  <O>11      -0.2751
   2 C1        3.3598    -9.0478    -5.6186  C.2     1  <O>11       0.2226
   3 C2        2.8830    -9.8060    -4.4250  C.3     1  <O>11       0.0495
   4 C3        1.7690    -9.0740    -3.7900  C.ar    1  <O>11      -0.0386
   5 C4        0.6091    -8.8216    -4.5262  C.ar    1  <O>11      -0.0581
   6 C5       -0.4448    -8.1177    -3.9347  C.ar    1  <O>11      -0.0615
   7 C6       -0.3410    -7.6730    -2.6146  C.ar    1  <O>11      -0.0617
   8 C7        0.8249    -7.9385    -1.8882  C.ar    1  <O>11      -0.0615
   9 C8        1.8822    -8.6419    -2.4676  C.ar    1  <O>11      -0.0581
  10 N1        4.3940    -9.5360    -6.3720  N.am    1  <O>11      -0.2701
  11 C9        4.8390    -8.8270    -7.4880  C.ar    1  <O>11       0.1252
  12 C10       5.8674    -7.8598    -7.3317  C.ar    1  <O>11      -0.0215
  13 C11       6.3121    -7.1629    -8.4520  C.ar    1  <O>11      -0.0568
  14 C12       5.7055    -7.4299    -9.6860  C.ar    1  <O>11      -0.0399
  15 C13       4.7006    -8.3928    -9.7654  C.ar    1  <O>11       0.0492
  16 C14       4.0424    -8.7092   -11.0490  C.3     1  <O>11       0.0340
  17 C15       4.7839    -9.8017   -11.7307  C.ar    1  <O>11       0.0708
  18 N2        5.9128   -10.3521   -11.1355  N.ar    1  <O>11      -0.1753
  19 N3        6.5944   -11.3513   -11.7500  N.ar    1  <O>11      -0.2427
  20 C16       6.1765   -11.8045   -12.9505  C.ar    1  <O>11       0.2682
  21 O2        6.9171   -12.8531   -13.5269  O.2     1  <O>11      -0.2661
  22 C17       5.0713   -11.2833   -13.6199  C.ar    1  <O>11       0.0232
  23 C18       4.3469   -10.2721   -12.9679  C.ar    1  <O>11      -0.0157
  24 C19       3.1362    -9.6246   -13.5826  C.3     1  <O>11      -0.0255
  25 C20       2.5404   -10.4384   -14.7303  C.3     1  <O>11      -0.0487
  26 C21       3.6387   -10.8865   -15.6815  C.3     1  <O>11      -0.0486
  27 C22       4.6307   -11.8017   -14.9633  C.3     1  <O>11      -0.0222
  28 N4        4.2841    -9.0735    -8.6864  N.ar    1  <O>11      -0.2364
  29 H1        2.5400   -10.7930    -4.7350  H       1  <O>11       0.0407
  30 H2        3.7010    -9.9130    -3.7120  H       1  <O>11       0.0407
  31 H3        4.8380   -10.4180    -6.1170  H       1  <O>11       0.1562
  32 H4        4.0372    -7.8221   -11.6819  H       1  <O>11       0.0392
  33 H5        3.0165    -9.0271   -10.8628  H       1  <O>11       0.0392
  34 H6        7.4090   -11.7490   -11.3053  H       1  <O>11       0.1921
  35 H7        2.3769    -9.5050   -12.8107  H       1  <O>11       0.0314
  36 H8        3.4247    -8.6450   -13.9645  H       1  <O>11       0.0314
  37 H9        2.0344   -11.3143   -14.3257  H       1  <O>11       0.0268
  38 H10       1.8233    -9.8215   -15.2733  H       1  <O>11       0.0268
  39 H11       3.1916   -11.4281   -16.5170  H       1  <O>11       0.0269
  40 H12       4.1675   -10.0108   -16.0589  H       1  <O>11       0.0269
  41 H13       4.1586   -12.7744   -14.8205  H       1  <O>11       0.0315
  42 H14       5.5133   -11.9145   -15.5942  H       1  <O>11       0.0315
  43 H15       0.5303    -9.1526    -5.5005  H       1  <O>11       0.0620
  44 H16      -1.3025    -7.9262    -4.4757  H       1  <O>11       0.0618
  45 H17      -1.1183    -7.1527    -2.1785  H       1  <O>11       0.0618
  46 H18       0.9041    -7.6106    -0.9129  H       1  <O>11       0.0618
  47 H19       2.7373    -8.8399    -1.9249  H       1  <O>11       0.0620
  48 H20       6.2782    -7.6765    -6.4029  H       1  <O>11       0.0652
  49 H21       7.0701    -6.4668    -8.3752  H       1  <O>11       0.0619
  50 H22       6.0007    -6.9168   -10.5314  H       1  <O>11       0.0636
@<TRIPOS>BOND
     1     1     2    2
     2     2     3    1
     3     3     4    1
     4     4     5   ar
     5     5     6   ar
     6     6     7   ar
     7     7     8   ar
     8     8     9   ar
     9     4     9   ar
    10     2    10   am
    11    10    11    1
    12    11    12   ar
    13    12    13   ar
    14    13    14   ar
    15    14    15   ar
    16    15    16    1
    17    16    17    1
    18    17    18   ar
    19    18    19   ar
    20    19    20   ar
    21    20    21    2
    22    20    22   ar
    23    22    23   ar
    24    17    23   ar
    25    23    24    1
    26    24    25    1
    27    25    26    1
    28    26    27    1
    29    22    27    1
    30    15    28   ar
    31    11    28   ar
    32     3    29    1
    33     3    30    1
    34    10    31    1
    35    16    32    1
    36    16    33    1
    37    19    34    1
    38    24    35    1
    39    24    36    1
    40    25    37    1
    41    25    38    1
    42    26    39    1
    43    26    40    1
    44    27    41    1
    45    27    42    1
    46     5    43    1
    47     6    44    1
    48     7    45    1
    49     8    46    1
    50     9    47    1
    51    12    48    1
    52    13    49    1
    53    14    50    1
@<TRIPOS>MOLECULE
mol82_1_4
 50 53 0 0 0
SMALL
USER_CHARGES
****
VDW energy = -237.60
@<TRIPOS>ATOM
   1 O1        2.8275    -7.9910    -5.9239  O.2     1  <O>11      -0.2751
   2 C1        3.3598    -9.0478    -5.6186  C.2     1  <O>11       0.2226
   3 C2        2.8830    -9.8060    -4.4250  C.3     1  <O>11       0.0495
   4 C3        1.7690    -9.0740    -3.7900  C.ar    1  <O>11      -0.0386
   5 C4        2.0478    -8.1330    -2.7961  C.ar    1  <O>11      -0.0581
   6 C5        0.9963    -7.4453    -2.1818  C.ar    1  <O>11      -0.0615
   7 C6       -0.3247    -7.6940    -2.5618  C.ar    1  <O>11      -0.0617
   8 C7       -0.5876    -8.6354    -3.5629  C.ar    1  <O>11      -0.0615
   9 C8        0.4541    -9.3262    -4.1843  C.ar    1  <O>11      -0.0581
  10 N1        4.3940    -9.5360    -6.3720  N.am    1  <O>11      -0.2701
  11 C9        4.8393    -8.8268    -7.4877  C.ar    1  <O>11       0.1252
  12 C10       6.1863    -8.3784    -7.5336  C.ar    1  <O>11      -0.0215
  13 C11       6.6253    -7.6791    -8.6546  C.ar    1  <O>11      -0.0568
  14 C12       5.7079    -7.4255    -9.6822  C.ar    1  <O>11      -0.0399
  15 C13       4.4003    -7.8954    -9.5696  C.ar    1  <O>11       0.0492
  16 C14       3.4058    -7.6562   -10.6347  C.3     1  <O>11       0.0340
  17 C15       3.4474    -8.7745   -11.6124  C.ar    1  <O>11       0.0708
  18 N2        4.3389    -9.8248   -11.4294  N.ar    1  <O>11      -0.1753
  19 N3        4.3819   -10.8508   -12.3160  N.ar    1  <O>11      -0.2427
  20 C16       3.5593   -10.8435   -13.3858  C.ar    1  <O>11       0.2682
  21 O2        3.6417   -11.9445   -14.2584  O.2     1  <O>11      -0.2661
  22 C17       2.6599    -9.8125   -13.6493  C.ar    1  <O>11       0.0232
  23 C18       2.5926    -8.7675   -12.7135  C.ar    1  <O>11      -0.0157
  24 C19       1.6657    -7.5946   -12.8813  C.3     1  <O>11      -0.0255
  25 C20       0.5461    -7.8562   -13.8875  C.3     1  <O>11      -0.0487
  26 C21       1.1142    -8.4713   -15.1566  C.3     1  <O>11      -0.0486
  27 C22       1.7585    -9.8248   -14.8555  C.3     1  <O>11      -0.0222
  28 N4        3.9839    -8.5819    -8.4942  N.ar    1  <O>11      -0.2364
  29 H1        2.5400   -10.7930    -4.7350  H       1  <O>11       0.0407
  30 H2        3.7010    -9.9130    -3.7120  H       1  <O>11       0.0407
  31 H3        4.8378   -10.4182    -6.1172  H       1  <O>11       0.1562
  32 H4        3.6364    -6.7198   -11.1422  H       1  <O>11       0.0392
  33 H5        2.4102    -7.5942   -10.1953  H       1  <O>11       0.0392
  34 H6        5.0283   -11.6125   -12.1695  H       1  <O>11       0.1921
  35 H7        1.2180    -7.3651   -11.9152  H       1  <O>11       0.0314
  36 H8        2.2489    -6.7399   -13.2247  H       1  <O>11       0.0314
  37 H9       -0.1795    -8.5402   -13.4489  H       1  <O>11       0.0268
  38 H10       0.0563    -6.9129   -14.1326  H       1  <O>11       0.0268
  39 H11       0.3088    -8.6109   -15.8800  H       1  <O>11       0.0269
  40 H12       1.8658    -7.8020   -15.5761  H       1  <O>11       0.0269
  41 H13       0.9642   -10.5527   -14.6860  H       1  <O>11       0.0315
  42 H14       2.3486   -10.1251   -15.7223  H       1  <O>11       0.0315
  43 H15       3.0236    -7.9463    -2.5170  H       1  <O>11       0.0620
  44 H16       1.1971    -6.7514    -1.4447  H       1  <O>11       0.0618
  45 H17      -1.1007    -7.1873    -2.1077  H       1  <O>11       0.0618
  46 H18      -1.5627    -8.8212    -3.8451  H       1  <O>11       0.0618
  47 H19       0.2543   -10.0150    -4.9264  H       1  <O>11       0.0620
  48 H20       6.8291    -8.5679    -6.7487  H       1  <O>11       0.0652
  49 H21       7.6026    -7.3555    -8.7266  H       1  <O>11       0.0619
  50 H22       5.9983    -6.8940   -10.5179  H       1  <O>11       0.0636
@<TRIPOS>BOND
     1     1     2    2
     2     2     3    1
     3     3     4    1
     4     4     5   ar
     5     5     6   ar
     6     6     7   ar
     7     7     8   ar
     8     8     9   ar
     9     4     9   ar
    10     2    10   am
    11    10    11    1
    12    11    12   ar
    13    12    13   ar
    14    13    14   ar
    15    14    15   ar
    16    15    16    1
    17    16    17    1
    18    17    18   ar
    19    18    19   ar
    20    19    20   ar
    21    20    21    2
    22    20    22   ar
    23    22    23   ar
    24    17    23   ar
    25    23    24    1
    26    24    25    1
    27    25    26    1
    28    26    27    1
    29    22    27    1
    30    15    28   ar
    31    11    28   ar
    32     3    29    1
    33     3    30    1
    34    10    31    1
    35    16    32    1
    36    16    33    1
    37    19    34    1
    38    24    35    1
    39    24    36    1
    40    25    37    1
    41    25    38    1
    42    26    39    1
    43    26    40    1
    44    27    41    1
    45    27    42    1
    46     5    43    1
    47     6    44    1
    48     7    45    1
    49     8    46    1
    50     9    47    1
    51    12    48    1
    52    13    49    1
    53    14    50    1
@<TRIPOS>MOLECULE
mol82_1_5
 50 53 0 0 0
SMALL
USER_CHARGES
****
VDW energy = -237.52
@<TRIPOS>ATOM
   1 O1        2.8275    -7.9910    -5.9239  O.2     1  <O>11      -0.2751
   2 C1        3.3598    -9.0478    -5.6186  C.2     1  <O>11       0.2226
   3 C2        2.8830    -9.8060    -4.4250  C.3     1  <O>11       0.0495
   4 C3        1.7690    -9.0740    -3.7900  C.ar    1  <O>11      -0.0386
   5 C4        0.6091    -8.8216    -4.5262  C.ar    1  <O>11      -0.0581
   6 C5       -0.4448    -8.1177    -3.9347  C.ar    1  <O>11      -0.0615
   7 C6       -0.3410    -7.6730    -2.6146  C.ar    1  <O>11      -0.0617
   8 C7        0.8249    -7.9385    -1.8882  C.ar    1  <O>11      -0.0615
   9 C8        1.8822    -8.6419    -2.4676  C.ar    1  <O>11      -0.0581
  10 N1        4.3940    -9.5360    -6.3720  N.am    1  <O>11      -0.2701
  11 C9        4.8390    -8.8270    -7.4880  C.ar    1  <O>11       0.1252
  12 C10       5.8674    -7.8598    -7.3317  C.ar    1  <O>11      -0.0215
  13 C11       6.3121    -7.1629    -8.4520  C.ar    1  <O>11      -0.0568
  14 C12       5.7055    -7.4299    -9.6860  C.ar    1  <O>11      -0.0399
  15 C13       4.7006    -8.3928    -9.7654  C.ar    1  <O>11       0.0492
  16 C14       4.0424    -8.7092   -11.0490  C.3     1  <O>11       0.0340
  17 C15       4.2532   -10.1437   -11.3742  C.ar    1  <O>11       0.0708
  18 N2        4.9817   -10.9524   -10.5101  N.ar    1  <O>11      -0.1753
  19 N3        5.1771   -12.2637   -10.7984  N.ar    1  <O>11      -0.2427
  20 C16       4.6676   -12.7802   -11.9363  C.ar    1  <O>11       0.2682
  21 O2        4.8914   -14.1500   -12.1685  O.2     1  <O>11      -0.2661
  22 C17       3.9512   -12.0253   -12.8626  C.ar    1  <O>11       0.0232
  23 C18       3.7209   -10.6762   -12.5474  C.ar    1  <O>11      -0.0157
  24 C19       2.9638    -9.7531   -13.4626  C.3     1  <O>11      -0.0255
  25 C20       2.1312   -10.4961   -14.5063  C.3     1  <O>11      -0.0487
  26 C21       2.9637   -11.5858   -15.1630  C.3     1  <O>11      -0.0486
  27 C22       3.4001   -12.6245   -14.1295  C.3     1  <O>11      -0.0222
  28 N4        4.2841    -9.0735    -8.6864  N.ar    1  <O>11      -0.2364
  29 H1        2.5400   -10.7930    -4.7350  H       1  <O>11       0.0407
  30 H2        3.7010    -9.9130    -3.7120  H       1  <O>11       0.0407
  31 H3        4.8380   -10.4180    -6.1170  H       1  <O>11       0.1562
  32 H4        4.4696    -8.0901   -11.8375  H       1  <O>11       0.0392
  33 H5        2.9741    -8.5076   -10.9691  H       1  <O>11       0.0392
  34 H6        5.7017   -12.8440   -10.1600  H       1  <O>11       0.1921
  35 H7        2.2970    -9.1373   -12.8603  H       1  <O>11       0.0314
  36 H8        3.6807    -9.1151   -13.9799  H       1  <O>11       0.0314
  37 H9        1.2654   -10.9463   -14.0220  H       1  <O>11       0.0268
  38 H10       1.7971    -9.7901   -15.2676  H       1  <O>11       0.0268
  39 H11       2.3684   -12.0766   -15.9350  H       1  <O>11       0.0269
  40 H12       3.8484   -11.1386   -15.6173  H       1  <O>11       0.0269
  41 H13       2.5357   -13.2384   -13.8739  H       1  <O>11       0.0315
  42 H14       4.1723   -13.2514   -14.5770  H       1  <O>11       0.0315
  43 H15       0.5303    -9.1526    -5.5005  H       1  <O>11       0.0620
  44 H16      -1.3025    -7.9262    -4.4757  H       1  <O>11       0.0618
  45 H17      -1.1183    -7.1527    -2.1785  H       1  <O>11       0.0618
  46 H18       0.9041    -7.6106    -0.9129  H       1  <O>11       0.0618
  47 H19       2.7373    -8.8399    -1.9249  H       1  <O>11       0.0620
  48 H20       6.2782    -7.6765    -6.4029  H       1  <O>11       0.0652
  49 H21       7.0701    -6.4668    -8.3752  H       1  <O>11       0.0619
  50 H22       6.0007    -6.9168   -10.5314  H       1  <O>11       0.0636
@<TRIPOS>BOND
     1     1     2    2
     2     2     3    1
     3     3     4    1
     4     4     5   ar
     5     5     6   ar
     6     6     7   ar
     7     7     8   ar
     8     8     9   ar
     9     4     9   ar
    10     2    10   am
    11    10    11    1
    12    11    12   ar
    13    12    13   ar
    14    13    14   ar
    15    14    15   ar
    16    15    16    1
    17    16    17    1
    18    17    18   ar
    19    18    19   ar
    20    19    20   ar
    21    20    21    2
    22    20    22   ar
    23    22    23   ar
    24    17    23   ar
    25    23    24    1
    26    24    25    1
    27    25    26    1
    28    26    27    1
    29    22    27    1
    30    15    28   ar
    31    11    28   ar
    32     3    29    1
    33     3    30    1
    34    10    31    1
    35    16    32    1
    36    16    33    1
    37    19    34    1
    38    24    35    1
    39    24    36    1
    40    25    37    1
    41    25    38    1
    42    26    39    1
    43    26    40    1
    44    27    41    1
    45    27    42    1
    46     5    43    1
    47     6    44    1
    48     7    45    1
    49     8    46    1
    50     9    47    1
    51    12    48    1
    52    13    49    1
    53    14    50    1
@<TRIPOS>MOLECULE
mol82_1_6
 50 53 0 0 0
SMALL
USER_CHARGES
****
VDW energy = -237.13
@<TRIPOS>ATOM
   1 O1        2.8275    -7.9910    -5.9239  O.2     1  <O>11      -0.2751
   2 C1        3.3598    -9.0478    -5.6186  C.2     1  <O>11       0.2226
   3 C2        2.8830    -9.8060    -4.4250  C.3     1  <O>11       0.0495
   4 C3        1.7690    -9.0740    -3.7900  C.ar    1  <O>11      -0.0386
   5 C4        2.0478    -8.1330    -2.7961  C.ar    1  <O>11      -0.0581
   6 C5        0.9963    -7.4453    -2.1818  C.ar    1  <O>11      -0.0615
   7 C6       -0.3247    -7.6940    -2.5618  C.ar    1  <O>11      -0.0617
   8 C7       -0.5876    -8.6354    -3.5629  C.ar    1  <O>11      -0.0615
   9 C8        0.4541    -9.3262    -4.1843  C.ar    1  <O>11      -0.0581
  10 N1        4.3940    -9.5360    -6.3720  N.am    1  <O>11      -0.2701
  11 C9        4.8390    -8.8270    -7.4880  C.ar    1  <O>11       0.1252
  12 C10       6.1859    -8.3783    -7.5342  C.ar    1  <O>11      -0.0215
  13 C11       6.6246    -7.6793    -8.6555  C.ar    1  <O>11      -0.0568
  14 C12       5.7070    -7.4262    -9.6831  C.ar    1  <O>11      -0.0399
  15 C13       4.3995    -7.8963    -9.5701  C.ar    1  <O>11       0.0492
  16 C14       3.4048    -7.6576   -10.6352  C.3     1  <O>11       0.0340
  17 C15       2.9137    -8.9598   -11.1561  C.ar    1  <O>11       0.0708
  18 N2        3.4045   -10.1486   -10.6295  N.ar    1  <O>11      -0.1753
  19 N3        2.9600   -11.3418   -11.0979  N.ar    1  <O>11      -0.2427
  20 C16       2.0429   -11.3707   -12.0875  C.ar    1  <O>11       0.2682
  21 O2        1.6111   -12.6394   -12.5169  O.2     1  <O>11      -0.2661
  22 C17       1.5264   -10.2217   -12.6825  C.ar    1  <O>11       0.0232
  23 C18       1.9621    -8.9870   -12.1743  C.ar    1  <O>11      -0.0157
  24 C19       1.4831    -7.6734   -12.7293  C.3     1  <O>11      -0.0255
  25 C20       0.2072    -7.8045   -13.5596  C.3     1  <O>11      -0.0487
  26 C21       0.3351    -8.9599   -14.5396  C.3     1  <O>11      -0.0486
  27 C22       0.5094   -10.2818   -13.7914  C.3     1  <O>11      -0.0222
  28 N4        3.9834    -8.5827    -8.4945  N.ar    1  <O>11      -0.2364
  29 H1        2.5400   -10.7930    -4.7350  H       1  <O>11       0.0407
  30 H2        3.7010    -9.9130    -3.7120  H       1  <O>11       0.0407
  31 H3        4.8380   -10.4180    -6.1170  H       1  <O>11       0.1562
  32 H4        3.8682    -7.0930   -11.4438  H       1  <O>11       0.0392
  33 H5        2.5677    -7.0891   -10.2300  H       1  <O>11       0.0392
  34 H6        3.3178   -12.1995   -10.7032  H       1  <O>11       0.1921
  35 H7        1.2892    -6.9958   -11.8988  H       1  <O>11       0.0314
  36 H8        2.2683    -7.2588   -13.3619  H       1  <O>11       0.0314
  37 H9       -0.6371    -7.9866   -12.8957  H       1  <O>11       0.0268
  38 H10       0.0428    -6.8792   -14.1133  H       1  <O>11       0.0268
  39 H11      -0.5659    -9.0117   -15.1535  H       1  <O>11       0.0269
  40 H12       1.2013    -8.7941   -15.1808  H       1  <O>11       0.0269
  41 H13      -0.4532   -10.5628   -13.3626  H       1  <O>11       0.0315
  42 H14       0.8255   -11.0424   -14.5064  H       1  <O>11       0.0315
  43 H15       3.0236    -7.9463    -2.5170  H       1  <O>11       0.0620
  44 H16       1.1971    -6.7514    -1.4447  H       1  <O>11       0.0618
  45 H17      -1.1007    -7.1873    -2.1077  H       1  <O>11       0.0618
  46 H18      -1.5627    -8.8212    -3.8451  H       1  <O>11       0.0618
  47 H19       0.2543   -10.0150    -4.9264  H       1  <O>11       0.0620
  48 H20       6.8288    -8.5674    -6.7494  H       1  <O>11       0.0652
  49 H21       7.6018    -7.3555    -8.7277  H       1  <O>11       0.0619
  50 H22       5.9971    -6.8949   -10.5189  H       1  <O>11       0.0636
@<TRIPOS>BOND
     1     1     2    2
     2     2     3    1
     3     3     4    1
     4     4     5   ar
     5     5     6   ar
     6     6     7   ar
     7     7     8   ar
     8     8     9   ar
     9     4     9   ar
    10     2    10   am
    11    10    11    1
    12    11    12   ar
    13    12    13   ar
    14    13    14   ar
    15    14    15   ar
    16    15    16    1
    17    16    17    1
    18    17    18   ar
    19    18    19   ar
    20    19    20   ar
    21    20    21    2
    22    20    22   ar
    23    22    23   ar
    24    17    23   ar
    25    23    24    1
    26    24    25    1
    27    25    26    1
    28    26    27    1
    29    22    27    1
    30    15    28   ar
    31    11    28   ar
    32     3    29    1
    33     3    30    1
    34    10    31    1
    35    16    32    1
    36    16    33    1
    37    19    34    1
    38    24    35    1
    39    24    36    1
    40    25    37    1
    41    25    38    1
    42    26    39    1
    43    26    40    1
    44    27    41    1
    45    27    42    1
    46     5    43    1
    47     6    44    1
    48     7    45    1
    49     8    46    1
    50     9    47    1
    51    12    48    1
    52    13    49    1
    53    14    50    1
@<TRIPOS>MOLECULE
mol82_1_7
 50 53 0 0 0
SMALL
USER_CHARGES
****
VDW energy = -236.58
@<TRIPOS>ATOM
   1 O1        2.8275    -7.9910    -5.9239  O.2     1  <O>11      -0.2751
   2 C1        3.3598    -9.0478    -5.6186  C.2     1  <O>11       0.2226
   3 C2        2.8830    -9.8060    -4.4250  C.3     1  <O>11       0.0495
   4 C3        1.7690    -9.0740    -3.7900  C.ar    1  <O>11      -0.0386
   5 C4        1.9854    -7.7788    -3.3140  C.ar    1  <O>11      -0.0581
   6 C5        0.9378    -7.0847    -2.7001  C.ar    1  <O>11      -0.0615
   7 C6       -0.3187    -7.6803    -2.5671  C.ar    1  <O>11      -0.0617
   8 C7       -0.5214    -8.9762    -3.0540  C.ar    1  <O>11      -0.0615
   9 C8        0.5162    -9.6776    -3.6702  C.ar    1  <O>11      -0.0581
  10 N1        4.3940    -9.5360    -6.3720  N.am    1  <O>11      -0.2701
  11 C9        4.8390    -8.8270    -7.4880  C.ar    1  <O>11       0.1252
  12 C10       5.8674    -7.8598    -7.3317  C.ar    1  <O>11      -0.0215
  13 C11       6.3121    -7.1629    -8.4520  C.ar    1  <O>11      -0.0568
  14 C12       5.7055    -7.4299    -9.6860  C.ar    1  <O>11      -0.0399
  15 C13       4.7006    -8.3928    -9.7654  C.ar    1  <O>11       0.0492
  16 C14       4.0424    -8.7092   -11.0490  C.3     1  <O>11       0.0340
  17 C15       4.7839    -9.8017   -11.7307  C.ar    1  <O>11       0.0708
  18 N2        5.8200    -9.4977   -12.6057  N.ar    1  <O>11      -0.1753
  19 N3        6.5036   -10.4891   -13.2306  N.ar    1  <O>11      -0.2427
  20 C16       6.1666   -11.7764   -13.0062  C.ar    1  <O>11       0.2682
  21 O2        6.9250   -12.7573   -13.6720  O.2     1  <O>11      -0.2661
  22 C17       5.1230   -12.1561   -12.1648  C.ar    1  <O>11       0.0232
  23 C18       4.4378   -11.1309   -11.4927  C.ar    1  <O>11      -0.0157
  24 C19       3.2914   -11.4062   -10.5585  C.3     1  <O>11      -0.0255
  25 C20       3.2350   -12.8604   -10.0932  C.3     1  <O>11      -0.0487
  26 C21       3.3963   -13.7977   -11.2795  C.3     1  <O>11      -0.0486
  27 C22       4.7620   -13.6003   -11.9379  C.3     1  <O>11      -0.0222
  28 N4        4.2841    -9.0735    -8.6864  N.ar    1  <O>11      -0.2364
  29 H1        2.5400   -10.7930    -4.7350  H       1  <O>11       0.0407
  30 H2        3.7010    -9.9130    -3.7120  H       1  <O>11       0.0407
  31 H3        4.8380   -10.4180    -6.1170  H       1  <O>11       0.1562
  32 H4        4.0372    -7.8221   -11.6819  H       1  <O>11       0.0392
  33 H5        3.0165    -9.0271   -10.8628  H       1  <O>11       0.0392
  34 H6        7.2594   -10.2573   -13.8587  H       1  <O>11       0.1921
  35 H7        3.3948   -10.7653    -9.6838  H       1  <O>11       0.0314
  36 H8        2.3606   -11.1703   -11.0749  H       1  <O>11       0.0314
  37 H9        4.0376   -13.0413    -9.3791  H       1  <O>11       0.0268
  38 H10       2.2726   -13.0472    -9.6150  H       1  <O>11       0.0268
  39 H11       3.3099   -14.8302   -10.9361  H       1  <O>11       0.0269
  40 H12       2.6133   -13.5922   -12.0099  H       1  <O>11       0.0269
  41 H13       5.5206   -14.0494   -11.2957  H       1  <O>11       0.0315
  42 H14       4.7550   -14.1083   -12.9031  H       1  <O>11       0.0315
  43 H15       2.9124    -7.3368    -3.4147  H       1  <O>11       0.0620
  44 H16       1.0937    -6.1287    -2.3440  H       1  <O>11       0.0618
  45 H17      -1.0914    -7.1685    -2.1131  H       1  <O>11       0.0618
  46 H18      -1.4487    -9.4186    -2.9565  H       1  <O>11       0.0618
  47 H19       0.3589   -10.6309    -4.0329  H       1  <O>11       0.0620
  48 H20       6.2782    -7.6765    -6.4029  H       1  <O>11       0.0652
  49 H21       7.0701    -6.4668    -8.3752  H       1  <O>11       0.0619
  50 H22       6.0007    -6.9168   -10.5314  H       1  <O>11       0.0636
@<TRIPOS>BOND
     1     1     2    2
     2     2     3    1
     3     3     4    1
     4     4     5   ar
     5     5     6   ar
     6     6     7   ar
     7     7     8   ar
     8     8     9   ar
     9     4     9   ar
    10     2    10   am
    11    10    11    1
    12    11    12   ar
    13    12    13   ar
    14    13    14   ar
    15    14    15   ar
    16    15    16    1
    17    16    17    1
    18    17    18   ar
    19    18    19   ar
    20    19    20   ar
    21    20    21    2
    22    20    22   ar
    23    22    23   ar
    24    17    23   ar
    25    23    24    1
    26    24    25    1
    27    25    26    1
    28    26    27    1
    29    22    27    1
    30    15    28   ar
    31    11    28   ar
    32     3    29    1
    33     3    30    1
    34    10    31    1
    35    16    32    1
    36    16    33    1
    37    19    34    1
    38    24    35    1
    39    24    36    1
    40    25    37    1
    41    25    38    1
    42    26    39    1
    43    26    40    1
    44    27    41    1
    45    27    42    1
    46     5    43    1
    47     6    44    1
    48     7    45    1
    49     8    46    1
    50     9    47    1
    51    12    48    1
    52    13    49    1
    53    14    50    1
@<TRIPOS>MOLECULE
mol82_1_8
 50 53 0 0 0
SMALL
USER_CHARGES
****
VDW energy = -236.35
@<TRIPOS>ATOM
   1 O1        2.8275    -7.9910    -5.9239  O.2     1  <O>11      -0.2751
   2 C1        3.3598    -9.0478    -5.6186  C.2     1  <O>11       0.2226
   3 C2        2.8830    -9.8060    -4.4250  C.3     1  <O>11       0.0495
   4 C3        1.7690    -9.0740    -3.7900  C.ar    1  <O>11      -0.0386
   5 C4        0.6091    -8.8216    -4.5262  C.ar    1  <O>11      -0.0581
   6 C5       -0.4448    -8.1177    -3.9347  C.ar    1  <O>11      -0.0615
   7 C6       -0.3410    -7.6730    -2.6146  C.ar    1  <O>11      -0.0617
   8 C7        0.8249    -7.9385    -1.8882  C.ar    1  <O>11      -0.0615
   9 C8        1.8822    -8.6419    -2.4676  C.ar    1  <O>11      -0.0581
  10 N1        4.3940    -9.5360    -6.3720  N.am    1  <O>11      -0.2701
  11 C9        5.0018   -10.7423    -6.0234  C.ar    1  <O>11       0.1252
  12 C10       4.4955   -11.9559    -6.5606  C.ar    1  <O>11      -0.0215
  13 C11       5.1134   -13.1547    -6.2149  C.ar    1  <O>11      -0.0568
  14 C12       6.1970   -13.1134    -5.3284  C.ar    1  <O>11      -0.0399
  15 C13       6.6404   -11.8856    -4.8393  C.ar    1  <O>11       0.0492
  16 C14       7.7846   -11.7993    -3.9097  C.3     1  <O>11       0.0340
  17 C15       7.3421   -11.1768    -2.6350  C.ar    1  <O>11       0.0708
  18 N2        6.0192   -10.7814    -2.4771  N.ar    1  <O>11      -0.1753
  19 N3        5.6064   -10.2143    -1.3158  N.ar    1  <O>11      -0.2427
  20 C16       6.4903   -10.0260    -0.3137  C.ar    1  <O>11       0.2682
  21 O2        5.9953    -9.4483     0.8703  O.2     1  <O>11      -0.2661
  22 C17       7.8367   -10.3714    -0.4093  C.ar    1  <O>11       0.0232
  23 C18       8.2558   -10.9888    -1.5991  C.ar    1  <O>11      -0.0157
  24 C19       9.6818   -11.4085    -1.8297  C.3     1  <O>11      -0.0255
  25 C20      10.4953   -11.4969    -0.5394  C.3     1  <O>11      -0.0487
  26 C21      10.2723   -10.2544     0.3080  C.3     1  <O>11      -0.0486
  27 C22       8.8045   -10.1429     0.7215  C.3     1  <O>11      -0.0222
  28 N4        6.0520   -10.7303    -5.1859  N.ar    1  <O>11      -0.2364
  29 H1        2.5400   -10.7930    -4.7350  H       1  <O>11       0.0407
  30 H2        3.7010    -9.9130    -3.7120  H       1  <O>11       0.0407
  31 H3        4.7196    -9.0170    -7.1873  H       1  <O>11       0.1562
  32 H4        8.5707   -11.1923    -4.3580  H       1  <O>11       0.0392
  33 H5        8.1684   -12.8001    -3.7117  H       1  <O>11       0.0392
  34 H6        4.6413    -9.9374    -1.2091  H       1  <O>11       0.1921
  35 H7        9.6825   -12.3868    -2.3086  H       1  <O>11       0.0314
  36 H8       10.1541   -10.6799    -2.4890  H       1  <O>11       0.0314
  37 H9       10.1846   -12.3770     0.0225  H       1  <O>11       0.0268
  38 H10      11.5543   -11.5781    -0.7878  H       1  <O>11       0.0268
  39 H11      10.8933   -10.3139     1.2036  H       1  <O>11       0.0269
  40 H12      10.5505    -9.3712    -0.2677  H       1  <O>11       0.0269
  41 H13       8.6097   -10.8834     1.4981  H       1  <O>11       0.0315
  42 H14       8.6351    -9.1424     1.1216  H       1  <O>11       0.0315
  43 H15       0.5303    -9.1526    -5.5005  H       1  <O>11       0.0620
  44 H16      -1.3025    -7.9262    -4.4757  H       1  <O>11       0.0618
  45 H17      -1.1183    -7.1527    -2.1785  H       1  <O>11       0.0618
  46 H18       0.9041    -7.6106    -0.9129  H       1  <O>11       0.0618
  47 H19       2.7373    -8.8399    -1.9249  H       1  <O>11       0.0620
  48 H20       3.6830   -11.9491    -7.1969  H       1  <O>11       0.0652
  49 H21       4.7811   -14.0516    -6.6023  H       1  <O>11       0.0619
  50 H22       6.6645   -13.9868    -5.0389  H       1  <O>11       0.0636
@<TRIPOS>BOND
     1     1     2    2
     2     2     3    1
     3     3     4    1
     4     4     5   ar
     5     5     6   ar
     6     6     7   ar
     7     7     8   ar
     8     8     9   ar
     9     4     9   ar
    10     2    10   am
    11    10    11    1
    12    11    12   ar
    13    12    13   ar
    14    13    14   ar
    15    14    15   ar
    16    15    16    1
    17    16    17    1
    18    17    18   ar
    19    18    19   ar
    20    19    20   ar
    21    20    21    2
    22    20    22   ar
    23    22    23   ar
    24    17    23   ar
    25    23    24    1
    26    24    25    1
    27    25    26    1
    28    26    27    1
    29    22    27    1
    30    15    28   ar
    31    11    28   ar
    32     3    29    1
    33     3    30    1
    34    10    31    1
    35    16    32    1
    36    16    33    1
    37    19    34    1
    38    24    35    1
    39    24    36    1
    40    25    37    1
    41    25    38    1
    42    26    39    1
    43    26    40    1
    44    27    41    1
    45    27    42    1
    46     5    43    1
    47     6    44    1
    48     7    45    1
    49     8    46    1
    50     9    47    1
    51    12    48    1
    52    13    49    1
    53    14    50    1
@<TRIPOS>MOLECULE
mol82_1_9
 50 53 0 0 0
SMALL
USER_CHARGES
****
VDW energy = -236.11
@<TRIPOS>ATOM
   1 O1        2.8275    -7.9910    -5.9239  O.2     1  <O>11      -0.2751
   2 C1        3.3598    -9.0478    -5.6186  C.2     1  <O>11       0.2226
   3 C2        2.8830    -9.8060    -4.4250  C.3     1  <O>11       0.0495
   4 C3        1.7690    -9.0740    -3.7900  C.ar    1  <O>11      -0.0386
   5 C4        0.6091    -8.8216    -4.5262  C.ar    1  <O>11      -0.0581
   6 C5       -0.4448    -8.1177    -3.9347  C.ar    1  <O>11      -0.0615
   7 C6       -0.3410    -7.6730    -2.6146  C.ar    1  <O>11      -0.0617
   8 C7        0.8249    -7.9385    -1.8882  C.ar    1  <O>11      -0.0615
   9 C8        1.8822    -8.6419    -2.4676  C.ar    1  <O>11      -0.0581
  10 N1        4.3940    -9.5360    -6.3720  N.am    1  <O>11      -0.2701
  11 C9        5.0018   -10.7423    -6.0234  C.ar    1  <O>11       0.1252
  12 C10       4.4955   -11.9559    -6.5606  C.ar    1  <O>11      -0.0215
  13 C11       5.1134   -13.1547    -6.2149  C.ar    1  <O>11      -0.0568
  14 C12       6.1970   -13.1134    -5.3284  C.ar    1  <O>11      -0.0399
  15 C13       6.6404   -11.8856    -4.8393  C.ar    1  <O>11       0.0492
  16 C14       7.7846   -11.7993    -3.9097  C.3     1  <O>11       0.0340
  17 C15       8.8571   -10.9704    -4.5187  C.ar    1  <O>11       0.0708
  18 N2        8.6772   -10.4202    -5.7822  N.ar    1  <O>11      -0.1753
  19 N3        9.6504    -9.6605    -6.3446  N.ar    1  <O>11      -0.2427
  20 C16      10.8023    -9.4477    -5.6745  C.ar    1  <O>11       0.2682
  21 O2       11.7645    -8.6376    -6.3057  O.2     1  <O>11      -0.2661
  22 C17      11.0645    -9.9887    -4.4177  C.ar    1  <O>11       0.0232
  23 C18      10.0436   -10.7473    -3.8220  C.ar    1  <O>11      -0.0157
  24 C19      10.2004   -11.3875    -2.4698  C.3     1  <O>11      -0.0255
  25 C20      11.3505   -10.7950    -1.6572  C.3     1  <O>11      -0.0487
  26 C21      12.6001   -10.6881    -2.5168  C.3     1  <O>11      -0.0486
  27 C22      12.3622    -9.7426    -3.6945  C.3     1  <O>11      -0.0222
  28 N4        6.0520   -10.7303    -5.1859  N.ar    1  <O>11      -0.2364
  29 H1        2.5400   -10.7930    -4.7350  H       1  <O>11       0.0407
  30 H2        3.7010    -9.9130    -3.7120  H       1  <O>11       0.0407
  31 H3        4.7196    -9.0170    -7.1873  H       1  <O>11       0.1562
  32 H4        8.1663   -12.8004    -3.7108  H       1  <O>11       0.0392
  33 H5        7.4595   -11.3433    -2.9744  H       1  <O>11       0.0392
  34 H6        9.5064    -9.2594    -7.2600  H       1  <O>11       0.1921
  35 H7        9.2746   -11.2515    -1.9120  H       1  <O>11       0.0314
  36 H8       10.3872   -12.4523    -2.6113  H       1  <O>11       0.0314
  37 H9       11.0691    -9.8031    -1.3052  H       1  <O>11       0.0268
  38 H10      11.5557   -11.4406    -0.8023  H       1  <O>11       0.0268
  39 H11      13.4221   -10.3046    -1.9098  H       1  <O>11       0.0269
  40 H12      12.8610   -11.6760    -2.8974  H       1  <O>11       0.0269
  41 H13      12.3591    -8.7191    -3.3176  H       1  <O>11       0.0315
  42 H14      13.1803    -9.8662    -4.4053  H       1  <O>11       0.0315
  43 H15       0.5303    -9.1526    -5.5005  H       1  <O>11       0.0620
  44 H16      -1.3025    -7.9262    -4.4757  H       1  <O>11       0.0618
  45 H17      -1.1183    -7.1527    -2.1785  H       1  <O>11       0.0618
  46 H18       0.9041    -7.6106    -0.9129  H       1  <O>11       0.0618
  47 H19       2.7373    -8.8399    -1.9249  H       1  <O>11       0.0620
  48 H20       3.6830   -11.9491    -7.1969  H       1  <O>11       0.0652
  49 H21       4.7811   -14.0516    -6.6023  H       1  <O>11       0.0619
  50 H22       6.6645   -13.9868    -5.0389  H       1  <O>11       0.0636
@<TRIPOS>BOND
     1     1     2    2
     2     2     3    1
     3     3     4    1
     4     4     5   ar
     5     5     6   ar
     6     6     7   ar
     7     7     8   ar
     8     8     9   ar
     9     4     9   ar
    10     2    10   am
    11    10    11    1
    12    11    12   ar
    13    12    13   ar
    14    13    14   ar
    15    14    15   ar
    16    15    16    1
    17    16    17    1
    18    17    18   ar
    19    18    19   ar
    20    19    20   ar
    21    20    21    2
    22    20    22   ar
    23    22    23   ar
    24    17    23   ar
    25    23    24    1
    26    24    25    1
    27    25    26    1
    28    26    27    1
    29    22    27    1
    30    15    28   ar
    31    11    28   ar
    32     3    29    1
    33     3    30    1
    34    10    31    1
    35    16    32    1
    36    16    33    1
    37    19    34    1
    38    24    35    1
    39    24    36    1
    40    25    37    1
    41    25    38    1
    42    26    39    1
    43    26    40    1
    44    27    41    1
    45    27    42    1
    46     5    43    1
    47     6    44    1
    48     7    45    1
    49     8    46    1
    50     9    47    1
    51    12    48    1
    52    13    49    1
    53    14    50    1
@<TRIPOS>MOLECULE
mol82_1_10
 50 53 0 0 0
SMALL
USER_CHARGES
****
VDW energy = -236.06
@<TRIPOS>ATOM
   1 O1        2.8275    -7.9910    -5.9239  O.2     1  <O>11      -0.2751
   2 C1        3.3598    -9.0478    -5.6186  C.2     1  <O>11       0.2226
   3 C2        2.8830    -9.8060    -4.4250  C.3     1  <O>11       0.0495
   4 C3        2.8824   -11.2510    -4.7281  C.ar    1  <O>11      -0.0386
   5 C4        2.0959   -11.7288    -5.7789  C.ar    1  <O>11      -0.0581
   6 C5        2.0810   -13.0981    -6.0632  C.ar    1  <O>11      -0.0615
   7 C6        2.8508   -13.9830    -5.3045  C.ar    1  <O>11      -0.0617
   8 C7        3.6379   -13.4885    -4.2588  C.ar    1  <O>11      -0.0615
   9 C8        3.6621   -12.1237    -3.9674  C.ar    1  <O>11      -0.0581
  10 N1        4.3940    -9.5360    -6.3720  N.am    1  <O>11      -0.2701
  11 C9        4.8390    -8.8270    -7.4880  C.ar    1  <O>11       0.1252
  12 C10       4.2537    -9.0882    -8.7556  C.ar    1  <O>11      -0.0215
  13 C11       4.6972    -8.3699    -9.8628  C.ar    1  <O>11      -0.0568
  14 C12       5.7236    -7.4341    -9.6815  C.ar    1  <O>11      -0.0399
  15 C13       6.2523    -7.2299    -8.4079  C.ar    1  <O>11       0.0492
  16 C14       7.3290    -6.2467    -8.1740  C.3     1  <O>11       0.0340
  17 C15       6.8620    -5.2204    -7.2062  C.ar    1  <O>11       0.0708
  18 N2        6.2312    -4.0698    -7.6638  N.ar    1  <O>11      -0.1753
  19 N3        5.7997    -3.1287    -6.7868  N.ar    1  <O>11      -0.2427
  20 C16       5.9945    -3.3099    -5.4638  C.ar    1  <O>11       0.2682
  21 O2        5.5091    -2.3051    -4.6064  O.2     1  <O>11      -0.2661
  22 C17       6.6427    -4.4235    -4.9338  C.ar    1  <O>11       0.0232
  23 C18       7.0591    -5.4127    -5.8396  C.ar    1  <O>11      -0.0157
  24 C19       7.7715    -6.6615    -5.3972  C.3     1  <O>11      -0.0255
  25 C20       7.6121    -6.9439    -3.9041  C.3     1  <O>11      -0.0487
  26 C21       7.8747    -5.6804    -3.1000  C.3     1  <O>11      -0.0486
  27 C22       6.8546    -4.5976    -3.4531  C.3     1  <O>11      -0.0222
  28 N4        5.8127    -7.9134    -7.3398  N.ar    1  <O>11      -0.2364
  29 H1        3.5463    -9.6113    -3.5824  H       1  <O>11       0.0407
  30 H2        1.8714    -9.4871    -4.1723  H       1  <O>11       0.0407
  31 H3        4.8380   -10.4180    -6.1170  H       1  <O>11       0.1562
  32 H4        7.5920    -5.7663    -9.1161  H       1  <O>11       0.0392
  33 H5        8.2045    -6.7555    -7.7704  H       1  <O>11       0.0392
  34 H6        5.3361    -2.2999    -7.1296  H       1  <O>11       0.1921
  35 H7        7.3700    -7.5064    -5.9553  H       1  <O>11       0.0314
  36 H8        8.8333    -6.5503    -5.6184  H       1  <O>11       0.0314
  37 H9        6.5979    -7.2907    -3.7096  H       1  <O>11       0.0268
  38 H10       8.3244    -7.7145    -3.6066  H       1  <O>11       0.0268
  39 H11       7.7997    -5.9098    -2.0355  H       1  <O>11       0.0269
  40 H12       8.8774    -5.3142    -3.3219  H       1  <O>11       0.0269
  41 H13       5.9005    -4.8630    -2.9963  H       1  <O>11       0.0315
  42 H14       7.2037    -3.6494    -3.0423  H       1  <O>11       0.0315
  43 H15       1.5294   -11.0754    -6.3420  H       1  <O>11       0.0620
  44 H16       1.4991   -13.4561    -6.8367  H       1  <O>11       0.0618
  45 H17       2.8390   -14.9935    -5.5137  H       1  <O>11       0.0618
  46 H18       4.2072   -14.1403    -3.6965  H       1  <O>11       0.0618
  47 H19       4.2494   -11.7642    -3.1987  H       1  <O>11       0.0620
  48 H20       3.5119    -9.7988    -8.8543  H       1  <O>11       0.0652
  49 H21       4.2800    -8.5231   -10.7941  H       1  <O>11       0.0619
  50 H22       6.0862    -6.8991   -10.4860  H       1  <O>11       0.0636
@<TRIPOS>BOND
     1     1     2    2
     2     2     3    1
     3     3     4    1
     4     4     5   ar
     5     5     6   ar
     6     6     7   ar
     7     7     8   ar
     8     8     9   ar
     9     4     9   ar
    10     2    10   am
    11    10    11    1
    12    11    12   ar
    13    12    13   ar
    14    13    14   ar
    15    14    15   ar
    16    15    16    1
    17    16    17    1
    18    17    18   ar
    19    18    19   ar
    20    19    20   ar
    21    20    21    2
    22    20    22   ar
    23    22    23   ar
    24    17    23   ar
    25    23    24    1
    26    24    25    1
    27    25    26    1
    28    26    27    1
    29    22    27    1
    30    15    28   ar
    31    11    28   ar
    32     3    29    1
    33     3    30    1
    34    10    31    1
    35    16    32    1
    36    16    33    1
    37    19    34    1
    38    24    35    1
    39    24    36    1
    40    25    37    1
    41    25    38    1
    42    26    39    1
    43    26    40    1
    44    27    41    1
    45    27    42    1
    46     5    43    1
    47     6    44    1
    48     7    45    1
    49     8    46    1
    50     9    47    1
    51    12    48    1
    52    13    49    1
    53    14    50    1
@<TRIPOS>MOLECULE
mol82_1_11
 50 53 0 0 0
SMALL
USER_CHARGES
****
VDW energy = -236.02
@<TRIPOS>ATOM
   1 O1        2.8275    -7.9910    -5.9239  O.2     1  <O>11      -0.2751
   2 C1        3.3598    -9.0478    -5.6186  C.2     1  <O>11       0.2226
   3 C2        2.8830    -9.8060    -4.4250  C.3     1  <O>11       0.0495
   4 C3        1.7690    -9.0740    -3.7900  C.ar    1  <O>11      -0.0386
   5 C4        1.9854    -7.7788    -3.3140  C.ar    1  <O>11      -0.0581
   6 C5        0.9378    -7.0847    -2.7001  C.ar    1  <O>11      -0.0615
   7 C6       -0.3187    -7.6803    -2.5671  C.ar    1  <O>11      -0.0617
   8 C7       -0.5214    -8.9762    -3.0540  C.ar    1  <O>11      -0.0615
   9 C8        0.5162    -9.6776    -3.6702  C.ar    1  <O>11      -0.0581
  10 N1        4.3940    -9.5360    -6.3720  N.am    1  <O>11      -0.2701
  11 C9        5.0018   -10.7423    -6.0234  C.ar    1  <O>11       0.1252
  12 C10       4.9878   -11.8200    -6.9486  C.ar    1  <O>11      -0.0215
  13 C11       5.6044   -13.0176    -6.5967  C.ar    1  <O>11      -0.0568
  14 C12       6.1928   -13.1158    -5.3293  C.ar    1  <O>11      -0.0399
  15 C13       6.1684   -12.0172    -4.4716  C.ar    1  <O>11       0.0492
  16 C14       6.7848   -12.0780    -3.1311  C.3     1  <O>11       0.0340
  17 C15       8.2051   -11.6497    -3.2183  C.ar    1  <O>11       0.0708
  18 N2        8.7438   -11.2746    -4.4432  N.ar    1  <O>11      -0.1753
  19 N3       10.0389   -10.8802    -4.5314  N.ar    1  <O>11      -0.2427
  20 C16      10.8083   -10.8624    -3.4228  C.ar    1  <O>11       0.2682
  21 O2       12.1376   -10.4278    -3.5787  O.2     1  <O>11      -0.2661
  22 C17      10.3458   -11.2504    -2.1672  C.ar    1  <O>11       0.0232
  23 C18       8.9961   -11.6265    -2.0707  C.ar    1  <O>11      -0.0157
  24 C19       8.3737   -12.0681    -0.7744  C.3     1  <O>11      -0.0255
  25 C20       9.1932   -11.6649     0.4505  C.3     1  <O>11      -0.0487
  26 C21      10.6588   -12.0097     0.2382  C.3     1  <O>11      -0.0486
  27 C22      11.2278   -11.2290    -0.9469  C.3     1  <O>11      -0.0222
  28 N4        5.5860   -10.8592    -4.8194  N.ar    1  <O>11      -0.2364
  29 H1        2.5400   -10.7930    -4.7350  H       1  <O>11       0.0407
  30 H2        3.7010    -9.9130    -3.7120  H       1  <O>11       0.0407
  31 H3        4.7196    -9.0170    -7.1873  H       1  <O>11       0.1562
  32 H4        6.7347   -13.0995    -2.7551  H       1  <O>11       0.0392
  33 H5        6.2463   -11.4158    -2.4530  H       1  <O>11       0.0392
  34 H6       10.4182   -10.6027    -5.4251  H       1  <O>11       0.1921
  35 H7        7.3845   -11.6193    -0.6937  H       1  <O>11       0.0314
  36 H8        8.2808   -13.1543    -0.7881  H       1  <O>11       0.0314
  37 H9        9.0950   -10.5920     0.6120  H       1  <O>11       0.0268
  38 H10       8.8201   -12.2008     1.3242  H       1  <O>11       0.0268
  39 H11      11.2217   -11.7557     1.1381  H       1  <O>11       0.0269
  40 H12      10.7525   -13.0781     0.0417  H       1  <O>11       0.0269
  41 H13      11.3672   -10.1920    -0.6394  H       1  <O>11       0.0315
  42 H14      12.1926   -11.6628    -1.2129  H       1  <O>11       0.0315
  43 H15       2.9124    -7.3368    -3.4147  H       1  <O>11       0.0620
  44 H16       1.0937    -6.1287    -2.3440  H       1  <O>11       0.0618
  45 H17      -1.0914    -7.1685    -2.1131  H       1  <O>11       0.0618
  46 H18      -1.4487    -9.4186    -2.9565  H       1  <O>11       0.0618
  47 H19       0.3589   -10.6309    -4.0329  H       1  <O>11       0.0620
  48 H20       4.5280   -11.7169    -7.8668  H       1  <O>11       0.0652
  49 H21       5.6274   -13.8134    -7.2533  H       1  <O>11       0.0619
  50 H22       6.6418   -13.9964    -5.0323  H       1  <O>11       0.0636
@<TRIPOS>BOND
     1     1     2    2
     2     2     3    1
     3     3     4    1
     4     4     5   ar
     5     5     6   ar
     6     6     7   ar
     7     7     8   ar
     8     8     9   ar
     9     4     9   ar
    10     2    10   am
    11    10    11    1
    12    11    12   ar
    13    12    13   ar
    14    13    14   ar
    15    14    15   ar
    16    15    16    1
    17    16    17    1
    18    17    18   ar
    19    18    19   ar
    20    19    20   ar
    21    20    21    2
    22    20    22   ar
    23    22    23   ar
    24    17    23   ar
    25    23    24    1
    26    24    25    1
    27    25    26    1
    28    26    27    1
    29    22    27    1
    30    15    28   ar
    31    11    28   ar
    32     3    29    1
    33     3    30    1
    34    10    31    1
    35    16    32    1
    36    16    33    1
    37    19    34    1
    38    24    35    1
    39    24    36    1
    40    25    37    1
    41    25    38    1
    42    26    39    1
    43    26    40    1
    44    27    41    1
    45    27    42    1
    46     5    43    1
    47     6    44    1
    48     7    45    1
    49     8    46    1
    50     9    47    1
    51    12    48    1
    52    13    49    1
    53    14    50    1
@<TRIPOS>MOLECULE
mol82_1_12
 50 53 0 0 0
SMALL
USER_CHARGES
****
VDW energy = -235.60
@<TRIPOS>ATOM
   1 O1        2.8275    -7.9910    -5.9239  O.2     1  <O>11      -0.2751
   2 C1        3.3598    -9.0478    -5.6186  C.2     1  <O>11       0.2226
   3 C2        2.8830    -9.8060    -4.4250  C.3     1  <O>11       0.0495
   4 C3        1.7690    -9.0740    -3.7900  C.ar    1  <O>11      -0.0386
   5 C4        1.9854    -7.7788    -3.3140  C.ar    1  <O>11      -0.0581
   6 C5        0.9378    -7.0847    -2.7001  C.ar    1  <O>11      -0.0615
   7 C6       -0.3187    -7.6803    -2.5671  C.ar    1  <O>11      -0.0617
   8 C7       -0.5214    -8.9762    -3.0540  C.ar    1  <O>11      -0.0615
   9 C8        0.5162    -9.6776    -3.6702  C.ar    1  <O>11      -0.0581
  10 N1        4.3940    -9.5360    -6.3720  N.am    1  <O>11      -0.2701
  11 C9        4.8390    -8.8270    -7.4880  C.ar    1  <O>11       0.1252
  12 C10       5.8674    -7.8598    -7.3317  C.ar    1  <O>11      -0.0215
  13 C11       6.3121    -7.1629    -8.4520  C.ar    1  <O>11      -0.0568
  14 C12       5.7055    -7.4299    -9.6860  C.ar    1  <O>11      -0.0399
  15 C13       4.7006    -8.3928    -9.7654  C.ar    1  <O>11       0.0492
  16 C14       4.0424    -8.7092   -11.0490  C.3     1  <O>11       0.0340
  17 C15       4.2532   -10.1437   -11.3742  C.ar    1  <O>11       0.0708
  18 N2        5.3623   -10.5324   -12.1160  N.ar    1  <O>11      -0.1753
  19 N3        5.5635   -11.8403   -12.4155  N.ar    1  <O>11      -0.2427
  20 C16       4.6744   -12.7653   -11.9972  C.ar    1  <O>11       0.2682
  21 O2        4.9493   -14.1056   -12.3265  O.2     1  <O>11      -0.2661
  22 C17       3.5265   -12.4478   -11.2742  C.ar    1  <O>11       0.0232
  23 C18       3.3365   -11.0980   -10.9360  C.ar    1  <O>11      -0.0157
  24 C19       2.1383   -10.6231   -10.1602  C.3     1  <O>11      -0.0255
  25 C20       1.4117   -11.7524    -9.4314  C.3     1  <O>11      -0.0487
  26 C21       1.2019   -12.9319   -10.3676  C.3     1  <O>11      -0.0486
  27 C22       2.5456   -13.4989   -10.8263  C.3     1  <O>11      -0.0222
  28 N4        4.2841    -9.0735    -8.6864  N.ar    1  <O>11      -0.2364
  29 H1        2.5400   -10.7930    -4.7350  H       1  <O>11       0.0407
  30 H2        3.7010    -9.9130    -3.7120  H       1  <O>11       0.0407
  31 H3        4.8380   -10.4180    -6.1170  H       1  <O>11       0.1562
  32 H4        4.4696    -8.0901   -11.8375  H       1  <O>11       0.0392
  33 H5        2.9741    -8.5076   -10.9691  H       1  <O>11       0.0392
  34 H6        6.3765   -12.1126   -12.9488  H       1  <O>11       0.1921
  35 H7        2.4691    -9.8910    -9.4246  H       1  <O>11       0.0314
  36 H8        1.4416   -10.1527   -10.8544  H       1  <O>11       0.0314
  37 H9        2.0078   -12.0717    -8.5772  H       1  <O>11       0.0268
  38 H10       0.4427   -11.3908    -9.0849  H       1  <O>11       0.0268
  39 H11       0.6439   -13.7108    -9.8449  H       1  <O>11       0.0269
  40 H12       0.6352   -12.6033   -11.2393  H       1  <O>11       0.0269
  41 H13       2.9864   -14.0514    -9.9957  H       1  <O>11       0.0315
  42 H14       2.3654   -14.1782   -11.6605  H       1  <O>11       0.0315
  43 H15       2.9124    -7.3368    -3.4147  H       1  <O>11       0.0620
  44 H16       1.0937    -6.1287    -2.3440  H       1  <O>11       0.0618
  45 H17      -1.0914    -7.1685    -2.1131  H       1  <O>11       0.0618
  46 H18      -1.4487    -9.4186    -2.9565  H       1  <O>11       0.0618
  47 H19       0.3589   -10.6309    -4.0329  H       1  <O>11       0.0620
  48 H20       6.2782    -7.6765    -6.4029  H       1  <O>11       0.0652
  49 H21       7.0701    -6.4668    -8.3752  H       1  <O>11       0.0619
  50 H22       6.0007    -6.9168   -10.5314  H       1  <O>11       0.0636
@<TRIPOS>BOND
     1     1     2    2
     2     2     3    1
     3     3     4    1
     4     4     5   ar
     5     5     6   ar
     6     6     7   ar
     7     7     8   ar
     8     8     9   ar
     9     4     9   ar
    10     2    10   am
    11    10    11    1
    12    11    12   ar
    13    12    13   ar
    14    13    14   ar
    15    14    15   ar
    16    15    16    1
    17    16    17    1
    18    17    18   ar
    19    18    19   ar
    20    19    20   ar
    21    20    21    2
    22    20    22   ar
    23    22    23   ar
    24    17    23   ar
    25    23    24    1
    26    24    25    1
    27    25    26    1
    28    26    27    1
    29    22    27    1
    30    15    28   ar
    31    11    28   ar
    32     3    29    1
    33     3    30    1
    34    10    31    1
    35    16    32    1
    36    16    33    1
    37    19    34    1
    38    24    35    1
    39    24    36    1
    40    25    37    1
    41    25    38    1
    42    26    39    1
    43    26    40    1
    44    27    41    1
    45    27    42    1
    46     5    43    1
    47     6    44    1
    48     7    45    1
    49     8    46    1
    50     9    47    1
    51    12    48    1
    52    13    49    1
    53    14    50    1
@<TRIPOS>MOLECULE
mol82_1_13
 50 53 0 0 0
SMALL
USER_CHARGES
****
VDW energy = -234.57
@<TRIPOS>ATOM
   1 O1        2.8275    -7.9910    -5.9239  O.2     1  <O>11      -0.2751
   2 C1        3.3598    -9.0478    -5.6186  C.2     1  <O>11       0.2226
   3 C2        2.8830    -9.8060    -4.4250  C.3     1  <O>11       0.0495
   4 C3        1.7690    -9.0740    -3.7900  C.ar    1  <O>11      -0.0386
   5 C4        1.9854    -7.7788    -3.3140  C.ar    1  <O>11      -0.0581
   6 C5        0.9378    -7.0847    -2.7001  C.ar    1  <O>11      -0.0615
   7 C6       -0.3187    -7.6803    -2.5671  C.ar    1  <O>11      -0.0617
   8 C7       -0.5214    -8.9762    -3.0540  C.ar    1  <O>11      -0.0615
   9 C8        0.5162    -9.6776    -3.6702  C.ar    1  <O>11      -0.0581
  10 N1        4.3940    -9.5360    -6.3720  N.am    1  <O>11      -0.2701
  11 C9        4.8390    -8.8270    -7.4880  C.ar    1  <O>11       0.1252
  12 C10       6.1859    -8.3783    -7.5342  C.ar    1  <O>11      -0.0215
  13 C11       6.6246    -7.6793    -8.6555  C.ar    1  <O>11      -0.0568
  14 C12       5.7070    -7.4262    -9.6831  C.ar    1  <O>11      -0.0399
  15 C13       4.3995    -7.8963    -9.5701  C.ar    1  <O>11       0.0492
  16 C14       3.4048    -7.6576   -10.6352  C.3     1  <O>11       0.0340
  17 C15       3.4465    -8.7762   -11.6125  C.ar    1  <O>11       0.0708
  18 N2        4.3382    -9.8263   -11.4293  N.ar    1  <O>11      -0.1753
  19 N3        4.3813   -10.8526   -12.3156  N.ar    1  <O>11      -0.2427
  20 C16       3.5586   -10.8458   -13.3853  C.ar    1  <O>11       0.2682
  21 O2        3.6411   -11.9470   -14.2576  O.2     1  <O>11      -0.2661
  22 C17       2.6590    -9.8151   -13.6490  C.ar    1  <O>11       0.0232
  23 C18       2.5915    -8.7698   -12.7135  C.ar    1  <O>11      -0.0157
  24 C19       1.6644    -7.5972   -12.8815  C.3     1  <O>11      -0.0255
  25 C20       0.5447    -7.8593   -13.8875  C.3     1  <O>11      -0.0487
  26 C21       1.1127    -8.4747   -15.1565  C.3     1  <O>11      -0.0486
  27 C22       1.7573    -9.8279   -14.8550  C.3     1  <O>11      -0.0222
  28 N4        3.9834    -8.5827    -8.4945  N.ar    1  <O>11      -0.2364
  29 H1        2.5400   -10.7930    -4.7350  H       1  <O>11       0.0407
  30 H2        3.7010    -9.9130    -3.7120  H       1  <O>11       0.0407
  31 H3        4.8380   -10.4180    -6.1170  H       1  <O>11       0.1562
  32 H4        3.6351    -6.7214   -11.1429  H       1  <O>11       0.0392
  33 H5        2.4092    -7.5957   -10.1956  H       1  <O>11       0.0392
  34 H6        5.0279   -11.6140   -12.1690  H       1  <O>11       0.1921
  35 H7        1.2167    -7.3675   -11.9154  H       1  <O>11       0.0314
  36 H8        2.2473    -6.7424   -13.2253  H       1  <O>11       0.0314
  37 H9       -0.1807    -8.5433   -13.4485  H       1  <O>11       0.0268
  38 H10       0.0546    -6.9162   -14.1327  H       1  <O>11       0.0268
  39 H11       0.3073    -8.6146   -15.8797  H       1  <O>11       0.0269
  40 H12       1.8642    -7.8053   -15.5762  H       1  <O>11       0.0269
  41 H13       0.9633   -10.5559   -14.6852  H       1  <O>11       0.0315
  42 H14       2.3474   -10.1283   -15.7218  H       1  <O>11       0.0315
  43 H15       2.9124    -7.3368    -3.4147  H       1  <O>11       0.0620
  44 H16       1.0937    -6.1287    -2.3440  H       1  <O>11       0.0618
  45 H17      -1.0914    -7.1685    -2.1131  H       1  <O>11       0.0618
  46 H18      -1.4487    -9.4186    -2.9565  H       1  <O>11       0.0618
  47 H19       0.3589   -10.6309    -4.0329  H       1  <O>11       0.0620
  48 H20       6.8288    -8.5674    -6.7494  H       1  <O>11       0.0652
  49 H21       7.6018    -7.3555    -8.7277  H       1  <O>11       0.0619
  50 H22       5.9971    -6.8949   -10.5189  H       1  <O>11       0.0636
@<TRIPOS>BOND
     1     1     2    2
     2     2     3    1
     3     3     4    1
     4     4     5   ar
     5     5     6   ar
     6     6     7   ar
     7     7     8   ar
     8     8     9   ar
     9     4     9   ar
    10     2    10   am
    11    10    11    1
    12    11    12   ar
    13    12    13   ar
    14    13    14   ar
    15    14    15   ar
    16    15    16    1
    17    16    17    1
    18    17    18   ar
    19    18    19   ar
    20    19    20   ar
    21    20    21    2
    22    20    22   ar
    23    22    23   ar
    24    17    23   ar
    25    23    24    1
    26    24    25    1
    27    25    26    1
    28    26    27    1
    29    22    27    1
    30    15    28   ar
    31    11    28   ar
    32     3    29    1
    33     3    30    1
    34    10    31    1
    35    16    32    1
    36    16    33    1
    37    19    34    1
    38    24    35    1
    39    24    36    1
    40    25    37    1
    41    25    38    1
    42    26    39    1
    43    26    40    1
    44    27    41    1
    45    27    42    1
    46     5    43    1
    47     6    44    1
    48     7    45    1
    49     8    46    1
    50     9    47    1
    51    12    48    1
    52    13    49    1
    53    14    50    1
@<TRIPOS>MOLECULE
mol82_1_14
 50 53 0 0 0
SMALL
USER_CHARGES
****
VDW energy = -234.52
@<TRIPOS>ATOM
   1 O1        2.8275    -7.9910    -5.9239  O.2     1  <O>11      -0.2751
   2 C1        3.3598    -9.0478    -5.6186  C.2     1  <O>11       0.2226
   3 C2        2.8830    -9.8060    -4.4250  C.3     1  <O>11       0.0495
   4 C3        1.7690    -9.0740    -3.7900  C.ar    1  <O>11      -0.0386
   5 C4        0.6091    -8.8216    -4.5262  C.ar    1  <O>11      -0.0581
   6 C5       -0.4448    -8.1177    -3.9347  C.ar    1  <O>11      -0.0615
   7 C6       -0.3410    -7.6730    -2.6146  C.ar    1  <O>11      -0.0617
   8 C7        0.8249    -7.9385    -1.8882  C.ar    1  <O>11      -0.0615
   9 C8        1.8822    -8.6419    -2.4676  C.ar    1  <O>11      -0.0581
  10 N1        4.3940    -9.5360    -6.3720  N.am    1  <O>11      -0.2701
  11 C9        4.8390    -8.8270    -7.4880  C.ar    1  <O>11       0.1252
  12 C10       6.1859    -8.3783    -7.5342  C.ar    1  <O>11      -0.0215
  13 C11       6.6246    -7.6793    -8.6555  C.ar    1  <O>11      -0.0568
  14 C12       5.7070    -7.4262    -9.6831  C.ar    1  <O>11      -0.0399
  15 C13       4.3995    -7.8963    -9.5701  C.ar    1  <O>11       0.0492
  16 C14       3.4048    -7.6576   -10.6352  C.3     1  <O>11       0.0340
  17 C15       3.4465    -8.7762   -11.6125  C.ar    1  <O>11       0.0708
  18 N2        4.3382    -9.8263   -11.4293  N.ar    1  <O>11      -0.1753
  19 N3        4.3813   -10.8526   -12.3156  N.ar    1  <O>11      -0.2427
  20 C16       3.5586   -10.8458   -13.3853  C.ar    1  <O>11       0.2682
  21 O2        3.6411   -11.9470   -14.2576  O.2     1  <O>11      -0.2661
  22 C17       2.6590    -9.8151   -13.6490  C.ar    1  <O>11       0.0232
  23 C18       2.5915    -8.7698   -12.7135  C.ar    1  <O>11      -0.0157
  24 C19       1.6644    -7.5972   -12.8815  C.3     1  <O>11      -0.0255
  25 C20       0.5447    -7.8593   -13.8875  C.3     1  <O>11      -0.0487
  26 C21       1.1127    -8.4747   -15.1565  C.3     1  <O>11      -0.0486
  27 C22       1.7573    -9.8279   -14.8550  C.3     1  <O>11      -0.0222
  28 N4        3.9834    -8.5827    -8.4945  N.ar    1  <O>11      -0.2364
  29 H1        2.5400   -10.7930    -4.7350  H       1  <O>11       0.0407
  30 H2        3.7010    -9.9130    -3.7120  H       1  <O>11       0.0407
  31 H3        4.8380   -10.4180    -6.1170  H       1  <O>11       0.1562
  32 H4        3.6351    -6.7214   -11.1429  H       1  <O>11       0.0392
  33 H5        2.4092    -7.5957   -10.1956  H       1  <O>11       0.0392
  34 H6        5.0279   -11.6140   -12.1690  H       1  <O>11       0.1921
  35 H7        1.2167    -7.3675   -11.9154  H       1  <O>11       0.0314
  36 H8        2.2473    -6.7424   -13.2253  H       1  <O>11       0.0314
  37 H9       -0.1807    -8.5433   -13.4485  H       1  <O>11       0.0268
  38 H10       0.0546    -6.9162   -14.1327  H       1  <O>11       0.0268
  39 H11       0.3073    -8.6146   -15.8797  H       1  <O>11       0.0269
  40 H12       1.8642    -7.8053   -15.5762  H       1  <O>11       0.0269
  41 H13       0.9633   -10.5559   -14.6852  H       1  <O>11       0.0315
  42 H14       2.3474   -10.1283   -15.7218  H       1  <O>11       0.0315
  43 H15       0.5303    -9.1526    -5.5005  H       1  <O>11       0.0620
  44 H16      -1.3025    -7.9262    -4.4757  H       1  <O>11       0.0618
  45 H17      -1.1183    -7.1527    -2.1785  H       1  <O>11       0.0618
  46 H18       0.9041    -7.6106    -0.9129  H       1  <O>11       0.0618
  47 H19       2.7373    -8.8399    -1.9249  H       1  <O>11       0.0620
  48 H20       6.8288    -8.5674    -6.7494  H       1  <O>11       0.0652
  49 H21       7.6018    -7.3555    -8.7277  H       1  <O>11       0.0619
  50 H22       5.9971    -6.8949   -10.5189  H       1  <O>11       0.0636
@<TRIPOS>BOND
     1     1     2    2
     2     2     3    1
     3     3     4    1
     4     4     5   ar
     5     5     6   ar
     6     6     7   ar
     7     7     8   ar
     8     8     9   ar
     9     4     9   ar
    10     2    10   am
    11    10    11    1
    12    11    12   ar
    13    12    13   ar
    14    13    14   ar
    15    14    15   ar
    16    15    16    1
    17    16    17    1
    18    17    18   ar
    19    18    19   ar
    20    19    20   ar
    21    20    21    2
    22    20    22   ar
    23    22    23   ar
    24    17    23   ar
    25    23    24    1
    26    24    25    1
    27    25    26    1
    28    26    27    1
    29    22    27    1
    30    15    28   ar
    31    11    28   ar
    32     3    29    1
    33     3    30    1
    34    10    31    1
    35    16    32    1
    36    16    33    1
    37    19    34    1
    38    24    35    1
    39    24    36    1
    40    25    37    1
    41    25    38    1
    42    26    39    1
    43    26    40    1
    44    27    41    1
    45    27    42    1
    46     5    43    1
    47     6    44    1
    48     7    45    1
    49     8    46    1
    50     9    47    1
    51    12    48    1
    52    13    49    1
    53    14    50    1
@<TRIPOS>MOLECULE
mol82_1_15
 50 53 0 0 0
SMALL
USER_CHARGES
****
VDW energy = -234.48
@<TRIPOS>ATOM
   1 O1        2.8275    -7.9910    -5.9239  O.2     1  <O>11      -0.2751
   2 C1        3.3598    -9.0478    -5.6186  C.2     1  <O>11       0.2226
   3 C2        2.8830    -9.8060    -4.4250  C.3     1  <O>11       0.0495
   4 C3        1.7687    -9.0742    -3.7903  C.ar    1  <O>11      -0.0386
   5 C4        1.9846    -7.7789    -3.3144  C.ar    1  <O>11      -0.0581
   6 C5        0.9367    -7.0851    -2.7008  C.ar    1  <O>11      -0.0615
   7 C6       -0.3197    -7.6810    -2.5679  C.ar    1  <O>11      -0.0617
   8 C7       -0.5219    -8.9770    -3.0547  C.ar    1  <O>11      -0.0615
   9 C8        0.5160    -9.6782    -3.6707  C.ar    1  <O>11      -0.0581
  10 N1        4.3940    -9.5360    -6.3720  N.am    1  <O>11      -0.2701
  11 C9        4.8390    -8.8270    -7.4880  C.ar    1  <O>11       0.1252
  12 C10       4.2537    -9.0882    -8.7556  C.ar    1  <O>11      -0.0215
  13 C11       4.6972    -8.3699    -9.8628  C.ar    1  <O>11      -0.0568
  14 C12       5.7236    -7.4341    -9.6815  C.ar    1  <O>11      -0.0399
  15 C13       6.2523    -7.2299    -8.4079  C.ar    1  <O>11       0.0492
  16 C14       7.3290    -6.2467    -8.1740  C.3     1  <O>11       0.0340
  17 C15       6.8620    -5.2204    -7.2062  C.ar    1  <O>11       0.0708
  18 N2        6.2312    -4.0698    -7.6638  N.ar    1  <O>11      -0.1753
  19 N3        5.7997    -3.1287    -6.7868  N.ar    1  <O>11      -0.2427
  20 C16       5.9945    -3.3099    -5.4638  C.ar    1  <O>11       0.2682
  21 O2        5.5091    -2.3051    -4.6064  O.2     1  <O>11      -0.2661
  22 C17       6.6427    -4.4235    -4.9338  C.ar    1  <O>11       0.0232
  23 C18       7.0591    -5.4127    -5.8396  C.ar    1  <O>11      -0.0157
  24 C19       7.7715    -6.6615    -5.3972  C.3     1  <O>11      -0.0255
  25 C20       7.6121    -6.9439    -3.9041  C.3     1  <O>11      -0.0487
  26 C21       7.8747    -5.6804    -3.1000  C.3     1  <O>11      -0.0486
  27 C22       6.8546    -4.5976    -3.4531  C.3     1  <O>11      -0.0222
  28 N4        5.8127    -7.9134    -7.3398  N.ar    1  <O>11      -0.2364
  29 H1        2.5403   -10.7931    -4.7349  H       1  <O>11       0.0407
  30 H2        3.7009    -9.9127    -3.7118  H       1  <O>11       0.0407
  31 H3        4.8380   -10.4180    -6.1170  H       1  <O>11       0.1562
  32 H4        7.5920    -5.7663    -9.1161  H       1  <O>11       0.0392
  33 H5        8.2045    -6.7555    -7.7704  H       1  <O>11       0.0392
  34 H6        5.3361    -2.2999    -7.1296  H       1  <O>11       0.1921
  35 H7        7.3700    -7.5064    -5.9553  H       1  <O>11       0.0314
  36 H8        8.8333    -6.5503    -5.6184  H       1  <O>11       0.0314
  37 H9        6.5979    -7.2907    -3.7096  H       1  <O>11       0.0268
  38 H10       8.3244    -7.7145    -3.6066  H       1  <O>11       0.0268
  39 H11       7.7997    -5.9098    -2.0355  H       1  <O>11       0.0269
  40 H12       8.8774    -5.3142    -3.3219  H       1  <O>11       0.0269
  41 H13       5.9005    -4.8630    -2.9963  H       1  <O>11       0.0315
  42 H14       7.2037    -3.6494    -3.0423  H       1  <O>11       0.0315
  43 H15       2.9115    -7.3366    -3.4150  H       1  <O>11       0.0620
  44 H16       1.0923    -6.1289    -2.3448  H       1  <O>11       0.0618
  45 H17      -1.0926    -7.1694    -2.1142  H       1  <O>11       0.0618
  46 H18      -1.4491    -9.4196    -2.9573  H       1  <O>11       0.0618
  47 H19       0.3591   -10.6315    -4.0332  H       1  <O>11       0.0620
  48 H20       3.5119    -9.7988    -8.8543  H       1  <O>11       0.0652
  49 H21       4.2800    -8.5231   -10.7941  H       1  <O>11       0.0619
  50 H22       6.0862    -6.8991   -10.4860  H       1  <O>11       0.0636
@<TRIPOS>BOND
     1     1     2    2
     2     2     3    1
     3     3     4    1
     4     4     5   ar
     5     5     6   ar
     6     6     7   ar
     7     7     8   ar
     8     8     9   ar
     9     4     9   ar
    10     2    10   am
    11    10    11    1
    12    11    12   ar
    13    12    13   ar
    14    13    14   ar
    15    14    15   ar
    16    15    16    1
    17    16    17    1
    18    17    18   ar
    19    18    19   ar
    20    19    20   ar
    21    20    21    2
    22    20    22   ar
    23    22    23   ar
    24    17    23   ar
    25    23    24    1
    26    24    25    1
    27    25    26    1
    28    26    27    1
    29    22    27    1
    30    15    28   ar
    31    11    28   ar
    32     3    29    1
    33     3    30    1
    34    10    31    1
    35    16    32    1
    36    16    33    1
    37    19    34    1
    38    24    35    1
    39    24    36    1
    40    25    37    1
    41    25    38    1
    42    26    39    1
    43    26    40    1
    44    27    41    1
    45    27    42    1
    46     5    43    1
    47     6    44    1
    48     7    45    1
    49     8    46    1
    50     9    47    1
    51    12    48    1
    52    13    49    1
    53    14    50    1
@<TRIPOS>MOLECULE
mol82_1_16
 50 53 0 0 0
SMALL
USER_CHARGES
****
VDW energy = -233.39
@<TRIPOS>ATOM
   1 O1        2.8275    -7.9910    -5.9239  O.2     1  <O>11      -0.2751
   2 C1        3.3598    -9.0478    -5.6186  C.2     1  <O>11       0.2226
   3 C2        2.8830    -9.8060    -4.4250  C.3     1  <O>11       0.0495
   4 C3        1.7690    -9.0740    -3.7900  C.ar    1  <O>11      -0.0386
   5 C4        1.9854    -7.7788    -3.3140  C.ar    1  <O>11      -0.0581
   6 C5        0.9378    -7.0847    -2.7001  C.ar    1  <O>11      -0.0615
   7 C6       -0.3187    -7.6803    -2.5671  C.ar    1  <O>11      -0.0617
   8 C7       -0.5214    -8.9762    -3.0540  C.ar    1  <O>11      -0.0615
   9 C8        0.5162    -9.6776    -3.6702  C.ar    1  <O>11      -0.0581
  10 N1        4.3940    -9.5360    -6.3720  N.am    1  <O>11      -0.2701
  11 C9        4.8390    -8.8270    -7.4880  C.ar    1  <O>11       0.1252
  12 C10       6.1859    -8.3783    -7.5342  C.ar    1  <O>11      -0.0215
  13 C11       6.6246    -7.6793    -8.6555  C.ar    1  <O>11      -0.0568
  14 C12       5.7070    -7.4262    -9.6831  C.ar    1  <O>11      -0.0399
  15 C13       4.3995    -7.8963    -9.5701  C.ar    1  <O>11       0.0492
  16 C14       3.4048    -7.6576   -10.6352  C.3     1  <O>11       0.0340
  17 C15       3.4465    -8.7762   -11.6125  C.ar    1  <O>11       0.0708
  18 N2        4.2936    -8.7071   -12.7121  N.ar    1  <O>11      -0.1753
  19 N3        4.3394    -9.7249   -13.6080  N.ar    1  <O>11      -0.2427
  20 C16       3.5495   -10.8049   -13.4325  C.ar    1  <O>11       0.2682
  21 O2        3.6565   -11.8326   -14.3878  O.2     1  <O>11      -0.2661
  22 C17       2.6564   -10.9321   -12.3707  C.ar    1  <O>11       0.0232
  23 C18       2.6338    -9.8933   -11.4258  C.ar    1  <O>11      -0.0157
  24 C19       1.7146    -9.9075   -10.2351  C.3     1  <O>11      -0.0255
  25 C20       1.1541   -11.2955    -9.9287  C.3     1  <O>11      -0.0487
  26 C21       0.6399   -11.9468   -11.2027  C.3     1  <O>11      -0.0486
  27 C22       1.7797   -12.1448   -12.2023  C.3     1  <O>11      -0.0222
  28 N4        3.9834    -8.5827    -8.4945  N.ar    1  <O>11      -0.2364
  29 H1        2.5400   -10.7930    -4.7350  H       1  <O>11       0.0407
  30 H2        3.7010    -9.9130    -3.7120  H       1  <O>11       0.0407
  31 H3        4.8380   -10.4180    -6.1170  H       1  <O>11       0.1562
  32 H4        3.6351    -6.7214   -11.1429  H       1  <O>11       0.0392
  33 H5        2.4092    -7.5957   -10.1956  H       1  <O>11       0.0392
  34 H6        4.9638    -9.6677   -14.3994  H       1  <O>11       0.1921
  35 H7        2.2683    -9.5566    -9.3650  H       1  <O>11       0.0314
  36 H8        0.8819    -9.2325   -10.4335  H       1  <O>11       0.0314
  37 H9        1.9409   -11.9147    -9.4994  H       1  <O>11       0.0268
  38 H10       0.3340   -11.2019    -9.2158  H       1  <O>11       0.0268
  39 H11       0.2040   -12.9175   -10.9594  H       1  <O>11       0.0269
  40 H12      -0.1229   -11.3092   -11.6506  H       1  <O>11       0.0269
  41 H13       2.3988   -12.9736   -11.8570  H       1  <O>11       0.0315
  42 H14       1.3470   -12.3931   -13.1723  H       1  <O>11       0.0315
  43 H15       2.9124    -7.3368    -3.4147  H       1  <O>11       0.0620
  44 H16       1.0937    -6.1287    -2.3440  H       1  <O>11       0.0618
  45 H17      -1.0914    -7.1685    -2.1131  H       1  <O>11       0.0618
  46 H18      -1.4487    -9.4186    -2.9565  H       1  <O>11       0.0618
  47 H19       0.3589   -10.6309    -4.0329  H       1  <O>11       0.0620
  48 H20       6.8288    -8.5674    -6.7494  H       1  <O>11       0.0652
  49 H21       7.6018    -7.3555    -8.7277  H       1  <O>11       0.0619
  50 H22       5.9971    -6.8949   -10.5189  H       1  <O>11       0.0636
@<TRIPOS>BOND
     1     1     2    2
     2     2     3    1
     3     3     4    1
     4     4     5   ar
     5     5     6   ar
     6     6     7   ar
     7     7     8   ar
     8     8     9   ar
     9     4     9   ar
    10     2    10   am
    11    10    11    1
    12    11    12   ar
    13    12    13   ar
    14    13    14   ar
    15    14    15   ar
    16    15    16    1
    17    16    17    1
    18    17    18   ar
    19    18    19   ar
    20    19    20   ar
    21    20    21    2
    22    20    22   ar
    23    22    23   ar
    24    17    23   ar
    25    23    24    1
    26    24    25    1
    27    25    26    1
    28    26    27    1
    29    22    27    1
    30    15    28   ar
    31    11    28   ar
    32     3    29    1
    33     3    30    1
    34    10    31    1
    35    16    32    1
    36    16    33    1
    37    19    34    1
    38    24    35    1
    39    24    36    1
    40    25    37    1
    41    25    38    1
    42    26    39    1
    43    26    40    1
    44    27    41    1
    45    27    42    1
    46     5    43    1
    47     6    44    1
    48     7    45    1
    49     8    46    1
    50     9    47    1
    51    12    48    1
    52    13    49    1
    53    14    50    1
@<TRIPOS>MOLECULE
mol82_1_17
 50 53 0 0 0
SMALL
USER_CHARGES
****
VDW energy = -233.24
@<TRIPOS>ATOM
   1 O1        2.8275    -7.9910    -5.9239  O.2     1  <O>11      -0.2751
   2 C1        3.3598    -9.0478    -5.6186  C.2     1  <O>11       0.2226
   3 C2        2.8830    -9.8060    -4.4250  C.3     1  <O>11       0.0495
   4 C3        2.8824   -11.2510    -4.7281  C.ar    1  <O>11      -0.0386
   5 C4        2.0959   -11.7288    -5.7789  C.ar    1  <O>11      -0.0581
   6 C5        2.0810   -13.0981    -6.0632  C.ar    1  <O>11      -0.0615
   7 C6        2.8508   -13.9830    -5.3045  C.ar    1  <O>11      -0.0617
   8 C7        3.6379   -13.4885    -4.2588  C.ar    1  <O>11      -0.0615
   9 C8        3.6621   -12.1237    -3.9674  C.ar    1  <O>11      -0.0581
  10 N1        4.3940    -9.5360    -6.3720  N.am    1  <O>11      -0.2701
  11 C9        4.8390    -8.8270    -7.4880  C.ar    1  <O>11       0.1252
  12 C10       6.1859    -8.3783    -7.5342  C.ar    1  <O>11      -0.0215
  13 C11       6.6246    -7.6793    -8.6555  C.ar    1  <O>11      -0.0568
  14 C12       5.7070    -7.4262    -9.6831  C.ar    1  <O>11      -0.0399
  15 C13       4.3995    -7.8963    -9.5701  C.ar    1  <O>11       0.0492
  16 C14       3.4048    -7.6576   -10.6352  C.3     1  <O>11       0.0340
  17 C15       2.9137    -8.9598   -11.1561  C.ar    1  <O>11       0.0708
  18 N2        3.5623    -9.5707   -12.2227  N.ar    1  <O>11      -0.1753
  19 N3        3.1219   -10.7606   -12.7031  N.ar    1  <O>11      -0.2427
  20 C16       2.0417   -11.3469   -12.1459  C.ar    1  <O>11       0.2682
  21 O2        1.6459   -12.5875   -12.6793  O.2     1  <O>11      -0.2661
  22 C17       1.3249   -10.7814   -11.0935  C.ar    1  <O>11       0.0232
  23 C18       1.8013    -9.5663   -10.5750  C.ar    1  <O>11      -0.0157
  24 C19       1.1182    -8.8513    -9.4414  C.3     1  <O>11      -0.0255
  25 C20       0.1631    -9.7494    -8.6568  C.3     1  <O>11      -0.0487
  26 C21      -0.7248   -10.5320    -9.6112  C.3     1  <O>11      -0.0486
  27 C22       0.1172   -11.4529   -10.4948  C.3     1  <O>11      -0.0222
  28 N4        3.9834    -8.5827    -8.4945  N.ar    1  <O>11      -0.2364
  29 H1        3.5463    -9.6113    -3.5824  H       1  <O>11       0.0407
  30 H2        1.8714    -9.4871    -4.1723  H       1  <O>11       0.0407
  31 H3        4.8380   -10.4180    -6.1170  H       1  <O>11       0.1562
  32 H4        3.8682    -7.0930   -11.4438  H       1  <O>11       0.0392
  33 H5        2.5677    -7.0891   -10.2300  H       1  <O>11       0.0392
  34 H6        3.6049   -11.1993   -13.4737  H       1  <O>11       0.1921
  35 H7        1.8797    -8.4745    -8.7596  H       1  <O>11       0.0314
  36 H8        0.5510    -8.0156    -9.8518  H       1  <O>11       0.0314
  37 H9        0.7407   -10.4453    -8.0492  H       1  <O>11       0.0268
  38 H10      -0.4606    -9.1314    -8.0097  H       1  <O>11       0.0268
  39 H11      -1.4291   -11.1344    -9.0347  H       1  <O>11       0.0269
  40 H12      -1.2764    -9.8353   -10.2430  H       1  <O>11       0.0269
  41 H13       0.4547   -12.2949    -9.8893  H       1  <O>11       0.0315
  42 H14      -0.5112   -11.8180   -11.3081  H       1  <O>11       0.0315
  43 H15       1.5294   -11.0754    -6.3420  H       1  <O>11       0.0620
  44 H16       1.4991   -13.4561    -6.8367  H       1  <O>11       0.0618
  45 H17       2.8390   -14.9935    -5.5137  H       1  <O>11       0.0618
  46 H18       4.2072   -14.1403    -3.6965  H       1  <O>11       0.0618
  47 H19       4.2494   -11.7642    -3.1987  H       1  <O>11       0.0620
  48 H20       6.8288    -8.5674    -6.7494  H       1  <O>11       0.0652
  49 H21       7.6018    -7.3555    -8.7277  H       1  <O>11       0.0619
  50 H22       5.9971    -6.8949   -10.5189  H       1  <O>11       0.0636
@<TRIPOS>BOND
     1     1     2    2
     2     2     3    1
     3     3     4    1
     4     4     5   ar
     5     5     6   ar
     6     6     7   ar
     7     7     8   ar
     8     8     9   ar
     9     4     9   ar
    10     2    10   am
    11    10    11    1
    12    11    12   ar
    13    12    13   ar
    14    13    14   ar
    15    14    15   ar
    16    15    16    1
    17    16    17    1
    18    17    18   ar
    19    18    19   ar
    20    19    20   ar
    21    20    21    2
    22    20    22   ar
    23    22    23   ar
    24    17    23   ar
    25    23    24    1
    26    24    25    1
    27    25    26    1
    28    26    27    1
    29    22    27    1
    30    15    28   ar
    31    11    28   ar
    32     3    29    1
    33     3    30    1
    34    10    31    1
    35    16    32    1
    36    16    33    1
    37    19    34    1
    38    24    35    1
    39    24    36    1
    40    25    37    1
    41    25    38    1
    42    26    39    1
    43    26    40    1
    44    27    41    1
    45    27    42    1
    46     5    43    1
    47     6    44    1
    48     7    45    1
    49     8    46    1
    50     9    47    1
    51    12    48    1
    52    13    49    1
    53    14    50    1
@<TRIPOS>MOLECULE
mol82_1_18
 50 53 0 0 0
SMALL
USER_CHARGES
****
VDW energy = -233.08
@<TRIPOS>ATOM
   1 O1        2.8275    -7.9910    -5.9239  O.2     1  <O>11      -0.2751
   2 C1        3.3598    -9.0478    -5.6186  C.2     1  <O>11       0.2226
   3 C2        2.8830    -9.8060    -4.4250  C.3     1  <O>11       0.0495
   4 C3        1.7690    -9.0740    -3.7900  C.ar    1  <O>11      -0.0386
   5 C4        1.9854    -7.7788    -3.3140  C.ar    1  <O>11      -0.0581
   6 C5        0.9378    -7.0847    -2.7001  C.ar    1  <O>11      -0.0615
   7 C6       -0.3187    -7.6803    -2.5671  C.ar    1  <O>11      -0.0617
   8 C7       -0.5214    -8.9762    -3.0540  C.ar    1  <O>11      -0.0615
   9 C8        0.5162    -9.6776    -3.6702  C.ar    1  <O>11      -0.0581
  10 N1        4.3940    -9.5360    -6.3720  N.am    1  <O>11      -0.2701
  11 C9        5.0018   -10.7423    -6.0234  C.ar    1  <O>11       0.1252
  12 C10       6.3887   -10.7584    -5.7176  C.ar    1  <O>11      -0.0215
  13 C11       6.9858   -11.9649    -5.3618  C.ar    1  <O>11      -0.0568
  14 C12       6.1937   -13.1200    -5.3453  C.ar    1  <O>11      -0.0399
  15 C13       4.8381   -13.0301    -5.6577  C.ar    1  <O>11       0.0492
  16 C14       3.9679   -14.2231    -5.6434  C.3     1  <O>11       0.0340
  17 C15       2.8723   -14.0261    -4.6590  C.ar    1  <O>11       0.0708
  18 N2        1.5478   -14.0525    -5.0788  N.ar    1  <O>11      -0.1753
  19 N3        0.5413   -13.8757    -4.1863  N.ar    1  <O>11      -0.2427
  20 C16       0.8321   -13.6638    -2.8857  C.ar    1  <O>11       0.2682
  21 O2       -0.2570   -13.5044    -2.0088  O.2     1  <O>11      -0.2661
  22 C17       2.1349   -13.5969    -2.3965  C.ar    1  <O>11       0.0232
  23 C18       3.1751   -13.8133    -3.3150  C.ar    1  <O>11      -0.0157
  24 C19       4.6247   -13.7661    -2.9160  C.3     1  <O>11      -0.0255
  25 C20       4.8344   -13.8933    -1.4079  C.3     1  <O>11      -0.0487
  26 C21       3.8860   -12.9650    -0.6660  C.3     1  <O>11      -0.0486
  27 C22       2.4323   -13.3509    -0.9409  C.3     1  <O>11      -0.0222
  28 N4        4.2622   -11.8632    -5.9860  N.ar    1  <O>11      -0.2364
  29 H1        2.5400   -10.7930    -4.7350  H       1  <O>11       0.0407
  30 H2        3.7010    -9.9130    -3.7120  H       1  <O>11       0.0407
  31 H3        4.7196    -9.0170    -7.1873  H       1  <O>11       0.1562
  32 H4        4.5558   -15.0972    -5.3643  H       1  <O>11       0.0392
  33 H5        3.5424   -14.3746    -6.6355  H       1  <O>11       0.0392
  34 H6       -0.4177   -13.9040    -4.5009  H       1  <O>11       0.1921
  35 H7        5.1473   -14.5844    -3.4097  H       1  <O>11       0.0314
  36 H8        5.0431   -12.8150    -3.2460  H       1  <O>11       0.0314
  37 H9        4.6438   -14.9218    -1.1035  H       1  <O>11       0.0268
  38 H10       5.8635   -13.6259    -1.1649  H       1  <O>11       0.0268
  39 H11       4.0790   -13.0360     0.4060  H       1  <O>11       0.0269
  40 H12       4.0533   -11.9396    -0.9970  H       1  <O>11       0.0269
  41 H13       2.2078   -14.2612    -0.3836  H       1  <O>11       0.0315
  42 H14       1.7898   -12.5420    -0.5910  H       1  <O>11       0.0315
  43 H15       2.9124    -7.3368    -3.4147  H       1  <O>11       0.0620
  44 H16       1.0937    -6.1287    -2.3440  H       1  <O>11       0.0618
  45 H17      -1.0914    -7.1685    -2.1131  H       1  <O>11       0.0618
  46 H18      -1.4487    -9.4186    -2.9565  H       1  <O>11       0.0618
  47 H19       0.3589   -10.6309    -4.0329  H       1  <O>11       0.0620
  48 H20       6.9449    -9.8900    -5.7583  H       1  <O>11       0.0652
  49 H21       7.9873   -12.0070    -5.1163  H       1  <O>11       0.0619
  50 H22       6.6112   -14.0323    -5.1033  H       1  <O>11       0.0636
@<TRIPOS>BOND
     1     1     2    2
     2     2     3    1
     3     3     4    1
     4     4     5   ar
     5     5     6   ar
     6     6     7   ar
     7     7     8   ar
     8     8     9   ar
     9     4     9   ar
    10     2    10   am
    11    10    11    1
    12    11    12   ar
    13    12    13   ar
    14    13    14   ar
    15    14    15   ar
    16    15    16    1
    17    16    17    1
    18    17    18   ar
    19    18    19   ar
    20    19    20   ar
    21    20    21    2
    22    20    22   ar
    23    22    23   ar
    24    17    23   ar
    25    23    24    1
    26    24    25    1
    27    25    26    1
    28    26    27    1
    29    22    27    1
    30    15    28   ar
    31    11    28   ar
    32     3    29    1
    33     3    30    1
    34    10    31    1
    35    16    32    1
    36    16    33    1
    37    19    34    1
    38    24    35    1
    39    24    36    1
    40    25    37    1
    41    25    38    1
    42    26    39    1
    43    26    40    1
    44    27    41    1
    45    27    42    1
    46     5    43    1
    47     6    44    1
    48     7    45    1
    49     8    46    1
    50     9    47    1
    51    12    48    1
    52    13    49    1
    53    14    50    1
@<TRIPOS>MOLECULE
mol82_1_19
 50 53 0 0 0
SMALL
USER_CHARGES
****
VDW energy = -232.87
@<TRIPOS>ATOM
   1 O1        2.8275    -7.9910    -5.9239  O.2     1  <O>11      -0.2751
   2 C1        3.3598    -9.0478    -5.6186  C.2     1  <O>11       0.2226
   3 C2        2.8830    -9.8060    -4.4250  C.3     1  <O>11       0.0495
   4 C3        1.7690    -9.0740    -3.7900  C.ar    1  <O>11      -0.0386
   5 C4        1.9854    -7.7788    -3.3140  C.ar    1  <O>11      -0.0581
   6 C5        0.9378    -7.0847    -2.7001  C.ar    1  <O>11      -0.0615
   7 C6       -0.3187    -7.6803    -2.5671  C.ar    1  <O>11      -0.0617
   8 C7       -0.5214    -8.9762    -3.0540  C.ar    1  <O>11      -0.0615
   9 C8        0.5162    -9.6776    -3.6702  C.ar    1  <O>11      -0.0581
  10 N1        4.3940    -9.5360    -6.3720  N.am    1  <O>11      -0.2701
  11 C9        4.8390    -8.8270    -7.4880  C.ar    1  <O>11       0.1252
  12 C10       6.1859    -8.3783    -7.5342  C.ar    1  <O>11      -0.0215
  13 C11       6.6246    -7.6793    -8.6555  C.ar    1  <O>11      -0.0568
  14 C12       5.7070    -7.4262    -9.6831  C.ar    1  <O>11      -0.0399
  15 C13       4.3995    -7.8963    -9.5701  C.ar    1  <O>11       0.0492
  16 C14       3.4048    -7.6576   -10.6352  C.3     1  <O>11       0.0340
  17 C15       2.9137    -8.9598   -11.1561  C.ar    1  <O>11       0.0708
  18 N2        3.5623    -9.5707   -12.2227  N.ar    1  <O>11      -0.1753
  19 N3        3.1219   -10.7606   -12.7031  N.ar    1  <O>11      -0.2427
  20 C16       2.0417   -11.3469   -12.1459  C.ar    1  <O>11       0.2682
  21 O2        1.6459   -12.5875   -12.6793  O.2     1  <O>11      -0.2661
  22 C17       1.3249   -10.7814   -11.0935  C.ar    1  <O>11       0.0232
  23 C18       1.8013    -9.5663   -10.5750  C.ar    1  <O>11      -0.0157
  24 C19       1.1182    -8.8513    -9.4414  C.3     1  <O>11      -0.0255
  25 C20       0.1631    -9.7494    -8.6568  C.3     1  <O>11      -0.0487
  26 C21      -0.7248   -10.5320    -9.6112  C.3     1  <O>11      -0.0486
  27 C22       0.1172   -11.4529   -10.4948  C.3     1  <O>11      -0.0222
  28 N4        3.9834    -8.5827    -8.4945  N.ar    1  <O>11      -0.2364
  29 H1        2.5400   -10.7930    -4.7350  H       1  <O>11       0.0407
  30 H2        3.7010    -9.9130    -3.7120  H       1  <O>11       0.0407
  31 H3        4.8380   -10.4180    -6.1170  H       1  <O>11       0.1562
  32 H4        3.8682    -7.0930   -11.4438  H       1  <O>11       0.0392
  33 H5        2.5677    -7.0891   -10.2300  H       1  <O>11       0.0392
  34 H6        3.6049   -11.1993   -13.4737  H       1  <O>11       0.1921
  35 H7        1.8797    -8.4745    -8.7596  H       1  <O>11       0.0314
  36 H8        0.5510    -8.0156    -9.8518  H       1  <O>11       0.0314
  37 H9        0.7407   -10.4453    -8.0492  H       1  <O>11       0.0268
  38 H10      -0.4606    -9.1314    -8.0097  H       1  <O>11       0.0268
  39 H11      -1.4291   -11.1344    -9.0347  H       1  <O>11       0.0269
  40 H12      -1.2764    -9.8353   -10.2430  H       1  <O>11       0.0269
  41 H13       0.4547   -12.2949    -9.8893  H       1  <O>11       0.0315
  42 H14      -0.5112   -11.8180   -11.3081  H       1  <O>11       0.0315
  43 H15       2.9124    -7.3368    -3.4147  H       1  <O>11       0.0620
  44 H16       1.0937    -6.1287    -2.3440  H       1  <O>11       0.0618
  45 H17      -1.0914    -7.1685    -2.1131  H       1  <O>11       0.0618
  46 H18      -1.4487    -9.4186    -2.9565  H       1  <O>11       0.0618
  47 H19       0.3589   -10.6309    -4.0329  H       1  <O>11       0.0620
  48 H20       6.8288    -8.5674    -6.7494  H       1  <O>11       0.0652
  49 H21       7.6018    -7.3555    -8.7277  H       1  <O>11       0.0619
  50 H22       5.9971    -6.8949   -10.5189  H       1  <O>11       0.0636
@<TRIPOS>BOND
     1     1     2    2
     2     2     3    1
     3     3     4    1
     4     4     5   ar
     5     5     6   ar
     6     6     7   ar
     7     7     8   ar
     8     8     9   ar
     9     4     9   ar
    10     2    10   am
    11    10    11    1
    12    11    12   ar
    13    12    13   ar
    14    13    14   ar
    15    14    15   ar
    16    15    16    1
    17    16    17    1
    18    17    18   ar
    19    18    19   ar
    20    19    20   ar
    21    20    21    2
    22    20    22   ar
    23    22    23   ar
    24    17    23   ar
    25    23    24    1
    26    24    25    1
    27    25    26    1
    28    26    27    1
    29    22    27    1
    30    15    28   ar
    31    11    28   ar
    32     3    29    1
    33     3    30    1
    34    10    31    1
    35    16    32    1
    36    16    33    1
    37    19    34    1
    38    24    35    1
    39    24    36    1
    40    25    37    1
    41    25    38    1
    42    26    39    1
    43    26    40    1
    44    27    41    1
    45    27    42    1
    46     5    43    1
    47     6    44    1
    48     7    45    1
    49     8    46    1
    50     9    47    1
    51    12    48    1
    52    13    49    1
    53    14    50    1
@<TRIPOS>MOLECULE
mol82_1_20
 50 53 0 0 0
SMALL
USER_CHARGES
****
VDW energy = -232.79
@<TRIPOS>ATOM
   1 O1        2.8275    -7.9910    -5.9239  O.2     1  <O>11      -0.2751
   2 C1        3.3598    -9.0478    -5.6186  C.2     1  <O>11       0.2226
   3 C2        2.8830    -9.8060    -4.4250  C.3     1  <O>11       0.0495
   4 C3        2.8824   -11.2510    -4.7281  C.ar    1  <O>11      -0.0386
   5 C4        2.0959   -11.7288    -5.7789  C.ar    1  <O>11      -0.0581
   6 C5        2.0810   -13.0981    -6.0632  C.ar    1  <O>11      -0.0615
   7 C6        2.8508   -13.9830    -5.3045  C.ar    1  <O>11      -0.0617
   8 C7        3.6379   -13.4885    -4.2588  C.ar    1  <O>11      -0.0615
   9 C8        3.6621   -12.1237    -3.9674  C.ar    1  <O>11      -0.0581
  10 N1        4.3940    -9.5360    -6.3720  N.am    1  <O>11      -0.2701
  11 C9        4.8390    -8.8270    -7.4880  C.ar    1  <O>11       0.1252
  12 C10       4.7884    -9.4422    -8.7673  C.ar    1  <O>11      -0.0215
  13 C11       5.2260    -8.7245    -9.8772  C.ar    1  <O>11      -0.0568
  14 C12       5.7226    -7.4299    -9.6791  C.ar    1  <O>11      -0.0399
  15 C13       5.7433    -6.8892    -8.3944  C.ar    1  <O>11       0.0492
  16 C14       6.2511    -5.5251    -8.1454  C.3     1  <O>11       0.0340
  17 C15       5.1731    -4.6961    -7.5465  C.ar    1  <O>11       0.0708
  18 N2        4.3148    -3.9739    -8.3670  N.ar    1  <O>11      -0.1753
  19 N3        3.3265    -3.2162    -7.8285  N.ar    1  <O>11      -0.2427
  20 C16       3.1849    -3.1583    -6.4877  C.ar    1  <O>11       0.2682
  21 O2        2.1306    -2.3680    -5.9935  O.2     1  <O>11      -0.2661
  22 C17       4.0236    -3.8322    -5.6025  C.ar    1  <O>11       0.0232
  23 C18       5.0252    -4.6426    -6.1614  C.ar    1  <O>11      -0.0157
  24 C19       5.9967    -5.4204    -5.3164  C.3     1  <O>11      -0.0255
  25 C20       5.5328    -5.5851    -3.8700  C.3     1  <O>11      -0.0487
  26 C21       5.0540    -4.2521    -3.3173  C.3     1  <O>11      -0.0486
  27 C22       3.8490    -3.7441    -4.1094  C.3     1  <O>11      -0.0222
  28 N4        5.3072    -7.5780    -7.3283  N.ar    1  <O>11      -0.2364
  29 H1        3.5463    -9.6113    -3.5824  H       1  <O>11       0.0407
  30 H2        1.8714    -9.4871    -4.1723  H       1  <O>11       0.0407
  31 H3        4.8380   -10.4180    -6.1170  H       1  <O>11       0.1562
  32 H4        6.5723    -5.0804    -9.0870  H       1  <O>11       0.0392
  33 H5        7.0973    -5.5717    -7.4598  H       1  <O>11       0.0392
  34 H6        2.7039    -2.7012    -8.4341  H       1  <O>11       0.1921
  35 H7        6.1240    -6.4093    -5.7552  H       1  <O>11       0.0314
  36 H8        6.9524    -4.8958    -5.3172  H       1  <O>11       0.0314
  37 H9        4.7158    -6.3048    -3.8337  H       1  <O>11       0.0268
  38 H10       6.3651    -5.9476    -3.2653  H       1  <O>11       0.0268
  39 H11       4.7680    -4.3785    -2.2716  H       1  <O>11       0.0269
  40 H12       5.8616    -3.5227    -3.3864  H       1  <O>11       0.0269
  41 H13       2.9784    -4.3375    -3.8277  H       1  <O>11       0.0315
  42 H14       3.6789    -2.6998    -3.8445  H       1  <O>11       0.0315
  43 H15       1.5294   -11.0754    -6.3420  H       1  <O>11       0.0620
  44 H16       1.4991   -13.4561    -6.8367  H       1  <O>11       0.0618
  45 H17       2.8390   -14.9935    -5.5137  H       1  <O>11       0.0618
  46 H18       4.2072   -14.1403    -3.6965  H       1  <O>11       0.0618
  47 H19       4.2494   -11.7642    -3.1987  H       1  <O>11       0.0620
  48 H20       4.4331   -10.4054    -8.8723  H       1  <O>11       0.0652
  49 H21       5.1855    -9.1363   -10.8226  H       1  <O>11       0.0619
  50 H22       6.0712    -6.8795   -10.4796  H       1  <O>11       0.0636
@<TRIPOS>BOND
     1     1     2    2
     2     2     3    1
     3     3     4    1
     4     4     5   ar
     5     5     6   ar
     6     6     7   ar
     7     7     8   ar
     8     8     9   ar
     9     4     9   ar
    10     2    10   am
    11    10    11    1
    12    11    12   ar
    13    12    13   ar
    14    13    14   ar
    15    14    15   ar
    16    15    16    1
    17    16    17    1
    18    17    18   ar
    19    18    19   ar
    20    19    20   ar
    21    20    21    2
    22    20    22   ar
    23    22    23   ar
    24    17    23   ar
    25    23    24    1
    26    24    25    1
    27    25    26    1
    28    26    27    1
    29    22    27    1
    30    15    28   ar
    31    11    28   ar
    32     3    29    1
    33     3    30    1
    34    10    31    1
    35    16    32    1
    36    16    33    1
    37    19    34    1
    38    24    35    1
    39    24    36    1
    40    25    37    1
    41    25    38    1
    42    26    39    1
    43    26    40    1
    44    27    41    1
    45    27    42    1
    46     5    43    1
    47     6    44    1
    48     7    45    1
    49     8    46    1
    50     9    47    1
    51    12    48    1
    52    13    49    1
    53    14    50    1
@<TRIPOS>MOLECULE
mol82_1_21
 50 53 0 0 0
SMALL
USER_CHARGES
****
VDW energy = -232.67
@<TRIPOS>ATOM
   1 O1        2.8275    -7.9910    -5.9239  O.2     1  <O>11      -0.2751
   2 C1        3.3598    -9.0478    -5.6186  C.2     1  <O>11       0.2226
   3 C2        2.8830    -9.8060    -4.4250  C.3     1  <O>11       0.0495
   4 C3        1.7690    -9.0740    -3.7900  C.ar    1  <O>11      -0.0386
   5 C4        2.0478    -8.1330    -2.7961  C.ar    1  <O>11      -0.0581
   6 C5        0.9963    -7.4453    -2.1818  C.ar    1  <O>11      -0.0615
   7 C6       -0.3247    -7.6940    -2.5618  C.ar    1  <O>11      -0.0617
   8 C7       -0.5876    -8.6354    -3.5629  C.ar    1  <O>11      -0.0615
   9 C8        0.4541    -9.3262    -4.1843  C.ar    1  <O>11      -0.0581
  10 N1        4.3940    -9.5360    -6.3720  N.am    1  <O>11      -0.2701
  11 C9        5.0018   -10.7423    -6.0234  C.ar    1  <O>11       0.1252
  12 C10       4.9878   -11.8200    -6.9486  C.ar    1  <O>11      -0.0215
  13 C11       5.6044   -13.0176    -6.5967  C.ar    1  <O>11      -0.0568
  14 C12       6.1928   -13.1158    -5.3293  C.ar    1  <O>11      -0.0399
  15 C13       6.1684   -12.0172    -4.4716  C.ar    1  <O>11       0.0492
  16 C14       6.7848   -12.0780    -3.1311  C.3     1  <O>11       0.0340
  17 C15       8.2051   -11.6497    -3.2183  C.ar    1  <O>11       0.0708
  18 N2        8.5381   -10.3101    -3.0570  N.ar    1  <O>11      -0.1753
  19 N3        9.8326    -9.9109    -3.1330  N.ar    1  <O>11      -0.2427
  20 C16      10.7987   -10.8211    -3.3762  C.ar    1  <O>11       0.2682
  21 O2       12.1221   -10.3453    -3.4264  O.2     1  <O>11      -0.2661
  22 C17      10.5381   -12.1752    -3.5757  C.ar    1  <O>11       0.0232
  23 C18       9.2019   -12.5928    -3.4637  C.ar    1  <O>11      -0.0157
  24 C19       8.7868   -14.0255    -3.6583  C.3     1  <O>11      -0.0255
  25 C20       9.9544   -15.0056    -3.5564  C.3     1  <O>11      -0.0487
  26 C21      11.1289   -14.5108    -4.3856  C.3     1  <O>11      -0.0486
  27 C22      11.6343   -13.1694    -3.8538  C.3     1  <O>11      -0.0222
  28 N4        5.5860   -10.8592    -4.8194  N.ar    1  <O>11      -0.2364
  29 H1        2.5400   -10.7930    -4.7350  H       1  <O>11       0.0407
  30 H2        3.7010    -9.9130    -3.7120  H       1  <O>11       0.0407
  31 H3        4.7196    -9.0170    -7.1873  H       1  <O>11       0.1562
  32 H4        6.7347   -13.0995    -2.7551  H       1  <O>11       0.0392
  33 H5        6.2463   -11.4158    -2.4530  H       1  <O>11       0.0392
  34 H6       10.0642    -8.9362    -3.0070  H       1  <O>11       0.1921
  35 H7        8.0516   -14.2804    -2.8960  H       1  <O>11       0.0314
  36 H8        8.3361   -14.1235    -4.6462  H       1  <O>11       0.0314
  37 H9       10.2605   -15.0939    -2.5146  H       1  <O>11       0.0268
  38 H10       9.6375   -15.9812    -3.9272  H       1  <O>11       0.0268
  39 H11      11.9370   -15.2430    -4.3369  H       1  <O>11       0.0269
  40 H12      10.8123   -14.3892    -5.4219  H       1  <O>11       0.0269
  41 H13      12.1794   -13.3512    -2.9268  H       1  <O>11       0.0315
  42 H14      12.3092   -12.7383    -4.5943  H       1  <O>11       0.0315
  43 H15       3.0236    -7.9463    -2.5170  H       1  <O>11       0.0620
  44 H16       1.1971    -6.7514    -1.4447  H       1  <O>11       0.0618
  45 H17      -1.1007    -7.1873    -2.1077  H       1  <O>11       0.0618
  46 H18      -1.5627    -8.8212    -3.8451  H       1  <O>11       0.0618
  47 H19       0.2543   -10.0150    -4.9264  H       1  <O>11       0.0620
  48 H20       4.5280   -11.7169    -7.8668  H       1  <O>11       0.0652
  49 H21       5.6274   -13.8134    -7.2533  H       1  <O>11       0.0619
  50 H22       6.6418   -13.9964    -5.0323  H       1  <O>11       0.0636
@<TRIPOS>BOND
     1     1     2    2
     2     2     3    1
     3     3     4    1
     4     4     5   ar
     5     5     6   ar
     6     6     7   ar
     7     7     8   ar
     8     8     9   ar
     9     4     9   ar
    10     2    10   am
    11    10    11    1
    12    11    12   ar
    13    12    13   ar
    14    13    14   ar
    15    14    15   ar
    16    15    16    1
    17    16    17    1
    18    17    18   ar
    19    18    19   ar
    20    19    20   ar
    21    20    21    2
    22    20    22   ar
    23    22    23   ar
    24    17    23   ar
    25    23    24    1
    26    24    25    1
    27    25    26    1
    28    26    27    1
    29    22    27    1
    30    15    28   ar
    31    11    28   ar
    32     3    29    1
    33     3    30    1
    34    10    31    1
    35    16    32    1
    36    16    33    1
    37    19    34    1
    38    24    35    1
    39    24    36    1
    40    25    37    1
    41    25    38    1
    42    26    39    1
    43    26    40    1
    44    27    41    1
    45    27    42    1
    46     5    43    1
    47     6    44    1
    48     7    45    1
    49     8    46    1
    50     9    47    1
    51    12    48    1
    52    13    49    1
    53    14    50    1
@<TRIPOS>MOLECULE
mol82_1_22
 50 53 0 0 0
SMALL
USER_CHARGES
****
VDW energy = -232.37
@<TRIPOS>ATOM
   1 O1        2.8275    -7.9910    -5.9239  O.2     1  <O>11      -0.2751
   2 C1        3.3598    -9.0478    -5.6186  C.2     1  <O>11       0.2226
   3 C2        2.8830    -9.8060    -4.4250  C.3     1  <O>11       0.0495
   4 C3        1.7690    -9.0740    -3.7900  C.ar    1  <O>11      -0.0386
   5 C4        1.9854    -7.7788    -3.3140  C.ar    1  <O>11      -0.0581
   6 C5        0.9378    -7.0847    -2.7001  C.ar    1  <O>11      -0.0615
   7 C6       -0.3187    -7.6803    -2.5671  C.ar    1  <O>11      -0.0617
   8 C7       -0.5214    -8.9762    -3.0540  C.ar    1  <O>11      -0.0615
   9 C8        0.5162    -9.6776    -3.6702  C.ar    1  <O>11      -0.0581
  10 N1        4.3940    -9.5360    -6.3720  N.am    1  <O>11      -0.2701
  11 C9        5.0018   -10.7423    -6.0234  C.ar    1  <O>11       0.1252
  12 C10       4.9878   -11.8200    -6.9486  C.ar    1  <O>11      -0.0215
  13 C11       5.6044   -13.0176    -6.5967  C.ar    1  <O>11      -0.0568
  14 C12       6.1928   -13.1158    -5.3293  C.ar    1  <O>11      -0.0399
  15 C13       6.1684   -12.0172    -4.4716  C.ar    1  <O>11       0.0492
  16 C14       6.7848   -12.0780    -3.1311  C.3     1  <O>11       0.0340
  17 C15       7.8499   -11.0470    -3.0277  C.ar    1  <O>11       0.0708
  18 N2        9.1562   -11.3590    -3.3851  N.ar    1  <O>11      -0.1753
  19 N3       10.1343   -10.4231    -3.2958  N.ar    1  <O>11      -0.2427
  20 C16       9.8354    -9.1857    -2.8479  C.ar    1  <O>11       0.2682
  21 O2       10.8911    -8.2568    -2.7946  O.2     1  <O>11      -0.2661
  22 C17       8.5557    -8.8086    -2.4460  C.ar    1  <O>11       0.0232
  23 C18       7.5375    -9.7678    -2.5703  C.ar    1  <O>11      -0.0157
  24 C19       6.1146    -9.4884    -2.1699  C.3     1  <O>11      -0.0255
  25 C20       5.8123    -7.9966    -2.0379  C.3     1  <O>11      -0.0487
  26 C21       6.9020    -7.3097    -1.2300  C.3     1  <O>11      -0.0486
  27 C22       8.2503    -7.4229    -1.9419  C.3     1  <O>11      -0.0222
  28 N4        5.5860   -10.8592    -4.8194  N.ar    1  <O>11      -0.2364
  29 H1        2.5400   -10.7930    -4.7350  H       1  <O>11       0.0407
  30 H2        3.7010    -9.9130    -3.7120  H       1  <O>11       0.0407
  31 H3        4.7196    -9.0170    -7.1873  H       1  <O>11       0.1562
  32 H4        7.2176   -13.0659    -2.9756  H       1  <O>11       0.0392
  33 H5        6.0243   -11.8924    -2.3725  H       1  <O>11       0.0392
  34 H6       11.0786   -10.6583    -3.5650  H       1  <O>11       0.1921
  35 H7        5.4523    -9.9117    -2.9241  H       1  <O>11       0.0314
  36 H8        5.9257    -9.9676    -1.2090  H       1  <O>11       0.0314
  37 H9        5.7636    -7.5500    -3.0303  H       1  <O>11       0.0268
  38 H10       4.8542    -7.8679    -1.5327  H       1  <O>11       0.0268
  39 H11       6.6484    -6.2551    -1.1083  H       1  <O>11       0.0269
  40 H12       6.9740    -7.7805    -0.2491  H       1  <O>11       0.0269
  41 H13       8.2483    -6.7388    -2.7913  H       1  <O>11       0.0315
  42 H14       9.0343    -7.1316    -1.2417  H       1  <O>11       0.0315
  43 H15       2.9124    -7.3368    -3.4147  H       1  <O>11       0.0620
  44 H16       1.0937    -6.1287    -2.3440  H       1  <O>11       0.0618
  45 H17      -1.0914    -7.1685    -2.1131  H       1  <O>11       0.0618
  46 H18      -1.4487    -9.4186    -2.9565  H       1  <O>11       0.0618
  47 H19       0.3589   -10.6309    -4.0329  H       1  <O>11       0.0620
  48 H20       4.5280   -11.7169    -7.8668  H       1  <O>11       0.0652
  49 H21       5.6274   -13.8134    -7.2533  H       1  <O>11       0.0619
  50 H22       6.6418   -13.9964    -5.0323  H       1  <O>11       0.0636
@<TRIPOS>BOND
     1     1     2    2
     2     2     3    1
     3     3     4    1
     4     4     5   ar
     5     5     6   ar
     6     6     7   ar
     7     7     8   ar
     8     8     9   ar
     9     4     9   ar
    10     2    10   am
    11    10    11    1
    12    11    12   ar
    13    12    13   ar
    14    13    14   ar
    15    14    15   ar
    16    15    16    1
    17    16    17    1
    18    17    18   ar
    19    18    19   ar
    20    19    20   ar
    21    20    21    2
    22    20    22   ar
    23    22    23   ar
    24    17    23   ar
    25    23    24    1
    26    24    25    1
    27    25    26    1
    28    26    27    1
    29    22    27    1
    30    15    28   ar
    31    11    28   ar
    32     3    29    1
    33     3    30    1
    34    10    31    1
    35    16    32    1
    36    16    33    1
    37    19    34    1
    38    24    35    1
    39    24    36    1
    40    25    37    1
    41    25    38    1
    42    26    39    1
    43    26    40    1
    44    27    41    1
    45    27    42    1
    46     5    43    1
    47     6    44    1
    48     7    45    1
    49     8    46    1
    50     9    47    1
    51    12    48    1
    52    13    49    1
    53    14    50    1
@<TRIPOS>MOLECULE
mol82_1_23
 50 53 0 0 0
SMALL
USER_CHARGES
****
VDW energy = -232.14
@<TRIPOS>ATOM
   1 O1        2.8275    -7.9910    -5.9239  O.2     1  <O>11      -0.2751
   2 C1        3.3598    -9.0478    -5.6186  C.2     1  <O>11       0.2226
   3 C2        2.8830    -9.8060    -4.4250  C.3     1  <O>11       0.0495
   4 C3        1.7690    -9.0740    -3.7900  C.ar    1  <O>11      -0.0386
   5 C4        2.0478    -8.1330    -2.7961  C.ar    1  <O>11      -0.0581
   6 C5        0.9963    -7.4453    -2.1818  C.ar    1  <O>11      -0.0615
   7 C6       -0.3247    -7.6940    -2.5618  C.ar    1  <O>11      -0.0617
   8 C7       -0.5876    -8.6354    -3.5629  C.ar    1  <O>11      -0.0615
   9 C8        0.4541    -9.3262    -4.1843  C.ar    1  <O>11      -0.0581
  10 N1        4.3940    -9.5360    -6.3720  N.am    1  <O>11      -0.2701
  11 C9        4.8390    -8.8270    -7.4880  C.ar    1  <O>11       0.1252
  12 C10       4.7884    -9.4422    -8.7673  C.ar    1  <O>11      -0.0215
  13 C11       5.2260    -8.7245    -9.8772  C.ar    1  <O>11      -0.0568
  14 C12       5.7226    -7.4299    -9.6791  C.ar    1  <O>11      -0.0399
  15 C13       5.7433    -6.8892    -8.3944  C.ar    1  <O>11       0.0492
  16 C14       6.2511    -5.5251    -8.1454  C.3     1  <O>11       0.0340
  17 C15       5.1731    -4.6961    -7.5465  C.ar    1  <O>11       0.0708
  18 N2        5.3500    -4.1275    -6.2908  N.ar    1  <O>11      -0.1753
  19 N3        4.3717    -3.3675    -5.7376  N.ar    1  <O>11      -0.2427
  20 C16       3.2176    -3.1724    -6.4093  C.ar    1  <O>11       0.2682
  21 O2        2.2501    -2.3610    -5.7882  O.2     1  <O>11      -0.2661
  22 C17       2.9583    -3.7323    -7.6585  C.ar    1  <O>11       0.0232
  23 C18       3.9842    -4.4912    -8.2449  C.ar    1  <O>11      -0.0157
  24 C19       3.8310    -5.1508    -9.5882  C.3     1  <O>11      -0.0255
  25 C20       2.6757    -4.5778   -10.4076  C.3     1  <O>11      -0.0487
  26 C21       1.4262    -4.4686    -9.5482  C.3     1  <O>11      -0.0486
  27 C22       1.6581    -3.5055    -8.3836  C.3     1  <O>11      -0.0222
  28 N4        5.3072    -7.5780    -7.3283  N.ar    1  <O>11      -0.2364
  29 H1        2.5400   -10.7930    -4.7350  H       1  <O>11       0.0407
  30 H2        3.7010    -9.9130    -3.7120  H       1  <O>11       0.0407
  31 H3        4.8380   -10.4180    -6.1170  H       1  <O>11       0.1562
  32 H4        6.5723    -5.0804    -9.0870  H       1  <O>11       0.0392
  33 H5        7.0973    -5.5717    -7.4598  H       1  <O>11       0.0392
  34 H6        4.5136    -2.9531    -4.8278  H       1  <O>11       0.1921
  35 H7        4.7552    -5.0154   -10.1487  H       1  <O>11       0.0314
  36 H8        3.6522    -6.2149    -9.4321  H       1  <O>11       0.0314
  37 H9        2.9494    -3.5887   -10.7731  H       1  <O>11       0.0268
  38 H10       2.4745    -5.2364   -11.2535  H       1  <O>11       0.0268
  39 H11       0.6008    -4.0994   -10.1595  H       1  <O>11       0.0269
  40 H12       1.1730    -5.4532    -9.1540  H       1  <O>11       0.0269
  41 H13       1.6533    -2.4872    -8.7742  H       1  <O>11       0.0315
  42 H14       0.8416    -3.6256    -7.6703  H       1  <O>11       0.0315
  43 H15       3.0236    -7.9463    -2.5170  H       1  <O>11       0.0620
  44 H16       1.1971    -6.7514    -1.4447  H       1  <O>11       0.0618
  45 H17      -1.1007    -7.1873    -2.1077  H       1  <O>11       0.0618
  46 H18      -1.5627    -8.8212    -3.8451  H       1  <O>11       0.0618
  47 H19       0.2543   -10.0150    -4.9264  H       1  <O>11       0.0620
  48 H20       4.4331   -10.4054    -8.8723  H       1  <O>11       0.0652
  49 H21       5.1855    -9.1363   -10.8226  H       1  <O>11       0.0619
  50 H22       6.0712    -6.8795   -10.4796  H       1  <O>11       0.0636
@<TRIPOS>BOND
     1     1     2    2
     2     2     3    1
     3     3     4    1
     4     4     5   ar
     5     5     6   ar
     6     6     7   ar
     7     7     8   ar
     8     8     9   ar
     9     4     9   ar
    10     2    10   am
    11    10    11    1
    12    11    12   ar
    13    12    13   ar
    14    13    14   ar
    15    14    15   ar
    16    15    16    1
    17    16    17    1
    18    17    18   ar
    19    18    19   ar
    20    19    20   ar
    21    20    21    2
    22    20    22   ar
    23    22    23   ar
    24    17    23   ar
    25    23    24    1
    26    24    25    1
    27    25    26    1
    28    26    27    1
    29    22    27    1
    30    15    28   ar
    31    11    28   ar
    32     3    29    1
    33     3    30    1
    34    10    31    1
    35    16    32    1
    36    16    33    1
    37    19    34    1
    38    24    35    1
    39    24    36    1
    40    25    37    1
    41    25    38    1
    42    26    39    1
    43    26    40    1
    44    27    41    1
    45    27    42    1
    46     5    43    1
    47     6    44    1
    48     7    45    1
    49     8    46    1
    50     9    47    1
    51    12    48    1
    52    13    49    1
    53    14    50    1
@<TRIPOS>MOLECULE
mol82_1_24
 50 53 0 0 0
SMALL
USER_CHARGES
****
VDW energy = -231.09
@<TRIPOS>ATOM
   1 O1        2.8275    -7.9910    -5.9239  O.2     1  <O>11      -0.2751
   2 C1        3.3598    -9.0478    -5.6186  C.2     1  <O>11       0.2226
   3 C2        2.8830    -9.8060    -4.4250  C.3     1  <O>11       0.0495
   4 C3        1.7690    -9.0740    -3.7900  C.ar    1  <O>11      -0.0386
   5 C4        1.9854    -7.7788    -3.3140  C.ar    1  <O>11      -0.0581
   6 C5        0.9378    -7.0847    -2.7001  C.ar    1  <O>11      -0.0615
   7 C6       -0.3187    -7.6803    -2.5671  C.ar    1  <O>11      -0.0617
   8 C7       -0.5214    -8.9762    -3.0540  C.ar    1  <O>11      -0.0615
   9 C8        0.5162    -9.6776    -3.6702  C.ar    1  <O>11      -0.0581
  10 N1        4.3940    -9.5360    -6.3720  N.am    1  <O>11      -0.2701
  11 C9        5.0018   -10.7423    -6.0234  C.ar    1  <O>11       0.1252
  12 C10       4.9878   -11.8200    -6.9486  C.ar    1  <O>11      -0.0215
  13 C11       5.6044   -13.0176    -6.5967  C.ar    1  <O>11      -0.0568
  14 C12       6.1928   -13.1158    -5.3293  C.ar    1  <O>11      -0.0399
  15 C13       6.1684   -12.0172    -4.4716  C.ar    1  <O>11       0.0492
  16 C14       6.7848   -12.0780    -3.1311  C.3     1  <O>11       0.0340
  17 C15       7.8499   -11.0470    -3.0277  C.ar    1  <O>11       0.0708
  18 N2        7.7613   -10.0506    -2.0629  N.ar    1  <O>11      -0.1753
  19 N3        8.7305    -9.1067    -1.9602  N.ar    1  <O>11      -0.2427
  20 C16       9.7804    -9.1330    -2.8076  C.ar    1  <O>11       0.2682
  21 O2       10.7592    -8.1362    -2.6380  O.2     1  <O>11      -0.2661
  22 C17       9.9228   -10.0836    -3.8162  C.ar    1  <O>11       0.0232
  23 C18       8.9364   -11.0798    -3.9004  C.ar    1  <O>11      -0.0157
  24 C19       8.9719   -12.1621    -4.9445  C.3     1  <O>11      -0.0255
  25 C20      10.3467   -12.3248    -5.5909  C.3     1  <O>11      -0.0487
  26 C21      10.9039   -10.9671    -5.9881  C.3     1  <O>11      -0.0486
  27 C22      11.1007   -10.0857    -4.7544  C.3     1  <O>11      -0.0222
  28 N4        5.5860   -10.8592    -4.8194  N.ar    1  <O>11      -0.2364
  29 H1        2.5400   -10.7930    -4.7350  H       1  <O>11       0.0407
  30 H2        3.7010    -9.9130    -3.7120  H       1  <O>11       0.0407
  31 H3        4.7196    -9.0170    -7.1873  H       1  <O>11       0.1562
  32 H4        7.2176   -13.0659    -2.9756  H       1  <O>11       0.0392
  33 H5        6.0243   -11.8924    -2.3725  H       1  <O>11       0.0392
  34 H6        8.6599    -8.3916    -1.2509  H       1  <O>11       0.1921
  35 H7        8.6943   -13.1055    -4.4760  H       1  <O>11       0.0314
  36 H8        8.2491   -11.9153    -5.7225  H       1  <O>11       0.0314
  37 H9       11.0241   -12.7991    -4.8816  H       1  <O>11       0.0268
  38 H10      10.2535   -12.9499    -6.4799  H       1  <O>11       0.0268
  39 H11      11.8649   -11.1050    -6.4869  H       1  <O>11       0.0269
  40 H12      10.2084   -10.4780    -6.6707  H       1  <O>11       0.0269
  41 H13      11.9748   -10.4463    -4.2109  H       1  <O>11       0.0315
  42 H14      11.2761    -9.0620    -5.0877  H       1  <O>11       0.0315
  43 H15       2.9124    -7.3368    -3.4147  H       1  <O>11       0.0620
  44 H16       1.0937    -6.1287    -2.3440  H       1  <O>11       0.0618
  45 H17      -1.0914    -7.1685    -2.1131  H       1  <O>11       0.0618
  46 H18      -1.4487    -9.4186    -2.9565  H       1  <O>11       0.0618
  47 H19       0.3589   -10.6309    -4.0329  H       1  <O>11       0.0620
  48 H20       4.5280   -11.7169    -7.8668  H       1  <O>11       0.0652
  49 H21       5.6274   -13.8134    -7.2533  H       1  <O>11       0.0619
  50 H22       6.6418   -13.9964    -5.0323  H       1  <O>11       0.0636
@<TRIPOS>BOND
     1     1     2    2
     2     2     3    1
     3     3     4    1
     4     4     5   ar
     5     5     6   ar
     6     6     7   ar
     7     7     8   ar
     8     8     9   ar
     9     4     9   ar
    10     2    10   am
    11    10    11    1
    12    11    12   ar
    13    12    13   ar
    14    13    14   ar
    15    14    15   ar
    16    15    16    1
    17    16    17    1
    18    17    18   ar
    19    18    19   ar
    20    19    20   ar
    21    20    21    2
    22    20    22   ar
    23    22    23   ar
    24    17    23   ar
    25    23    24    1
    26    24    25    1
    27    25    26    1
    28    26    27    1
    29    22    27    1
    30    15    28   ar
    31    11    28   ar
    32     3    29    1
    33     3    30    1
    34    10    31    1
    35    16    32    1
    36    16    33    1
    37    19    34    1
    38    24    35    1
    39    24    36    1
    40    25    37    1
    41    25    38    1
    42    26    39    1
    43    26    40    1
    44    27    41    1
    45    27    42    1
    46     5    43    1
    47     6    44    1
    48     7    45    1
    49     8    46    1
    50     9    47    1
    51    12    48    1
    52    13    49    1
    53    14    50    1
@<TRIPOS>MOLECULE
mol82_1_25
 50 53 0 0 0
SMALL
USER_CHARGES
****
VDW energy = -229.73
@<TRIPOS>ATOM
   1 O1        2.8275    -7.9910    -5.9239  O.2     1  <O>11      -0.2751
   2 C1        3.3598    -9.0478    -5.6186  C.2     1  <O>11       0.2226
   3 C2        2.8830    -9.8060    -4.4250  C.3     1  <O>11       0.0495
   4 C3        4.0421   -10.3715    -3.7061  C.ar    1  <O>11      -0.0386
   5 C4        5.0201    -9.5110    -3.2021  C.ar    1  <O>11      -0.0581
   6 C5        6.1269   -10.0409    -2.5312  C.ar    1  <O>11      -0.0615
   7 C6        6.2527   -11.4218    -2.3619  C.ar    1  <O>11      -0.0617
   8 C7        5.2619   -12.2705    -2.8675  C.ar    1  <O>11      -0.0615
   9 C8        4.1519   -11.7526    -3.5370  C.ar    1  <O>11      -0.0581
  10 N1        4.3940    -9.5360    -6.3720  N.am    1  <O>11      -0.2701
  11 C9        4.8390    -8.8270    -7.4880  C.ar    1  <O>11       0.1252
  12 C10       6.1859    -8.3783    -7.5342  C.ar    1  <O>11      -0.0215
  13 C11       6.6246    -7.6793    -8.6555  C.ar    1  <O>11      -0.0568
  14 C12       5.7070    -7.4262    -9.6831  C.ar    1  <O>11      -0.0399
  15 C13       4.3995    -7.8963    -9.5701  C.ar    1  <O>11       0.0492
  16 C14       3.4048    -7.6576   -10.6352  C.3     1  <O>11       0.0340
  17 C15       3.4465    -8.7762   -11.6125  C.ar    1  <O>11       0.0708
  18 N2        2.6383    -9.8915   -11.4270  N.ar    1  <O>11      -0.1753
  19 N3        2.6685   -10.9163   -12.3157  N.ar    1  <O>11      -0.2427
  20 C16       3.4963   -10.8531   -13.3796  C.ar    1  <O>11       0.2682
  21 O2        3.4680   -11.9405   -14.2724  O.2     1  <O>11      -0.2661
  22 C17       4.3542    -9.7810   -13.6158  C.ar    1  <O>11       0.0232
  23 C18       4.2981    -8.7060   -12.7139  C.ar    1  <O>11      -0.0157
  24 C19       5.1725    -7.4901   -12.8546  C.3     1  <O>11      -0.0255
  25 C20       5.7794    -7.3480   -14.2496  C.3     1  <O>11      -0.0487
  26 C21       6.3673    -8.6746   -14.7038  C.3     1  <O>11      -0.0486
  27 C22       5.2745    -9.7389   -14.8070  C.3     1  <O>11      -0.0222
  28 N4        3.9834    -8.5827    -8.4945  N.ar    1  <O>11      -0.2364
  29 H1        2.3364    -9.1346    -3.7629  H       1  <O>11       0.0407
  30 H2        2.2253   -10.6140    -4.7468  H       1  <O>11       0.0407
  31 H3        4.8380   -10.4180    -6.1170  H       1  <O>11       0.1562
  32 H4        3.6351    -6.7214   -11.1429  H       1  <O>11       0.0392
  33 H5        2.4092    -7.5957   -10.1956  H       1  <O>11       0.0392
  34 H6        2.0718   -11.7186   -12.1753  H       1  <O>11       0.1921
  35 H7        4.5729    -6.6052   -12.6448  H       1  <O>11       0.0314
  36 H8        5.9828    -7.5614   -12.1287  H       1  <O>11       0.0314
  37 H9        5.0042    -7.0387   -14.9497  H       1  <O>11       0.0268
  38 H10       6.5681    -6.5950   -14.2228  H       1  <O>11       0.0268
  39 H11       6.8344    -8.5447   -15.6816  H       1  <O>11       0.0269
  40 H12       7.1185    -9.0010   -13.9839  H       1  <O>11       0.0269
  41 H13       4.6785    -9.5336   -15.6970  H       1  <O>11       0.0315
  42 H14       5.7527   -10.7142   -14.9061  H       1  <O>11       0.0315
  43 H15       4.9264    -8.4905    -3.3238  H       1  <O>11       0.0620
  44 H16       6.8536    -9.4093    -2.1597  H       1  <O>11       0.0618
  45 H17       7.0699   -11.8129    -1.8678  H       1  <O>11       0.0618
  46 H18       5.3528   -13.2910    -2.7442  H       1  <O>11       0.0618
  47 H19       3.4214   -12.3833    -3.9024  H       1  <O>11       0.0620
  48 H20       6.8288    -8.5674    -6.7494  H       1  <O>11       0.0652
  49 H21       7.6018    -7.3555    -8.7277  H       1  <O>11       0.0619
  50 H22       5.9971    -6.8949   -10.5189  H       1  <O>11       0.0636
@<TRIPOS>BOND
     1     1     2    2
     2     2     3    1
     3     3     4    1
     4     4     5   ar
     5     5     6   ar
     6     6     7   ar
     7     7     8   ar
     8     8     9   ar
     9     4     9   ar
    10     2    10   am
    11    10    11    1
    12    11    12   ar
    13    12    13   ar
    14    13    14   ar
    15    14    15   ar
    16    15    16    1
    17    16    17    1
    18    17    18   ar
    19    18    19   ar
    20    19    20   ar
    21    20    21    2
    22    20    22   ar
    23    22    23   ar
    24    17    23   ar
    25    23    24    1
    26    24    25    1
    27    25    26    1
    28    26    27    1
    29    22    27    1
    30    15    28   ar
    31    11    28   ar
    32     3    29    1
    33     3    30    1
    34    10    31    1
    35    16    32    1
    36    16    33    1
    37    19    34    1
    38    24    35    1
    39    24    36    1
    40    25    37    1
    41    25    38    1
    42    26    39    1
    43    26    40    1
    44    27    41    1
    45    27    42    1
    46     5    43    1
    47     6    44    1
    48     7    45    1
    49     8    46    1
    50     9    47    1
    51    12    48    1
    52    13    49    1
    53    14    50    1
@<TRIPOS>MOLECULE
mol82_1_26
 50 53 0 0 0
SMALL
USER_CHARGES
****
VDW energy = -228.14
@<TRIPOS>ATOM
   1 O1        2.8275    -7.9910    -5.9239  O.2     1  <O>11      -0.2751
   2 C1        3.3598    -9.0478    -5.6186  C.2     1  <O>11       0.2226
   3 C2        2.8830    -9.8060    -4.4250  C.3     1  <O>11       0.0495
   4 C3        1.7690    -9.0740    -3.7900  C.ar    1  <O>11      -0.0386
   5 C4        0.6091    -8.8216    -4.5262  C.ar    1  <O>11      -0.0581
   6 C5       -0.4448    -8.1177    -3.9347  C.ar    1  <O>11      -0.0615
   7 C6       -0.3410    -7.6730    -2.6146  C.ar    1  <O>11      -0.0617
   8 C7        0.8249    -7.9385    -1.8882  C.ar    1  <O>11      -0.0615
   9 C8        1.8822    -8.6419    -2.4676  C.ar    1  <O>11      -0.0581
  10 N1        4.3940    -9.5360    -6.3720  N.am    1  <O>11      -0.2701
  11 C9        4.8390    -8.8270    -7.4880  C.ar    1  <O>11       0.1252
  12 C10       6.1859    -8.3783    -7.5342  C.ar    1  <O>11      -0.0215
  13 C11       6.6246    -7.6793    -8.6555  C.ar    1  <O>11      -0.0568
  14 C12       5.7070    -7.4262    -9.6831  C.ar    1  <O>11      -0.0399
  15 C13       4.3995    -7.8963    -9.5701  C.ar    1  <O>11       0.0492
  16 C14       3.4048    -7.6576   -10.6352  C.3     1  <O>11       0.0340
  17 C15       3.4465    -8.7762   -11.6125  C.ar    1  <O>11       0.0708
  18 N2        2.6383    -9.8915   -11.4270  N.ar    1  <O>11      -0.1753
  19 N3        2.6685   -10.9163   -12.3157  N.ar    1  <O>11      -0.2427
  20 C16       3.4963   -10.8531   -13.3796  C.ar    1  <O>11       0.2682
  21 O2        3.4680   -11.9405   -14.2724  O.2     1  <O>11      -0.2661
  22 C17       4.3542    -9.7810   -13.6158  C.ar    1  <O>11       0.0232
  23 C18       4.2981    -8.7060   -12.7139  C.ar    1  <O>11      -0.0157
  24 C19       5.1725    -7.4901   -12.8546  C.3     1  <O>11      -0.0255
  25 C20       5.7794    -7.3480   -14.2496  C.3     1  <O>11      -0.0487
  26 C21       6.3673    -8.6746   -14.7038  C.3     1  <O>11      -0.0486
  27 C22       5.2745    -9.7389   -14.8070  C.3     1  <O>11      -0.0222
  28 N4        3.9834    -8.5827    -8.4945  N.ar    1  <O>11      -0.2364
  29 H1        2.5400   -10.7930    -4.7350  H       1  <O>11       0.0407
  30 H2        3.7010    -9.9130    -3.7120  H       1  <O>11       0.0407
  31 H3        4.8380   -10.4180    -6.1170  H       1  <O>11       0.1562
  32 H4        3.6351    -6.7214   -11.1429  H       1  <O>11       0.0392
  33 H5        2.4092    -7.5957   -10.1956  H       1  <O>11       0.0392
  34 H6        2.0718   -11.7186   -12.1753  H       1  <O>11       0.1921
  35 H7        4.5729    -6.6052   -12.6448  H       1  <O>11       0.0314
  36 H8        5.9828    -7.5614   -12.1287  H       1  <O>11       0.0314
  37 H9        5.0042    -7.0387   -14.9497  H       1  <O>11       0.0268
  38 H10       6.5681    -6.5950   -14.2228  H       1  <O>11       0.0268
  39 H11       6.8344    -8.5447   -15.6816  H       1  <O>11       0.0269
  40 H12       7.1185    -9.0010   -13.9839  H       1  <O>11       0.0269
  41 H13       4.6785    -9.5336   -15.6970  H       1  <O>11       0.0315
  42 H14       5.7527   -10.7142   -14.9061  H       1  <O>11       0.0315
  43 H15       0.5303    -9.1526    -5.5005  H       1  <O>11       0.0620
  44 H16      -1.3025    -7.9262    -4.4757  H       1  <O>11       0.0618
  45 H17      -1.1183    -7.1527    -2.1785  H       1  <O>11       0.0618
  46 H18       0.9041    -7.6106    -0.9129  H       1  <O>11       0.0618
  47 H19       2.7373    -8.8399    -1.9249  H       1  <O>11       0.0620
  48 H20       6.8288    -8.5674    -6.7494  H       1  <O>11       0.0652
  49 H21       7.6018    -7.3555    -8.7277  H       1  <O>11       0.0619
  50 H22       5.9971    -6.8949   -10.5189  H       1  <O>11       0.0636
@<TRIPOS>BOND
     1     1     2    2
     2     2     3    1
     3     3     4    1
     4     4     5   ar
     5     5     6   ar
     6     6     7   ar
     7     7     8   ar
     8     8     9   ar
     9     4     9   ar
    10     2    10   am
    11    10    11    1
    12    11    12   ar
    13    12    13   ar
    14    13    14   ar
    15    14    15   ar
    16    15    16    1
    17    16    17    1
    18    17    18   ar
    19    18    19   ar
    20    19    20   ar
    21    20    21    2
    22    20    22   ar
    23    22    23   ar
    24    17    23   ar
    25    23    24    1
    26    24    25    1
    27    25    26    1
    28    26    27    1
    29    22    27    1
    30    15    28   ar
    31    11    28   ar
    32     3    29    1
    33     3    30    1
    34    10    31    1
    35    16    32    1
    36    16    33    1
    37    19    34    1
    38    24    35    1
    39    24    36    1
    40    25    37    1
    41    25    38    1
    42    26    39    1
    43    26    40    1
    44    27    41    1
    45    27    42    1
    46     5    43    1
    47     6    44    1
    48     7    45    1
    49     8    46    1
    50     9    47    1
    51    12    48    1
    52    13    49    1
    53    14    50    1
@<TRIPOS>MOLECULE
mol82_1_27
 50 53 0 0 0
SMALL
USER_CHARGES
****
VDW energy = -212.04
@<TRIPOS>ATOM
   1 O1        2.8275    -7.9910    -5.9239  O.2     1  <O>11      -0.2751
   2 C1        3.3598    -9.0478    -5.6186  C.2     1  <O>11       0.2226
   3 C2        2.8830    -9.8060    -4.4250  C.3     1  <O>11       0.0495
   4 C3        1.7690    -9.0740    -3.7900  C.ar    1  <O>11      -0.0386
   5 C4        2.0478    -8.1330    -2.7961  C.ar    1  <O>11      -0.0581
   6 C5        0.9963    -7.4453    -2.1818  C.ar    1  <O>11      -0.0615
   7 C6       -0.3247    -7.6940    -2.5618  C.ar    1  <O>11      -0.0617
   8 C7       -0.5876    -8.6354    -3.5629  C.ar    1  <O>11      -0.0615
   9 C8        0.4541    -9.3262    -4.1843  C.ar    1  <O>11      -0.0581
  10 N1        4.3940    -9.5360    -6.3720  N.am    1  <O>11      -0.2701
  11 C9        4.8390    -8.8270    -7.4880  C.ar    1  <O>11       0.1252
  12 C10       4.2080    -7.6010    -7.8290  C.ar    1  <O>11      -0.0215
  13 C11       4.6640    -6.8950    -8.9390  C.ar    1  <O>11      -0.0568
  14 C12       5.7140    -7.4400    -9.6890  C.ar    1  <O>11      -0.0399
  15 C13       6.2860    -8.6490    -9.2960  C.ar    1  <O>11       0.0492
  16 C14       7.4000    -9.2520   -10.0550  C.3     1  <O>11       0.0340
  17 C15       8.5850    -9.3922    -9.1695  C.ar    1  <O>11       0.0708
  18 N2        8.5165    -8.9750    -7.8456  N.ar    1  <O>11      -0.1753
  19 N3        9.5931    -9.1013    -7.0296  N.ar    1  <O>11      -0.2427
  20 C16      10.7385    -9.6269    -7.5123  C.ar    1  <O>11       0.2682
  21 O2       11.8125    -9.7459    -6.6109  O.2     1  <O>11      -0.2661
  22 C17      10.8901   -10.0410    -8.8339  C.ar    1  <O>11       0.0232
  23 C18       9.7652    -9.9408    -9.6688  C.ar    1  <O>11      -0.0157
  24 C19       9.7969   -10.3514   -11.1156  C.3     1  <O>11      -0.0255
  25 C20      10.9816   -11.2545   -11.4552  C.3     1  <O>11      -0.0487
  26 C21      12.2637   -10.6788   -10.8752  C.3     1  <O>11      -0.0486
  27 C22      12.1824   -10.6168    -9.3497  C.3     1  <O>11      -0.0222
  28 N4        5.8540    -9.3200    -8.2170  N.ar    1  <O>11      -0.2364
  29 H1        2.5400   -10.7930    -4.7350  H       1  <O>11       0.0407
  30 H2        3.7010    -9.9130    -3.7120  H       1  <O>11       0.0407
  31 H3        4.8380   -10.4180    -6.1170  H       1  <O>11       0.1562
  32 H4        7.6507    -8.6120   -10.9006  H       1  <O>11       0.0392
  33 H5        7.1010   -10.2345   -10.4206  H       1  <O>11       0.0392
  34 H6        9.5301    -8.8017    -6.0675  H       1  <O>11       0.1921
  35 H7        8.8757   -10.8857   -11.3450  H       1  <O>11       0.0314
  36 H8        9.8586    -9.4521   -11.7287  H       1  <O>11       0.0314
  37 H9       10.8100   -12.2458   -11.0371  H       1  <O>11       0.0268
  38 H10      11.0778   -11.3277   -12.5392  H       1  <O>11       0.0268
  39 H11      13.1047   -11.3119   -11.1637  H       1  <O>11       0.0269
  40 H12      12.4163    -9.6728   -11.2671  H       1  <O>11       0.0269
  41 H13      12.2899   -11.6293    -8.9589  H       1  <O>11       0.0315
  42 H14      13.0035    -9.9974    -8.9865  H       1  <O>11       0.0315
  43 H15       3.0236    -7.9463    -2.5170  H       1  <O>11       0.0620
  44 H16       1.1971    -6.7514    -1.4447  H       1  <O>11       0.0618
  45 H17      -1.1007    -7.1873    -2.1077  H       1  <O>11       0.0618
  46 H18      -1.5627    -8.8212    -3.8451  H       1  <O>11       0.0618
  47 H19       0.2543   -10.0150    -4.9264  H       1  <O>11       0.0620
  48 H20       3.4243    -7.2394    -7.2632  H       1  <O>11       0.0652
  49 H21       4.2389    -5.9924    -9.2027  H       1  <O>11       0.0619
  50 H22       6.0621    -6.9494   -10.5276  H       1  <O>11       0.0636
@<TRIPOS>BOND
     1     1     2    2
     2     2     3    1
     3     3     4    1
     4     4     5   ar
     5     5     6   ar
     6     6     7   ar
     7     7     8   ar
     8     8     9   ar
     9     4     9   ar
    10     2    10   am
    11    10    11    1
    12    11    12   ar
    13    12    13   ar
    14    13    14   ar
    15    14    15   ar
    16    15    16    1
    17    16    17    1
    18    17    18   ar
    19    18    19   ar
    20    19    20   ar
    21    20    21    2
    22    20    22   ar
    23    22    23   ar
    24    17    23   ar
    25    23    24    1
    26    24    25    1
    27    25    26    1
    28    26    27    1
    29    22    27    1
    30    15    28   ar
    31    11    28   ar
    32     3    29    1
    33     3    30    1
    34    10    31    1
    35    16    32    1
    36    16    33    1
    37    19    34    1
    38    24    35    1
    39    24    36    1
    40    25    37    1
    41    25    38    1
    42    26    39    1
    43    26    40    1
    44    27    41    1
    45    27    42    1
    46     5    43    1
    47     6    44    1
    48     7    45    1
    49     8    46    1
    50     9    47    1
    51    12    48    1
    52    13    49    1
    53    14    50    1
@<TRIPOS>MOLECULE
mol82_1_28
 50 53 0 0 0
SMALL
USER_CHARGES
****
VDW energy = -207.70
@<TRIPOS>ATOM
   1 O1        2.8275    -7.9910    -5.9239  O.2     1  <O>11      -0.2751
   2 C1        3.3598    -9.0478    -5.6186  C.2     1  <O>11       0.2226
   3 C2        2.8830    -9.8060    -4.4250  C.3     1  <O>11       0.0495
   4 C3        1.7690    -9.0740    -3.7900  C.ar    1  <O>11      -0.0386
   5 C4        2.0478    -8.1330    -2.7961  C.ar    1  <O>11      -0.0581
   6 C5        0.9963    -7.4453    -2.1818  C.ar    1  <O>11      -0.0615
   7 C6       -0.3247    -7.6940    -2.5618  C.ar    1  <O>11      -0.0617
   8 C7       -0.5876    -8.6354    -3.5629  C.ar    1  <O>11      -0.0615
   9 C8        0.4541    -9.3262    -4.1843  C.ar    1  <O>11      -0.0581
  10 N1        4.3940    -9.5360    -6.3720  N.am    1  <O>11      -0.2701
  11 C9        4.8390    -8.8270    -7.4880  C.ar    1  <O>11       0.1252
  12 C10       4.2080    -7.6010    -7.8290  C.ar    1  <O>11      -0.0215
  13 C11       4.6640    -6.8950    -8.9390  C.ar    1  <O>11      -0.0568
  14 C12       5.7140    -7.4400    -9.6890  C.ar    1  <O>11      -0.0399
  15 C13       6.2860    -8.6490    -9.2960  C.ar    1  <O>11       0.0492
  16 C14       7.4000    -9.2520   -10.0550  C.3     1  <O>11       0.0340
  17 C15       8.5850    -9.3922    -9.1695  C.ar    1  <O>11       0.0708
  18 N2        9.1271   -10.6488    -8.9277  N.ar    1  <O>11      -0.1753
  19 N3       10.2102   -10.7855    -8.1222  N.ar    1  <O>11      -0.2427
  20 C16      10.7561    -9.6938    -7.5465  C.ar    1  <O>11       0.2682
  21 O2       11.8874    -9.9014    -6.7357  O.2     1  <O>11      -0.2661
  22 C17      10.2512    -8.4070    -7.7203  C.ar    1  <O>11       0.0232
  23 C18       9.1506    -8.2623    -8.5807  C.ar    1  <O>11      -0.0157
  24 C19       8.5101    -6.9285    -8.8518  C.3     1  <O>11      -0.0255
  25 C20       9.4016    -5.7481    -8.4691  C.3     1  <O>11      -0.0487
  26 C21       9.9876    -5.9608    -7.0824  C.3     1  <O>11      -0.0486
  27 C22      10.8745    -7.2060    -7.0595  C.3     1  <O>11      -0.0222
  28 N4        5.8540    -9.3200    -8.2170  N.ar    1  <O>11      -0.2364
  29 H1        2.5400   -10.7930    -4.7350  H       1  <O>11       0.0407
  30 H2        3.7010    -9.9130    -3.7120  H       1  <O>11       0.0407
  31 H3        4.8380   -10.4180    -6.1170  H       1  <O>11       0.1562
  32 H4        7.6507    -8.6120   -10.9006  H       1  <O>11       0.0392
  33 H5        7.1010   -10.2345   -10.4206  H       1  <O>11       0.0392
  34 H6       10.6005   -11.7024    -7.9591  H       1  <O>11       0.1921
  35 H7        8.2832    -6.8622    -9.9152  H       1  <O>11       0.0314
  36 H8        7.5855    -6.8662    -8.2775  H       1  <O>11       0.0314
  37 H9       10.2110    -5.6589    -9.1928  H       1  <O>11       0.0268
  38 H10       8.8071    -4.8336    -8.4725  H       1  <O>11       0.0268
  39 H11      10.5854    -5.0900    -6.8074  H       1  <O>11       0.0269
  40 H12       9.1768    -6.0851    -6.3640  H       1  <O>11       0.0269
  41 H13      11.8067    -6.9727    -7.5752  H       1  <O>11       0.0315
  42 H14      11.0869    -7.4577    -6.0196  H       1  <O>11       0.0315
  43 H15       3.0236    -7.9463    -2.5170  H       1  <O>11       0.0620
  44 H16       1.1971    -6.7514    -1.4447  H       1  <O>11       0.0618
  45 H17      -1.1007    -7.1873    -2.1077  H       1  <O>11       0.0618
  46 H18      -1.5627    -8.8212    -3.8451  H       1  <O>11       0.0618
  47 H19       0.2543   -10.0150    -4.9264  H       1  <O>11       0.0620
  48 H20       3.4243    -7.2394    -7.2632  H       1  <O>11       0.0652
  49 H21       4.2389    -5.9924    -9.2027  H       1  <O>11       0.0619
  50 H22       6.0621    -6.9494   -10.5276  H       1  <O>11       0.0636
@<TRIPOS>BOND
     1     1     2    2
     2     2     3    1
     3     3     4    1
     4     4     5   ar
     5     5     6   ar
     6     6     7   ar
     7     7     8   ar
     8     8     9   ar
     9     4     9   ar
    10     2    10   am
    11    10    11    1
    12    11    12   ar
    13    12    13   ar
    14    13    14   ar
    15    14    15   ar
    16    15    16    1
    17    16    17    1
    18    17    18   ar
    19    18    19   ar
    20    19    20   ar
    21    20    21    2
    22    20    22   ar
    23    22    23   ar
    24    17    23   ar
    25    23    24    1
    26    24    25    1
    27    25    26    1
    28    26    27    1
    29    22    27    1
    30    15    28   ar
    31    11    28   ar
    32     3    29    1
    33     3    30    1
    34    10    31    1
    35    16    32    1
    36    16    33    1
    37    19    34    1
    38    24    35    1
    39    24    36    1
    40    25    37    1
    41    25    38    1
    42    26    39    1
    43    26    40    1
    44    27    41    1
    45    27    42    1
    46     5    43    1
    47     6    44    1
    48     7    45    1
    49     8    46    1
    50     9    47    1
    51    12    48    1
    52    13    49    1
    53    14    50    1
@<TRIPOS>MOLECULE
mol82_1_29
 50 53 0 0 0
SMALL
USER_CHARGES
****
VDW energy = -205.79
@<TRIPOS>ATOM
   1 O1        2.8275    -7.9910    -5.9239  O.2     1  <O>11      -0.2751
   2 C1        3.3598    -9.0478    -5.6186  C.2     1  <O>11       0.2226
   3 C2        2.8830    -9.8060    -4.4250  C.3     1  <O>11       0.0495
   4 C3        2.8824   -11.2510    -4.7281  C.ar    1  <O>11      -0.0386
   5 C4        1.7361   -11.8349    -5.2722  C.ar    1  <O>11      -0.0581
   6 C5        1.7246   -13.2056    -5.5499  C.ar    1  <O>11      -0.0615
   7 C6        2.8533   -13.9862    -5.2892  C.ar    1  <O>11      -0.0617
   8 C7        3.9960   -13.3857    -4.7495  C.ar    1  <O>11      -0.0615
   9 C8        4.0195   -12.0183    -4.4702  C.ar    1  <O>11      -0.0581
  10 N1        4.3940    -9.5360    -6.3720  N.am    1  <O>11      -0.2701
  11 C9        4.8390    -8.8270    -7.4880  C.ar    1  <O>11       0.1252
  12 C10       4.2080    -7.6010    -7.8290  C.ar    1  <O>11      -0.0215
  13 C11       4.6640    -6.8950    -8.9390  C.ar    1  <O>11      -0.0568
  14 C12       5.7140    -7.4400    -9.6890  C.ar    1  <O>11      -0.0399
  15 C13       6.2860    -8.6490    -9.2960  C.ar    1  <O>11       0.0492
  16 C14       7.4000    -9.2520   -10.0550  C.3     1  <O>11       0.0340
  17 C15       8.5850    -9.3922    -9.1695  C.ar    1  <O>11       0.0708
  18 N2        9.1271   -10.6488    -8.9277  N.ar    1  <O>11      -0.1753
  19 N3       10.2102   -10.7855    -8.1222  N.ar    1  <O>11      -0.2427
  20 C16      10.7561    -9.6938    -7.5465  C.ar    1  <O>11       0.2682
  21 O2       11.8874    -9.9014    -6.7357  O.2     1  <O>11      -0.2661
  22 C17      10.2512    -8.4070    -7.7203  C.ar    1  <O>11       0.0232
  23 C18       9.1506    -8.2623    -8.5807  C.ar    1  <O>11      -0.0157
  24 C19       8.5101    -6.9285    -8.8518  C.3     1  <O>11      -0.0255
  25 C20       9.4016    -5.7481    -8.4691  C.3     1  <O>11      -0.0487
  26 C21       9.9876    -5.9608    -7.0824  C.3     1  <O>11      -0.0486
  27 C22      10.8745    -7.2060    -7.0595  C.3     1  <O>11      -0.0222
  28 N4        5.8540    -9.3200    -8.2170  N.ar    1  <O>11      -0.2364
  29 H1        3.5463    -9.6113    -3.5824  H       1  <O>11       0.0407
  30 H2        1.8714    -9.4871    -4.1723  H       1  <O>11       0.0407
  31 H3        4.8380   -10.4180    -6.1170  H       1  <O>11       0.1562
  32 H4        7.6507    -8.6120   -10.9006  H       1  <O>11       0.0392
  33 H5        7.1010   -10.2345   -10.4206  H       1  <O>11       0.0392
  34 H6       10.6005   -11.7024    -7.9591  H       1  <O>11       0.1921
  35 H7        8.2832    -6.8622    -9.9152  H       1  <O>11       0.0314
  36 H8        7.5855    -6.8662    -8.2775  H       1  <O>11       0.0314
  37 H9       10.2110    -5.6589    -9.1928  H       1  <O>11       0.0268
  38 H10       8.8071    -4.8336    -8.4725  H       1  <O>11       0.0268
  39 H11      10.5854    -5.0900    -6.8074  H       1  <O>11       0.0269
  40 H12       9.1768    -6.0851    -6.3640  H       1  <O>11       0.0269
  41 H13      11.8067    -6.9727    -7.5752  H       1  <O>11       0.0315
  42 H14      11.0869    -7.4577    -6.0196  H       1  <O>11       0.0315
  43 H15       0.9028   -11.2585    -5.4681  H       1  <O>11       0.0620
  44 H16       0.8788   -13.6421    -5.9490  H       1  <O>11       0.0618
  45 H17       2.8444   -14.9978    -5.4932  H       1  <O>11       0.0618
  46 H18       4.8309   -13.9604    -4.5555  H       1  <O>11       0.0618
  47 H19       4.8673   -11.5800    -4.0778  H       1  <O>11       0.0620
  48 H20       3.4243    -7.2394    -7.2632  H       1  <O>11       0.0652
  49 H21       4.2389    -5.9924    -9.2027  H       1  <O>11       0.0619
  50 H22       6.0621    -6.9494   -10.5276  H       1  <O>11       0.0636
@<TRIPOS>BOND
     1     1     2    2
     2     2     3    1
     3     3     4    1
     4     4     5   ar
     5     5     6   ar
     6     6     7   ar
     7     7     8   ar
     8     8     9   ar
     9     4     9   ar
    10     2    10   am
    11    10    11    1
    12    11    12   ar
    13    12    13   ar
    14    13    14   ar
    15    14    15   ar
    16    15    16    1
    17    16    17    1
    18    17    18   ar
    19    18    19   ar
    20    19    20   ar
    21    20    21    2
    22    20    22   ar
    23    22    23   ar
    24    17    23   ar
    25    23    24    1
    26    24    25    1
    27    25    26    1
    28    26    27    1
    29    22    27    1
    30    15    28   ar
    31    11    28   ar
    32     3    29    1
    33     3    30    1
    34    10    31    1
    35    16    32    1
    36    16    33    1
    37    19    34    1
    38    24    35    1
    39    24    36    1
    40    25    37    1
    41    25    38    1
    42    26    39    1
    43    26    40    1
    44    27    41    1
    45    27    42    1
    46     5    43    1
    47     6    44    1
    48     7    45    1
    49     8    46    1
    50     9    47    1
    51    12    48    1
    52    13    49    1
    53    14    50    1
@<TRIPOS>MOLECULE
mol82_1_30
 50 53 0 0 0
SMALL
USER_CHARGES
****
VDW energy = -201.66
@<TRIPOS>ATOM
   1 O1        2.8275    -7.9910    -5.9239  O.2     1  <O>11      -0.2751
   2 C1        3.3598    -9.0478    -5.6186  C.2     1  <O>11       0.2226
   3 C2        2.8830    -9.8060    -4.4250  C.3     1  <O>11       0.0495
   4 C3        1.7690    -9.0740    -3.7900  C.ar    1  <O>11      -0.0386
   5 C4        1.9854    -7.7788    -3.3140  C.ar    1  <O>11      -0.0581
   6 C5        0.9378    -7.0847    -2.7001  C.ar    1  <O>11      -0.0615
   7 C6       -0.3187    -7.6803    -2.5671  C.ar    1  <O>11      -0.0617
   8 C7       -0.5214    -8.9762    -3.0540  C.ar    1  <O>11      -0.0615
   9 C8        0.5162    -9.6776    -3.6702  C.ar    1  <O>11      -0.0581
  10 N1        4.3940    -9.5360    -6.3720  N.am    1  <O>11      -0.2701
  11 C9        4.8390    -8.8270    -7.4880  C.ar    1  <O>11       0.1252
  12 C10       4.2080    -7.6010    -7.8290  C.ar    1  <O>11      -0.0215
  13 C11       4.6640    -6.8950    -8.9390  C.ar    1  <O>11      -0.0568
  14 C12       5.7140    -7.4400    -9.6890  C.ar    1  <O>11      -0.0399
  15 C13       6.2860    -8.6490    -9.2960  C.ar    1  <O>11       0.0492
  16 C14       7.4000    -9.2520   -10.0550  C.3     1  <O>11       0.0340
  17 C15       7.7440    -8.3800   -11.2080  C.ar    1  <O>11       0.0708
  18 N2        8.6932    -7.3756   -11.0608  N.ar    1  <O>11      -0.1753
  19 N3        9.0148    -6.5764   -12.1089  N.ar    1  <O>11      -0.2427
  20 C16       8.4005    -6.7544   -13.2973  C.ar    1  <O>11       0.2682
  21 O2        8.7907    -5.9038   -14.3482  O.2     1  <O>11      -0.2661
  22 C17       7.4205    -7.7212   -13.5119  C.ar    1  <O>11       0.0232
  23 C18       7.1123    -8.5697   -12.4361  C.ar    1  <O>11      -0.0157
  24 C19       6.0725    -9.6521   -12.5362  C.3     1  <O>11      -0.0255
  25 C20       5.7183   -10.0096   -13.9788  C.3     1  <O>11      -0.0487
  26 C21       5.4760    -8.7457   -14.7885  C.3     1  <O>11      -0.0486
  27 C22       6.7442    -7.8937   -14.8463  C.3     1  <O>11      -0.0222
  28 N4        5.8540    -9.3200    -8.2170  N.ar    1  <O>11      -0.2364
  29 H1        2.5400   -10.7930    -4.7350  H       1  <O>11       0.0407
  30 H2        3.7010    -9.9130    -3.7120  H       1  <O>11       0.0407
  31 H3        4.8380   -10.4180    -6.1170  H       1  <O>11       0.1562
  32 H4        7.1010   -10.2350   -10.4180  H       1  <O>11       0.0392
  33 H5        8.2690    -9.3550    -9.4050  H       1  <O>11       0.0392
  34 H6        9.7111    -5.8545   -11.9930  H       1  <O>11       0.1921
  35 H7        6.4518   -10.5447   -12.0401  H       1  <O>11       0.0314
  36 H8        5.1688    -9.3108   -12.0309  H       1  <O>11       0.0314
  37 H9        6.5402   -10.5702   -14.4229  H       1  <O>11       0.0268
  38 H10       4.8147   -10.6204   -13.9857  H       1  <O>11       0.0268
  39 H11       5.1819    -9.0198   -15.8032  H       1  <O>11       0.0269
  40 H12       4.6769    -8.1678   -14.3233  H       1  <O>11       0.0269
  41 H13       7.4468    -8.3703   -15.5308  H       1  <O>11       0.0315
  42 H14       6.4782    -6.9066   -15.2266  H       1  <O>11       0.0315
  43 H15       2.9124    -7.3368    -3.4147  H       1  <O>11       0.0620
  44 H16       1.0937    -6.1287    -2.3440  H       1  <O>11       0.0618
  45 H17      -1.0914    -7.1685    -2.1131  H       1  <O>11       0.0618
  46 H18      -1.4487    -9.4186    -2.9565  H       1  <O>11       0.0618
  47 H19       0.3589   -10.6309    -4.0329  H       1  <O>11       0.0620
  48 H20       3.4243    -7.2394    -7.2632  H       1  <O>11       0.0652
  49 H21       4.2389    -5.9924    -9.2027  H       1  <O>11       0.0619
  50 H22       6.0621    -6.9494   -10.5276  H       1  <O>11       0.0636
@<TRIPOS>BOND
     1     1     2    2
     2     2     3    1
     3     3     4    1
     4     4     5   ar
     5     5     6   ar
     6     6     7   ar
     7     7     8   ar
     8     8     9   ar
     9     4     9   ar
    10     2    10   am
    11    10    11    1
    12    11    12   ar
    13    12    13   ar
    14    13    14   ar
    15    14    15   ar
    16    15    16    1
    17    16    17    1
    18    17    18   ar
    19    18    19   ar
    20    19    20   ar
    21    20    21    2
    22    20    22   ar
    23    22    23   ar
    24    17    23   ar
    25    23    24    1
    26    24    25    1
    27    25    26    1
    28    26    27    1
    29    22    27    1
    30    15    28   ar
    31    11    28   ar
    32     3    29    1
    33     3    30    1
    34    10    31    1
    35    16    32    1
    36    16    33    1
    37    19    34    1
    38    24    35    1
    39    24    36    1
    40    25    37    1
    41    25    38    1
    42    26    39    1
    43    26    40    1
    44    27    41    1
    45    27    42    1
    46     5    43    1
    47     6    44    1
    48     7    45    1
    49     8    46    1
    50     9    47    1
    51    12    48    1
    52    13    49    1
    53    14    50    1
