@<TRIPOS>MOLECULE
mol89_1_1
 43 45 0 0 0
SMALL
USER_CHARGES
****
VDW energy = 163.77
@<TRIPOS>ATOM
   1 O1        3.4420    -9.1855    -5.2979  O.2     1  <O>11      -0.2687
   2 C1        2.8552    -9.8129    -4.4288  C.2     1  <O>11       0.2602
   3 N1        3.5160   -10.1860    -3.2900  N.am    1  <O>11      -0.2301
   4 N2        4.8400    -9.8550    -3.1240  N.am    1  <O>11      -0.2300
   5 C2        5.4899   -10.1922    -1.9686  C.2     1  <O>11       0.2629
   6 O2        4.8939   -10.7882    -1.0839  O.2     1  <O>11      -0.2686
   7 C3        6.8929    -9.8422    -1.7925  C.ar    1  <O>11       0.0733
   8 C4        7.9025   -10.7304    -2.1983  C.ar    1  <O>11      -0.0468
   9 C5        9.2494   -10.3981    -2.0166  C.ar    1  <O>11      -0.0609
  10 C6        9.6015    -9.1780    -1.4340  C.ar    1  <O>11      -0.0590
  11 C7        8.5963    -8.2894    -1.0372  C.ar    1  <O>11      -0.0257
  12 C8        7.2498    -8.6125    -1.2143  C.ar    1  <O>11       0.1355
  13 F1        6.2642    -7.7389    -0.8296  F       1  <O>11      -0.2047
  14 C9        1.4620   -10.1610    -4.6040  C.ar    1  <O>11       0.0400
  15 C10       0.4940    -9.5232    -3.8258  C.ar    1  <O>11      -0.0495
  16 C11      -0.8542    -9.8644    -3.9819  C.ar    1  <O>11      -0.0592
  17 C12      -1.2315   -10.8349    -4.9134  C.ar    1  <O>11      -0.0364
  18 C13      -0.2498   -11.4614    -5.6903  C.ar    1  <O>11       0.0943
  19 S1       -0.7316   -12.6825    -6.8627  S.O2    1  <O>11       0.0252
  20 O3       -2.3556   -12.5382    -7.1760  O.2     1  <O>11      -0.1643
  21 O4       -0.4186   -14.1933    -6.2483  O.2     1  <O>11      -0.1643
  22 C14       0.1815   -12.4544    -8.3610  C.ar    1  <O>11       0.0963
  23 C15      -0.0093   -11.3008    -9.1407  C.ar    1  <O>11      -0.0363
  24 C16       0.7026   -11.1270   -10.3316  C.ar    1  <O>11      -0.0572
  25 C17       1.6157   -12.0985   -10.7535  C.ar    1  <O>11      -0.0263
  26 C18       1.8115   -13.2434    -9.9728  C.ar    1  <O>11       0.1252
  27 F2        2.7095   -14.1926   -10.3902  F       1  <O>11      -0.2054
  28 C19       1.1069   -13.4252    -8.7824  C.ar    1  <O>11      -0.0012
  29 C20       1.0963   -11.1269    -5.5441  C.ar    1  <O>11      -0.0243
  30 H1        3.0270   -10.7100    -2.5640  H       1  <O>11       0.1731
  31 H2        5.3373    -9.3577    -3.8630  H       1  <O>11       0.1731
  32 H3        7.6498   -11.6320    -2.6324  H       1  <O>11       0.0626
  33 H4        9.9858   -11.0570    -2.3140  H       1  <O>11       0.0618
  34 H5       10.5949    -8.9342    -1.2975  H       1  <O>11       0.0618
  35 H6        8.8528    -7.3860    -0.6092  H       1  <O>11       0.0646
  36 H7        0.7711    -8.8042    -3.1393  H       1  <O>11       0.0625
  37 H8       -1.5725    -9.3973    -3.4067  H       1  <O>11       0.0618
  38 H9       -2.2255   -11.0879    -5.0278  H       1  <O>11       0.0637
  39 H10      -0.6785   -10.5780    -8.8325  H       1  <O>11       0.0637
  40 H11       0.5537   -10.2791   -10.9009  H       1  <O>11       0.0619
  41 H12       2.1406   -11.9724   -11.6330  H       1  <O>11       0.0646
  42 H13       1.2648   -14.2708    -8.2123  H       1  <O>11       0.0665
  43 H14       1.8143   -11.5882    -6.1242  H       1  <O>11       0.0644
@<TRIPOS>BOND
     1     1     2    2
     2     2     3   am
     3     3     4    1
     4     4     5   am
     5     5     6    2
     6     5     7    1
     7     7     8   ar
     8     8     9   ar
     9     9    10   ar
    10    10    11   ar
    11    11    12   ar
    12     7    12   ar
    13    12    13    1
    14     2    14    1
    15    14    15   ar
    16    15    16   ar
    17    16    17   ar
    18    17    18   ar
    19    18    19    1
    20    19    20    2
    21    19    21    2
    22    19    22    1
    23    22    23   ar
    24    23    24   ar
    25    24    25   ar
    26    25    26   ar
    27    26    27    1
    28    26    28   ar
    29    22    28   ar
    30    18    29   ar
    31    14    29   ar
    32     3    30    1
    33     4    31    1
    34     8    32    1
    35     9    33    1
    36    10    34    1
    37    11    35    1
    38    15    36    1
    39    16    37    1
    40    17    38    1
    41    23    39    1
    42    24    40    1
    43    25    41    1
    44    28    42    1
    45    29    43    1
@<TRIPOS>MOLECULE
mol89_1_2
 43 45 0 0 0
SMALL
USER_CHARGES
****
VDW energy = 163.88
@<TRIPOS>ATOM
   1 O1        3.4420    -9.1855    -5.2979  O.2     1  <O>11      -0.2687
   2 C1        2.8552    -9.8129    -4.4288  C.2     1  <O>11       0.2602
   3 N1        3.5160   -10.1860    -3.2900  N.am    1  <O>11      -0.2301
   4 N2        4.8400    -9.8550    -3.1240  N.am    1  <O>11      -0.2300
   5 C2        5.4899   -10.1922    -1.9686  C.2     1  <O>11       0.2629
   6 O2        4.8939   -10.7882    -1.0839  O.2     1  <O>11      -0.2686
   7 C3        6.8929    -9.8422    -1.7925  C.ar    1  <O>11       0.0733
   8 C4        7.2530    -8.5725    -1.3117  C.ar    1  <O>11      -0.0468
   9 C5        8.6013    -8.2336    -1.1556  C.ar    1  <O>11      -0.0609
  10 C6        9.6010    -9.1568    -1.4724  C.ar    1  <O>11      -0.0590
  11 C7        9.2427   -10.4245    -1.9435  C.ar    1  <O>11      -0.0257
  12 C8        7.8999   -10.7715    -2.1028  C.ar    1  <O>11       0.1355
  13 F1        7.5485   -12.0164    -2.5602  F       1  <O>11      -0.2047
  14 C9        1.4620   -10.1610    -4.6040  C.ar    1  <O>11       0.0400
  15 C10       0.4940    -9.5232    -3.8258  C.ar    1  <O>11      -0.0495
  16 C11      -0.8542    -9.8644    -3.9819  C.ar    1  <O>11      -0.0592
  17 C12      -1.2315   -10.8349    -4.9134  C.ar    1  <O>11      -0.0364
  18 C13      -0.2498   -11.4614    -5.6903  C.ar    1  <O>11       0.0943
  19 S1       -0.7316   -12.6825    -6.8627  S.O2    1  <O>11       0.0252
  20 O3       -2.3556   -12.5382    -7.1760  O.2     1  <O>11      -0.1643
  21 O4       -0.4186   -14.1933    -6.2483  O.2     1  <O>11      -0.1643
  22 C14       0.1815   -12.4544    -8.3610  C.ar    1  <O>11       0.0963
  23 C15      -0.0093   -11.3008    -9.1407  C.ar    1  <O>11      -0.0363
  24 C16       0.7026   -11.1270   -10.3316  C.ar    1  <O>11      -0.0572
  25 C17       1.6157   -12.0985   -10.7535  C.ar    1  <O>11      -0.0263
  26 C18       1.8115   -13.2434    -9.9728  C.ar    1  <O>11       0.1252
  27 F2        2.7095   -14.1926   -10.3902  F       1  <O>11      -0.2054
  28 C19       1.1069   -13.4252    -8.7824  C.ar    1  <O>11      -0.0012
  29 C20       1.0963   -11.1269    -5.5441  C.ar    1  <O>11      -0.0243
  30 H1        3.0270   -10.7100    -2.5640  H       1  <O>11       0.1731
  31 H2        5.3373    -9.3577    -3.8630  H       1  <O>11       0.1731
  32 H3        6.5198    -7.8867    -1.0726  H       1  <O>11       0.0626
  33 H4        8.8587    -7.2977    -0.8050  H       1  <O>11       0.0618
  34 H5       10.5956    -8.9058    -1.3598  H       1  <O>11       0.0618
  35 H6        9.9784   -11.1100    -2.1757  H       1  <O>11       0.0646
  36 H7        0.7711    -8.8042    -3.1393  H       1  <O>11       0.0625
  37 H8       -1.5725    -9.3973    -3.4067  H       1  <O>11       0.0618
  38 H9       -2.2255   -11.0879    -5.0278  H       1  <O>11       0.0637
  39 H10      -0.6785   -10.5780    -8.8325  H       1  <O>11       0.0637
  40 H11       0.5537   -10.2791   -10.9009  H       1  <O>11       0.0619
  41 H12       2.1406   -11.9724   -11.6330  H       1  <O>11       0.0646
  42 H13       1.2648   -14.2708    -8.2123  H       1  <O>11       0.0665
  43 H14       1.8143   -11.5882    -6.1242  H       1  <O>11       0.0644
@<TRIPOS>BOND
     1     1     2    2
     2     2     3   am
     3     3     4    1
     4     4     5   am
     5     5     6    2
     6     5     7    1
     7     7     8   ar
     8     8     9   ar
     9     9    10   ar
    10    10    11   ar
    11    11    12   ar
    12     7    12   ar
    13    12    13    1
    14     2    14    1
    15    14    15   ar
    16    15    16   ar
    17    16    17   ar
    18    17    18   ar
    19    18    19    1
    20    19    20    2
    21    19    21    2
    22    19    22    1
    23    22    23   ar
    24    23    24   ar
    25    24    25   ar
    26    25    26   ar
    27    26    27    1
    28    26    28   ar
    29    22    28   ar
    30    18    29   ar
    31    14    29   ar
    32     3    30    1
    33     4    31    1
    34     8    32    1
    35     9    33    1
    36    10    34    1
    37    11    35    1
    38    15    36    1
    39    16    37    1
    40    17    38    1
    41    23    39    1
    42    24    40    1
    43    25    41    1
    44    28    42    1
    45    29    43    1
@<TRIPOS>MOLECULE
mol89_1_3
 43 45 0 0 0
SMALL
USER_CHARGES
****
VDW energy = 164.33
@<TRIPOS>ATOM
   1 O1        3.4420    -9.1855    -5.2979  O.2     1  <O>11      -0.2687
   2 C1        2.8552    -9.8129    -4.4288  C.2     1  <O>11       0.2602
   3 N1        3.5160   -10.1860    -3.2900  N.am    1  <O>11      -0.2301
   4 N2        4.8400    -9.8550    -3.1240  N.am    1  <O>11      -0.2300
   5 C2        5.4899   -10.1922    -1.9686  C.2     1  <O>11       0.2629
   6 O2        4.8939   -10.7882    -1.0839  O.2     1  <O>11      -0.2686
   7 C3        6.8929    -9.8422    -1.7925  C.ar    1  <O>11       0.0733
   8 C4        7.9025   -10.7304    -2.1983  C.ar    1  <O>11      -0.0468
   9 C5        9.2494   -10.3981    -2.0166  C.ar    1  <O>11      -0.0609
  10 C6        9.6015    -9.1780    -1.4340  C.ar    1  <O>11      -0.0590
  11 C7        8.5963    -8.2894    -1.0372  C.ar    1  <O>11      -0.0257
  12 C8        7.2498    -8.6125    -1.2143  C.ar    1  <O>11       0.1355
  13 F1        6.2642    -7.7389    -0.8296  F       1  <O>11      -0.2047
  14 C9        1.4620   -10.1610    -4.6040  C.ar    1  <O>11       0.0400
  15 C10       0.4940    -9.5232    -3.8258  C.ar    1  <O>11      -0.0495
  16 C11      -0.8542    -9.8644    -3.9819  C.ar    1  <O>11      -0.0592
  17 C12      -1.2315   -10.8349    -4.9134  C.ar    1  <O>11      -0.0364
  18 C13      -0.2498   -11.4614    -5.6903  C.ar    1  <O>11       0.0943
  19 S1       -0.7316   -12.6825    -6.8627  S.O2    1  <O>11       0.0252
  20 O3       -2.1015   -13.4530    -6.3277  O.2     1  <O>11      -0.1643
  21 O4        0.4923   -13.7906    -7.0421  O.2     1  <O>11      -0.1643
  22 C14      -1.0592   -11.9085    -8.4197  C.ar    1  <O>11       0.0963
  23 C15      -2.1392   -11.0198    -8.5581  C.ar    1  <O>11      -0.0363
  24 C16      -2.4060   -10.4186    -9.7921  C.ar    1  <O>11      -0.0572
  25 C17      -1.5954   -10.6929   -10.8981  C.ar    1  <O>11      -0.0263
  26 C18      -0.5152   -11.5716   -10.7580  C.ar    1  <O>11       0.1252
  27 F2        0.2779   -11.8360   -11.8456  F       1  <O>11      -0.2054
  28 C19      -0.2401   -12.1753    -9.5307  C.ar    1  <O>11      -0.0012
  29 C20       1.0963   -11.1269    -5.5441  C.ar    1  <O>11      -0.0243
  30 H1        3.0270   -10.7100    -2.5640  H       1  <O>11       0.1731
  31 H2        5.3373    -9.3577    -3.8630  H       1  <O>11       0.1731
  32 H3        7.6498   -11.6320    -2.6324  H       1  <O>11       0.0626
  33 H4        9.9858   -11.0570    -2.3140  H       1  <O>11       0.0618
  34 H5       10.5949    -8.9342    -1.2975  H       1  <O>11       0.0618
  35 H6        8.8528    -7.3860    -0.6092  H       1  <O>11       0.0646
  36 H7        0.7711    -8.8042    -3.1393  H       1  <O>11       0.0625
  37 H8       -1.5725    -9.3973    -3.4067  H       1  <O>11       0.0618
  38 H9       -2.2255   -11.0879    -5.0278  H       1  <O>11       0.0637
  39 H10      -2.7385   -10.8099    -7.7445  H       1  <O>11       0.0637
  40 H11      -3.2035    -9.7705    -9.8868  H       1  <O>11       0.0619
  41 H12      -1.7920   -10.2511   -11.8098  H       1  <O>11       0.0646
  42 H13       0.5632   -12.8166    -9.4386  H       1  <O>11       0.0665
  43 H14       1.8143   -11.5882    -6.1242  H       1  <O>11       0.0644
@<TRIPOS>BOND
     1     1     2    2
     2     2     3   am
     3     3     4    1
     4     4     5   am
     5     5     6    2
     6     5     7    1
     7     7     8   ar
     8     8     9   ar
     9     9    10   ar
    10    10    11   ar
    11    11    12   ar
    12     7    12   ar
    13    12    13    1
    14     2    14    1
    15    14    15   ar
    16    15    16   ar
    17    16    17   ar
    18    17    18   ar
    19    18    19    1
    20    19    20    2
    21    19    21    2
    22    19    22    1
    23    22    23   ar
    24    23    24   ar
    25    24    25   ar
    26    25    26   ar
    27    26    27    1
    28    26    28   ar
    29    22    28   ar
    30    18    29   ar
    31    14    29   ar
    32     3    30    1
    33     4    31    1
    34     8    32    1
    35     9    33    1
    36    10    34    1
    37    11    35    1
    38    15    36    1
    39    16    37    1
    40    17    38    1
    41    23    39    1
    42    24    40    1
    43    25    41    1
    44    28    42    1
    45    29    43    1
@<TRIPOS>MOLECULE
mol89_1_4
 43 45 0 0 0
SMALL
USER_CHARGES
****
VDW energy = 164.48
@<TRIPOS>ATOM
   1 O1        3.4420    -9.1855    -5.2979  O.2     1  <O>11      -0.2687
   2 C1        2.8552    -9.8129    -4.4288  C.2     1  <O>11       0.2602
   3 N1        3.5160   -10.1860    -3.2900  N.am    1  <O>11      -0.2301
   4 N2        4.8400    -9.8550    -3.1240  N.am    1  <O>11      -0.2300
   5 C2        5.4899   -10.1922    -1.9686  C.2     1  <O>11       0.2629
   6 O2        4.8939   -10.7882    -1.0839  O.2     1  <O>11      -0.2686
   7 C3        6.8929    -9.8422    -1.7925  C.ar    1  <O>11       0.0733
   8 C4        7.9025   -10.7304    -2.1983  C.ar    1  <O>11      -0.0468
   9 C5        9.2494   -10.3981    -2.0166  C.ar    1  <O>11      -0.0609
  10 C6        9.6015    -9.1780    -1.4340  C.ar    1  <O>11      -0.0590
  11 C7        8.5963    -8.2894    -1.0372  C.ar    1  <O>11      -0.0257
  12 C8        7.2498    -8.6125    -1.2143  C.ar    1  <O>11       0.1355
  13 F1        6.2642    -7.7389    -0.8296  F       1  <O>11      -0.2047
  14 C9        1.4620   -10.1610    -4.6040  C.ar    1  <O>11       0.0400
  15 C10       1.1306   -11.3698    -5.2192  C.ar    1  <O>11      -0.0495
  16 C11      -0.2153   -11.7066    -5.4026  C.ar    1  <O>11      -0.0592
  17 C12      -1.2229   -10.8409    -4.9699  C.ar    1  <O>11      -0.0364
  18 C13      -0.8747    -9.6351    -4.3496  C.ar    1  <O>11       0.0943
  19 S1       -2.1487    -8.5493    -3.8059  S.O2    1  <O>11       0.0252
  20 O3       -3.5805    -9.3837    -3.7039  O.2     1  <O>11      -0.1643
  21 O4       -2.3116    -7.3011    -4.8891  O.2     1  <O>11      -0.1643
  22 C14      -1.7297    -7.8985    -2.2148  C.ar    1  <O>11       0.0963
  23 C15      -1.6591    -8.7466    -1.0964  C.ar    1  <O>11      -0.0363
  24 C16      -1.3411    -8.2298     0.1635  C.ar    1  <O>11      -0.0572
  25 C17      -1.0847    -6.8639     0.3192  C.ar    1  <O>11      -0.0263
  26 C18      -1.1471    -6.0209    -0.7962  C.ar    1  <O>11       0.1252
  27 F2       -0.8930    -4.6821    -0.6384  F       1  <O>11      -0.2054
  28 C19      -1.4623    -6.5273    -2.0574  C.ar    1  <O>11      -0.0012
  29 C20       0.4636    -9.2913    -4.1600  C.ar    1  <O>11      -0.0243
  30 H1        3.0270   -10.7100    -2.5640  H       1  <O>11       0.1731
  31 H2        5.3373    -9.3577    -3.8630  H       1  <O>11       0.1731
  32 H3        7.6498   -11.6320    -2.6324  H       1  <O>11       0.0626
  33 H4        9.9858   -11.0570    -2.3140  H       1  <O>11       0.0618
  34 H5       10.5949    -8.9342    -1.2975  H       1  <O>11       0.0618
  35 H6        8.8528    -7.3860    -0.6092  H       1  <O>11       0.0646
  36 H7        1.8739   -12.0113    -5.5368  H       1  <O>11       0.0625
  37 H8       -0.4644   -12.5978    -5.8593  H       1  <O>11       0.0618
  38 H9       -2.2155   -11.0882    -5.1063  H       1  <O>11       0.0637
  39 H10      -1.8429    -9.7562    -1.2055  H       1  <O>11       0.0637
  40 H11      -1.2955    -8.8583     0.9808  H       1  <O>11       0.0619
  41 H12      -0.8514    -6.4808     1.2486  H       1  <O>11       0.0646
  42 H13      -1.4990    -5.8964    -2.8733  H       1  <O>11       0.0665
  43 H14       0.7134    -8.4037    -3.6966  H       1  <O>11       0.0644
@<TRIPOS>BOND
     1     1     2    2
     2     2     3   am
     3     3     4    1
     4     4     5   am
     5     5     6    2
     6     5     7    1
     7     7     8   ar
     8     8     9   ar
     9     9    10   ar
    10    10    11   ar
    11    11    12   ar
    12     7    12   ar
    13    12    13    1
    14     2    14    1
    15    14    15   ar
    16    15    16   ar
    17    16    17   ar
    18    17    18   ar
    19    18    19    1
    20    19    20    2
    21    19    21    2
    22    19    22    1
    23    22    23   ar
    24    23    24   ar
    25    24    25   ar
    26    25    26   ar
    27    26    27    1
    28    26    28   ar
    29    22    28   ar
    30    18    29   ar
    31    14    29   ar
    32     3    30    1
    33     4    31    1
    34     8    32    1
    35     9    33    1
    36    10    34    1
    37    11    35    1
    38    15    36    1
    39    16    37    1
    40    17    38    1
    41    23    39    1
    42    24    40    1
    43    25    41    1
    44    28    42    1
    45    29    43    1
@<TRIPOS>MOLECULE
mol89_1_5
 43 45 0 0 0
SMALL
USER_CHARGES
****
VDW energy = 165.61
@<TRIPOS>ATOM
   1 O1        3.4420    -9.1855    -5.2979  O.2     1  <O>11      -0.2687
   2 C1        2.8552    -9.8129    -4.4288  C.2     1  <O>11       0.2602
   3 N1        3.5160   -10.1860    -3.2900  N.am    1  <O>11      -0.2301
   4 N2        4.8400    -9.8550    -3.1240  N.am    1  <O>11      -0.2300
   5 C2        5.4899   -10.1922    -1.9686  C.2     1  <O>11       0.2629
   6 O2        4.8939   -10.7882    -1.0839  O.2     1  <O>11      -0.2686
   7 C3        6.8929    -9.8422    -1.7925  C.ar    1  <O>11       0.0733
   8 C4        7.2530    -8.5725    -1.3117  C.ar    1  <O>11      -0.0468
   9 C5        8.6013    -8.2336    -1.1556  C.ar    1  <O>11      -0.0609
  10 C6        9.6010    -9.1568    -1.4724  C.ar    1  <O>11      -0.0590
  11 C7        9.2427   -10.4245    -1.9435  C.ar    1  <O>11      -0.0257
  12 C8        7.8999   -10.7715    -2.1028  C.ar    1  <O>11       0.1355
  13 F1        7.5485   -12.0164    -2.5602  F       1  <O>11      -0.2047
  14 C9        1.4620   -10.1610    -4.6040  C.ar    1  <O>11       0.0400
  15 C10       0.4940    -9.5232    -3.8258  C.ar    1  <O>11      -0.0495
  16 C11      -0.8542    -9.8644    -3.9819  C.ar    1  <O>11      -0.0592
  17 C12      -1.2315   -10.8349    -4.9134  C.ar    1  <O>11      -0.0364
  18 C13      -0.2498   -11.4614    -5.6903  C.ar    1  <O>11       0.0943
  19 S1       -0.7316   -12.6825    -6.8627  S.O2    1  <O>11       0.0252
  20 O3        0.3355   -12.6795    -8.1347  O.2     1  <O>11      -0.1643
  21 O4       -2.2584   -12.3421    -7.4204  O.2     1  <O>11      -0.1643
  22 C14      -0.7269   -14.2750    -6.0915  C.ar    1  <O>11       0.0963
  23 C15      -1.8849   -14.7632    -5.4626  C.ar    1  <O>11      -0.0363
  24 C16      -1.8770   -16.0161    -4.8414  C.ar    1  <O>11      -0.0572
  25 C17      -0.7166   -16.7964    -4.8465  C.ar    1  <O>11      -0.0263
  26 C18       0.4342   -16.3134    -5.4799  C.ar    1  <O>11       0.1252
  27 F2        1.5694   -17.0835    -5.4836  F       1  <O>11      -0.2054
  28 C19       0.4357   -15.0653    -6.1034  C.ar    1  <O>11      -0.0012
  29 C20       1.0963   -11.1269    -5.5441  C.ar    1  <O>11      -0.0243
  30 H1        3.0270   -10.7100    -2.5640  H       1  <O>11       0.1731
  31 H2        5.3373    -9.3577    -3.8630  H       1  <O>11       0.1731
  32 H3        6.5198    -7.8867    -1.0726  H       1  <O>11       0.0626
  33 H4        8.8587    -7.2977    -0.8050  H       1  <O>11       0.0618
  34 H5       10.5956    -8.9058    -1.3598  H       1  <O>11       0.0618
  35 H6        9.9784   -11.1100    -2.1757  H       1  <O>11       0.0646
  36 H7        0.7711    -8.8042    -3.1393  H       1  <O>11       0.0625
  37 H8       -1.5725    -9.3973    -3.4067  H       1  <O>11       0.0618
  38 H9       -2.2255   -11.0879    -5.0278  H       1  <O>11       0.0637
  39 H10      -2.7458   -14.1941    -5.4591  H       1  <O>11       0.0637
  40 H11      -2.7302   -16.3658    -4.3779  H       1  <O>11       0.0619
  41 H12      -0.7088   -17.7205    -4.3872  H       1  <O>11       0.0646
  42 H13       1.2888   -14.7230    -6.5726  H       1  <O>11       0.0665
  43 H14       1.8143   -11.5882    -6.1242  H       1  <O>11       0.0644
@<TRIPOS>BOND
     1     1     2    2
     2     2     3   am
     3     3     4    1
     4     4     5   am
     5     5     6    2
     6     5     7    1
     7     7     8   ar
     8     8     9   ar
     9     9    10   ar
    10    10    11   ar
    11    11    12   ar
    12     7    12   ar
    13    12    13    1
    14     2    14    1
    15    14    15   ar
    16    15    16   ar
    17    16    17   ar
    18    17    18   ar
    19    18    19    1
    20    19    20    2
    21    19    21    2
    22    19    22    1
    23    22    23   ar
    24    23    24   ar
    25    24    25   ar
    26    25    26   ar
    27    26    27    1
    28    26    28   ar
    29    22    28   ar
    30    18    29   ar
    31    14    29   ar
    32     3    30    1
    33     4    31    1
    34     8    32    1
    35     9    33    1
    36    10    34    1
    37    11    35    1
    38    15    36    1
    39    16    37    1
    40    17    38    1
    41    23    39    1
    42    24    40    1
    43    25    41    1
    44    28    42    1
    45    29    43    1
@<TRIPOS>MOLECULE
mol89_1_6
 43 45 0 0 0
SMALL
USER_CHARGES
****
VDW energy = 165.64
@<TRIPOS>ATOM
   1 O1        3.4420    -9.1855    -5.2979  O.2     1  <O>11      -0.2687
   2 C1        2.8552    -9.8129    -4.4288  C.2     1  <O>11       0.2602
   3 N1        3.5160   -10.1860    -3.2900  N.am    1  <O>11      -0.2301
   4 N2        4.8400    -9.8550    -3.1240  N.am    1  <O>11      -0.2300
   5 C2        5.4899   -10.1922    -1.9686  C.2     1  <O>11       0.2629
   6 O2        4.8939   -10.7882    -1.0839  O.2     1  <O>11      -0.2686
   7 C3        6.8929    -9.8422    -1.7925  C.ar    1  <O>11       0.0733
   8 C4        7.9025   -10.7304    -2.1983  C.ar    1  <O>11      -0.0468
   9 C5        9.2494   -10.3981    -2.0166  C.ar    1  <O>11      -0.0609
  10 C6        9.6015    -9.1780    -1.4340  C.ar    1  <O>11      -0.0590
  11 C7        8.5963    -8.2894    -1.0372  C.ar    1  <O>11      -0.0257
  12 C8        7.2498    -8.6125    -1.2143  C.ar    1  <O>11       0.1355
  13 F1        6.2642    -7.7389    -0.8296  F       1  <O>11      -0.2047
  14 C9        1.4620   -10.1610    -4.6040  C.ar    1  <O>11       0.0400
  15 C10       0.4940    -9.5232    -3.8258  C.ar    1  <O>11      -0.0495
  16 C11      -0.8542    -9.8644    -3.9819  C.ar    1  <O>11      -0.0592
  17 C12      -1.2315   -10.8349    -4.9134  C.ar    1  <O>11      -0.0364
  18 C13      -0.2498   -11.4614    -5.6903  C.ar    1  <O>11       0.0943
  19 S1       -0.7316   -12.6825    -6.8627  S.O2    1  <O>11       0.0252
  20 O3        0.3355   -12.6795    -8.1347  O.2     1  <O>11      -0.1643
  21 O4       -2.2584   -12.3421    -7.4204  O.2     1  <O>11      -0.1643
  22 C14      -0.7269   -14.2750    -6.0915  C.ar    1  <O>11       0.0963
  23 C15       0.4783   -14.8461    -5.6483  C.ar    1  <O>11      -0.0363
  24 C16       0.4835   -16.1105    -5.0509  C.ar    1  <O>11      -0.0572
  25 C17      -0.7131   -16.8147    -4.8844  C.ar    1  <O>11      -0.0263
  26 C18      -1.9141   -16.2422    -5.3185  C.ar    1  <O>11       0.1252
  27 F2       -3.0854   -16.9363    -5.1511  F       1  <O>11      -0.2054
  28 C19      -1.9297   -14.9808    -5.9143  C.ar    1  <O>11      -0.0012
  29 C20       1.0963   -11.1269    -5.5441  C.ar    1  <O>11      -0.0243
  30 H1        3.0270   -10.7100    -2.5640  H       1  <O>11       0.1731
  31 H2        5.3373    -9.3577    -3.8630  H       1  <O>11       0.1731
  32 H3        7.6498   -11.6320    -2.6324  H       1  <O>11       0.0626
  33 H4        9.9858   -11.0570    -2.3140  H       1  <O>11       0.0618
  34 H5       10.5949    -8.9342    -1.2975  H       1  <O>11       0.0618
  35 H6        8.8528    -7.3860    -0.6092  H       1  <O>11       0.0646
  36 H7        0.7711    -8.8042    -3.1393  H       1  <O>11       0.0625
  37 H8       -1.5725    -9.3973    -3.4067  H       1  <O>11       0.0618
  38 H9       -2.2255   -11.0879    -5.0278  H       1  <O>11       0.0637
  39 H10       1.3642   -14.3297    -5.7644  H       1  <O>11       0.0637
  40 H11       1.3732   -16.5251    -4.7321  H       1  <O>11       0.0619
  41 H12      -0.7106   -17.7485    -4.4451  H       1  <O>11       0.0646
  42 H13      -2.8226   -14.5666    -6.2245  H       1  <O>11       0.0665
  43 H14       1.8143   -11.5882    -6.1242  H       1  <O>11       0.0644
@<TRIPOS>BOND
     1     1     2    2
     2     2     3   am
     3     3     4    1
     4     4     5   am
     5     5     6    2
     6     5     7    1
     7     7     8   ar
     8     8     9   ar
     9     9    10   ar
    10    10    11   ar
    11    11    12   ar
    12     7    12   ar
    13    12    13    1
    14     2    14    1
    15    14    15   ar
    16    15    16   ar
    17    16    17   ar
    18    17    18   ar
    19    18    19    1
    20    19    20    2
    21    19    21    2
    22    19    22    1
    23    22    23   ar
    24    23    24   ar
    25    24    25   ar
    26    25    26   ar
    27    26    27    1
    28    26    28   ar
    29    22    28   ar
    30    18    29   ar
    31    14    29   ar
    32     3    30    1
    33     4    31    1
    34     8    32    1
    35     9    33    1
    36    10    34    1
    37    11    35    1
    38    15    36    1
    39    16    37    1
    40    17    38    1
    41    23    39    1
    42    24    40    1
    43    25    41    1
    44    28    42    1
    45    29    43    1
@<TRIPOS>MOLECULE
mol89_1_7
 43 45 0 0 0
SMALL
USER_CHARGES
****
VDW energy = 165.66
@<TRIPOS>ATOM
   1 O1        3.4420    -9.1855    -5.2979  O.2     1  <O>11      -0.2687
   2 C1        2.8552    -9.8129    -4.4288  C.2     1  <O>11       0.2602
   3 N1        3.5160   -10.1860    -3.2900  N.am    1  <O>11      -0.2301
   4 N2        4.8400    -9.8550    -3.1240  N.am    1  <O>11      -0.2300
   5 C2        5.4899   -10.1922    -1.9686  C.2     1  <O>11       0.2629
   6 O2        4.8939   -10.7882    -1.0839  O.2     1  <O>11      -0.2686
   7 C3        6.8929    -9.8422    -1.7925  C.ar    1  <O>11       0.0733
   8 C4        7.2530    -8.5725    -1.3117  C.ar    1  <O>11      -0.0468
   9 C5        8.6013    -8.2336    -1.1556  C.ar    1  <O>11      -0.0609
  10 C6        9.6010    -9.1568    -1.4724  C.ar    1  <O>11      -0.0590
  11 C7        9.2427   -10.4245    -1.9435  C.ar    1  <O>11      -0.0257
  12 C8        7.8999   -10.7715    -2.1028  C.ar    1  <O>11       0.1355
  13 F1        7.5485   -12.0164    -2.5602  F       1  <O>11      -0.2047
  14 C9        1.4620   -10.1610    -4.6040  C.ar    1  <O>11       0.0400
  15 C10       0.4940    -9.5232    -3.8258  C.ar    1  <O>11      -0.0495
  16 C11      -0.8542    -9.8644    -3.9819  C.ar    1  <O>11      -0.0592
  17 C12      -1.2315   -10.8349    -4.9134  C.ar    1  <O>11      -0.0364
  18 C13      -0.2498   -11.4614    -5.6903  C.ar    1  <O>11       0.0943
  19 S1       -0.7316   -12.6825    -6.8627  S.O2    1  <O>11       0.0252
  20 O3        0.3355   -12.6795    -8.1347  O.2     1  <O>11      -0.1643
  21 O4       -2.2584   -12.3421    -7.4204  O.2     1  <O>11      -0.1643
  22 C14      -0.7269   -14.2750    -6.0915  C.ar    1  <O>11       0.0963
  23 C15       0.4783   -14.8461    -5.6483  C.ar    1  <O>11      -0.0363
  24 C16       0.4835   -16.1105    -5.0509  C.ar    1  <O>11      -0.0572
  25 C17      -0.7131   -16.8147    -4.8844  C.ar    1  <O>11      -0.0263
  26 C18      -1.9141   -16.2422    -5.3185  C.ar    1  <O>11       0.1252
  27 F2       -3.0854   -16.9363    -5.1511  F       1  <O>11      -0.2054
  28 C19      -1.9297   -14.9808    -5.9143  C.ar    1  <O>11      -0.0012
  29 C20       1.0963   -11.1269    -5.5441  C.ar    1  <O>11      -0.0243
  30 H1        3.0270   -10.7100    -2.5640  H       1  <O>11       0.1731
  31 H2        5.3373    -9.3577    -3.8630  H       1  <O>11       0.1731
  32 H3        6.5198    -7.8867    -1.0726  H       1  <O>11       0.0626
  33 H4        8.8587    -7.2977    -0.8050  H       1  <O>11       0.0618
  34 H5       10.5956    -8.9058    -1.3598  H       1  <O>11       0.0618
  35 H6        9.9784   -11.1100    -2.1757  H       1  <O>11       0.0646
  36 H7        0.7711    -8.8042    -3.1393  H       1  <O>11       0.0625
  37 H8       -1.5725    -9.3973    -3.4067  H       1  <O>11       0.0618
  38 H9       -2.2255   -11.0879    -5.0278  H       1  <O>11       0.0637
  39 H10       1.3642   -14.3297    -5.7644  H       1  <O>11       0.0637
  40 H11       1.3732   -16.5251    -4.7321  H       1  <O>11       0.0619
  41 H12      -0.7106   -17.7485    -4.4451  H       1  <O>11       0.0646
  42 H13      -2.8226   -14.5666    -6.2245  H       1  <O>11       0.0665
  43 H14       1.8143   -11.5882    -6.1242  H       1  <O>11       0.0644
@<TRIPOS>BOND
     1     1     2    2
     2     2     3   am
     3     3     4    1
     4     4     5   am
     5     5     6    2
     6     5     7    1
     7     7     8   ar
     8     8     9   ar
     9     9    10   ar
    10    10    11   ar
    11    11    12   ar
    12     7    12   ar
    13    12    13    1
    14     2    14    1
    15    14    15   ar
    16    15    16   ar
    17    16    17   ar
    18    17    18   ar
    19    18    19    1
    20    19    20    2
    21    19    21    2
    22    19    22    1
    23    22    23   ar
    24    23    24   ar
    25    24    25   ar
    26    25    26   ar
    27    26    27    1
    28    26    28   ar
    29    22    28   ar
    30    18    29   ar
    31    14    29   ar
    32     3    30    1
    33     4    31    1
    34     8    32    1
    35     9    33    1
    36    10    34    1
    37    11    35    1
    38    15    36    1
    39    16    37    1
    40    17    38    1
    41    23    39    1
    42    24    40    1
    43    25    41    1
    44    28    42    1
    45    29    43    1
@<TRIPOS>MOLECULE
mol89_1_8
 43 45 0 0 0
SMALL
USER_CHARGES
****
VDW energy = 165.99
@<TRIPOS>ATOM
   1 O1        3.4420    -9.1855    -5.2979  O.2     1  <O>11      -0.2687
   2 C1        2.8552    -9.8129    -4.4288  C.2     1  <O>11       0.2602
   3 N1        3.5160   -10.1860    -3.2900  N.am    1  <O>11      -0.2301
   4 N2        4.8400    -9.8550    -3.1240  N.am    1  <O>11      -0.2300
   5 C2        5.4899   -10.1922    -1.9686  C.2     1  <O>11       0.2629
   6 O2        4.8939   -10.7882    -1.0839  O.2     1  <O>11      -0.2686
   7 C3        6.8929    -9.8422    -1.7925  C.ar    1  <O>11       0.0733
   8 C4        7.7773   -10.7425    -1.1759  C.ar    1  <O>11      -0.0468
   9 C5        9.1216   -10.3994    -0.9960  C.ar    1  <O>11      -0.0609
  10 C6        9.5968    -9.1600    -1.4323  C.ar    1  <O>11      -0.0590
  11 C7        8.7181    -8.2662    -2.0539  C.ar    1  <O>11      -0.0257
  12 C8        7.3750    -8.5998    -2.2375  C.ar    1  <O>11       0.1355
  13 F1        6.5145    -7.7252    -2.8515  F       1  <O>11      -0.2047
  14 C9        1.4620   -10.1610    -4.6040  C.ar    1  <O>11       0.0400
  15 C10       0.4940    -9.5232    -3.8258  C.ar    1  <O>11      -0.0495
  16 C11      -0.8542    -9.8644    -3.9819  C.ar    1  <O>11      -0.0592
  17 C12      -1.2315   -10.8349    -4.9134  C.ar    1  <O>11      -0.0364
  18 C13      -0.2498   -11.4614    -5.6903  C.ar    1  <O>11       0.0943
  19 S1       -0.7316   -12.6825    -6.8627  S.O2    1  <O>11       0.0252
  20 O3       -2.3556   -12.5382    -7.1760  O.2     1  <O>11      -0.1643
  21 O4       -0.4186   -14.1933    -6.2483  O.2     1  <O>11      -0.1643
  22 C14       0.1815   -12.4544    -8.3610  C.ar    1  <O>11       0.0963
  23 C15      -0.0093   -11.3008    -9.1407  C.ar    1  <O>11      -0.0363
  24 C16       0.7026   -11.1270   -10.3316  C.ar    1  <O>11      -0.0572
  25 C17       1.6157   -12.0985   -10.7535  C.ar    1  <O>11      -0.0263
  26 C18       1.8115   -13.2434    -9.9728  C.ar    1  <O>11       0.1252
  27 F2        2.7095   -14.1926   -10.3902  F       1  <O>11      -0.2054
  28 C19       1.1069   -13.4252    -8.7824  C.ar    1  <O>11      -0.0012
  29 C20       1.0963   -11.1269    -5.5441  C.ar    1  <O>11      -0.0243
  30 H1        3.0270   -10.7100    -2.5640  H       1  <O>11       0.1731
  31 H2        5.3373    -9.3577    -3.8630  H       1  <O>11       0.1731
  32 H3        7.4339   -11.6611    -0.8541  H       1  <O>11       0.0626
  33 H4        9.7650   -11.0644    -0.5391  H       1  <O>11       0.0618
  34 H5       10.5878    -8.9059    -1.2971  H       1  <O>11       0.0618
  35 H6        9.0663    -7.3511    -2.3801  H       1  <O>11       0.0646
  36 H7        0.7711    -8.8042    -3.1393  H       1  <O>11       0.0625
  37 H8       -1.5725    -9.3973    -3.4067  H       1  <O>11       0.0618
  38 H9       -2.2255   -11.0879    -5.0278  H       1  <O>11       0.0637
  39 H10      -0.6785   -10.5780    -8.8325  H       1  <O>11       0.0637
  40 H11       0.5537   -10.2791   -10.9009  H       1  <O>11       0.0619
  41 H12       2.1406   -11.9724   -11.6330  H       1  <O>11       0.0646
  42 H13       1.2648   -14.2708    -8.2123  H       1  <O>11       0.0665
  43 H14       1.8143   -11.5882    -6.1242  H       1  <O>11       0.0644
@<TRIPOS>BOND
     1     1     2    2
     2     2     3   am
     3     3     4    1
     4     4     5   am
     5     5     6    2
     6     5     7    1
     7     7     8   ar
     8     8     9   ar
     9     9    10   ar
    10    10    11   ar
    11    11    12   ar
    12     7    12   ar
    13    12    13    1
    14     2    14    1
    15    14    15   ar
    16    15    16   ar
    17    16    17   ar
    18    17    18   ar
    19    18    19    1
    20    19    20    2
    21    19    21    2
    22    19    22    1
    23    22    23   ar
    24    23    24   ar
    25    24    25   ar
    26    25    26   ar
    27    26    27    1
    28    26    28   ar
    29    22    28   ar
    30    18    29   ar
    31    14    29   ar
    32     3    30    1
    33     4    31    1
    34     8    32    1
    35     9    33    1
    36    10    34    1
    37    11    35    1
    38    15    36    1
    39    16    37    1
    40    17    38    1
    41    23    39    1
    42    24    40    1
    43    25    41    1
    44    28    42    1
    45    29    43    1
@<TRIPOS>MOLECULE
mol89_1_9
 43 45 0 0 0
SMALL
USER_CHARGES
****
VDW energy = 166.02
@<TRIPOS>ATOM
   1 O1        3.4420    -9.1855    -5.2979  O.2     1  <O>11      -0.2687
   2 C1        2.8552    -9.8129    -4.4288  C.2     1  <O>11       0.2602
   3 N1        3.5160   -10.1860    -3.2900  N.am    1  <O>11      -0.2301
   4 N2        4.8400    -9.8550    -3.1240  N.am    1  <O>11      -0.2300
   5 C2        5.4899   -10.1922    -1.9686  C.2     1  <O>11       0.2629
   6 O2        4.8939   -10.7882    -1.0839  O.2     1  <O>11      -0.2686
   7 C3        6.8929    -9.8422    -1.7925  C.ar    1  <O>11       0.0733
   8 C4        7.9025   -10.7304    -2.1983  C.ar    1  <O>11      -0.0468
   9 C5        9.2494   -10.3981    -2.0166  C.ar    1  <O>11      -0.0609
  10 C6        9.6015    -9.1780    -1.4340  C.ar    1  <O>11      -0.0590
  11 C7        8.5963    -8.2894    -1.0372  C.ar    1  <O>11      -0.0257
  12 C8        7.2498    -8.6125    -1.2143  C.ar    1  <O>11       0.1355
  13 F1        6.2642    -7.7389    -0.8296  F       1  <O>11      -0.2047
  14 C9        1.4620   -10.1610    -4.6040  C.ar    1  <O>11       0.0400
  15 C10       0.5946   -10.0837    -3.5126  C.ar    1  <O>11      -0.0495
  16 C11      -0.7516   -10.4309    -3.6727  C.ar    1  <O>11      -0.0592
  17 C12      -1.2274   -10.8492    -4.9180  C.ar    1  <O>11      -0.0364
  18 C13      -0.3466   -10.9160    -6.0041  C.ar    1  <O>11       0.0943
  19 S1       -0.9524   -11.4428    -7.5704  S.O2    1  <O>11       0.0252
  20 O3       -2.6078   -11.3188    -7.5934  O.2     1  <O>11      -0.1643
  21 O4       -0.5120   -13.0227    -7.8310  O.2     1  <O>11      -0.1643
  22 C14      -0.2658   -10.4218    -8.8420  C.ar    1  <O>11       0.0963
  23 C15      -0.5980    -9.0582    -8.9151  C.ar    1  <O>11      -0.0363
  24 C16      -0.0659    -8.2545    -9.9281  C.ar    1  <O>11      -0.0572
  25 C17       0.8069    -8.8010   -10.8742  C.ar    1  <O>11      -0.0263
  26 C18       1.1439   -10.1572   -10.7964  C.ar    1  <O>11       0.1252
  27 F2        2.0019   -10.6880   -11.7259  F       1  <O>11      -0.2054
  28 C19       0.6192   -10.9668    -9.7887  C.ar    1  <O>11      -0.0012
  29 C20       0.9963   -10.5699    -5.8555  C.ar    1  <O>11      -0.0243
  30 H1        3.0270   -10.7100    -2.5640  H       1  <O>11       0.1731
  31 H2        5.3373    -9.3577    -3.8630  H       1  <O>11       0.1731
  32 H3        7.6498   -11.6320    -2.6324  H       1  <O>11       0.0626
  33 H4        9.9858   -11.0570    -2.3140  H       1  <O>11       0.0618
  34 H5       10.5949    -8.9342    -1.2975  H       1  <O>11       0.0618
  35 H6        8.8528    -7.3860    -0.6092  H       1  <O>11       0.0646
  36 H7        0.9443    -9.7723    -2.5929  H       1  <O>11       0.0625
  37 H8       -1.3953   -10.3778    -2.8679  H       1  <O>11       0.0618
  38 H9       -2.2197   -11.1068    -5.0362  H       1  <O>11       0.0637
  39 H10      -1.2381    -8.6478    -8.2173  H       1  <O>11       0.0637
  40 H11      -0.3180    -7.2549    -9.9777  H       1  <O>11       0.0619
  41 H12       1.1993    -8.2095   -11.6233  H       1  <O>11       0.0646
  42 H13       0.8803   -11.9639    -9.7382  H       1  <O>11       0.0665
  43 H14       1.6389   -10.6156    -6.6617  H       1  <O>11       0.0644
@<TRIPOS>BOND
     1     1     2    2
     2     2     3   am
     3     3     4    1
     4     4     5   am
     5     5     6    2
     6     5     7    1
     7     7     8   ar
     8     8     9   ar
     9     9    10   ar
    10    10    11   ar
    11    11    12   ar
    12     7    12   ar
    13    12    13    1
    14     2    14    1
    15    14    15   ar
    16    15    16   ar
    17    16    17   ar
    18    17    18   ar
    19    18    19    1
    20    19    20    2
    21    19    21    2
    22    19    22    1
    23    22    23   ar
    24    23    24   ar
    25    24    25   ar
    26    25    26   ar
    27    26    27    1
    28    26    28   ar
    29    22    28   ar
    30    18    29   ar
    31    14    29   ar
    32     3    30    1
    33     4    31    1
    34     8    32    1
    35     9    33    1
    36    10    34    1
    37    11    35    1
    38    15    36    1
    39    16    37    1
    40    17    38    1
    41    23    39    1
    42    24    40    1
    43    25    41    1
    44    28    42    1
    45    29    43    1
@<TRIPOS>MOLECULE
mol89_1_10
 43 45 0 0 0
SMALL
USER_CHARGES
****
VDW energy = 166.16
@<TRIPOS>ATOM
   1 O1        3.4420    -9.1855    -5.2979  O.2     1  <O>11      -0.2687
   2 C1        2.8552    -9.8129    -4.4288  C.2     1  <O>11       0.2602
   3 N1        3.5160   -10.1860    -3.2900  N.am    1  <O>11      -0.2301
   4 N2        4.8400    -9.8550    -3.1240  N.am    1  <O>11      -0.2300
   5 C2        5.4899   -10.1922    -1.9686  C.2     1  <O>11       0.2629
   6 O2        4.8941   -10.7887    -1.0841  O.2     1  <O>11      -0.2686
   7 C3        6.8927    -9.8417    -1.7923  C.ar    1  <O>11       0.0733
   8 C4        7.2522    -8.5719    -1.3111  C.ar    1  <O>11      -0.0468
   9 C5        8.6005    -8.2325    -1.1548  C.ar    1  <O>11      -0.0609
  10 C6        9.6005    -9.1553    -1.4717  C.ar    1  <O>11      -0.0590
  11 C7        9.2428   -10.4230    -1.9431  C.ar    1  <O>11      -0.0257
  12 C8        7.9001   -10.7705    -2.1026  C.ar    1  <O>11       0.1355
  13 F1        7.5493   -12.0154    -2.5603  F       1  <O>11      -0.2047
  14 C9        1.4620   -10.1610    -4.6040  C.ar    1  <O>11       0.0400
  15 C10       0.5946   -10.0837    -3.5126  C.ar    1  <O>11      -0.0495
  16 C11      -0.7516   -10.4309    -3.6727  C.ar    1  <O>11      -0.0592
  17 C12      -1.2274   -10.8492    -4.9180  C.ar    1  <O>11      -0.0364
  18 C13      -0.3466   -10.9160    -6.0041  C.ar    1  <O>11       0.0943
  19 S1       -0.9524   -11.4428    -7.5704  S.O2    1  <O>11       0.0252
  20 O3       -2.6078   -11.3188    -7.5934  O.2     1  <O>11      -0.1643
  21 O4       -0.5120   -13.0227    -7.8310  O.2     1  <O>11      -0.1643
  22 C14      -0.2658   -10.4218    -8.8420  C.ar    1  <O>11       0.0963
  23 C15      -0.5980    -9.0582    -8.9151  C.ar    1  <O>11      -0.0363
  24 C16      -0.0659    -8.2545    -9.9281  C.ar    1  <O>11      -0.0572
  25 C17       0.8069    -8.8010   -10.8742  C.ar    1  <O>11      -0.0263
  26 C18       1.1439   -10.1572   -10.7964  C.ar    1  <O>11       0.1252
  27 F2        2.0019   -10.6880   -11.7259  F       1  <O>11      -0.2054
  28 C19       0.6192   -10.9668    -9.7887  C.ar    1  <O>11      -0.0012
  29 C20       0.9963   -10.5699    -5.8555  C.ar    1  <O>11      -0.0243
  30 H1        3.0270   -10.7100    -2.5640  H       1  <O>11       0.1731
  31 H2        5.3373    -9.3577    -3.8630  H       1  <O>11       0.1731
  32 H3        6.5187    -7.8865    -1.0719  H       1  <O>11       0.0626
  33 H4        8.8573    -7.2966    -0.8040  H       1  <O>11       0.0618
  34 H5       10.5950    -8.9039    -1.3589  H       1  <O>11       0.0618
  35 H6        9.9788   -11.1081    -2.1754  H       1  <O>11       0.0646
  36 H7        0.9443    -9.7723    -2.5929  H       1  <O>11       0.0625
  37 H8       -1.3953   -10.3778    -2.8679  H       1  <O>11       0.0618
  38 H9       -2.2197   -11.1068    -5.0362  H       1  <O>11       0.0637
  39 H10      -1.2381    -8.6478    -8.2173  H       1  <O>11       0.0637
  40 H11      -0.3180    -7.2549    -9.9777  H       1  <O>11       0.0619
  41 H12       1.1993    -8.2095   -11.6233  H       1  <O>11       0.0646
  42 H13       0.8803   -11.9639    -9.7382  H       1  <O>11       0.0665
  43 H14       1.6389   -10.6156    -6.6617  H       1  <O>11       0.0644
@<TRIPOS>BOND
     1     1     2    2
     2     2     3   am
     3     3     4    1
     4     4     5   am
     5     5     6    2
     6     5     7    1
     7     7     8   ar
     8     8     9   ar
     9     9    10   ar
    10    10    11   ar
    11    11    12   ar
    12     7    12   ar
    13    12    13    1
    14     2    14    1
    15    14    15   ar
    16    15    16   ar
    17    16    17   ar
    18    17    18   ar
    19    18    19    1
    20    19    20    2
    21    19    21    2
    22    19    22    1
    23    22    23   ar
    24    23    24   ar
    25    24    25   ar
    26    25    26   ar
    27    26    27    1
    28    26    28   ar
    29    22    28   ar
    30    18    29   ar
    31    14    29   ar
    32     3    30    1
    33     4    31    1
    34     8    32    1
    35     9    33    1
    36    10    34    1
    37    11    35    1
    38    15    36    1
    39    16    37    1
    40    17    38    1
    41    23    39    1
    42    24    40    1
    43    25    41    1
    44    28    42    1
    45    29    43    1
@<TRIPOS>MOLECULE
mol89_1_11
 43 45 0 0 0
SMALL
USER_CHARGES
****
VDW energy = 166.37
@<TRIPOS>ATOM
   1 O1        3.4420    -9.1855    -5.2979  O.2     1  <O>11      -0.2687
   2 C1        2.8552    -9.8129    -4.4288  C.2     1  <O>11       0.2602
   3 N1        3.5160   -10.1860    -3.2900  N.am    1  <O>11      -0.2301
   4 N2        2.8557   -10.8918    -2.3123  N.am    1  <O>11      -0.2300
   5 C2        3.5263   -11.3001    -1.1921  C.2     1  <O>11       0.2629
   6 O2        2.9396   -11.9283    -0.3237  O.2     1  <O>11      -0.2686
   7 C3        4.9402   -10.9875    -1.0345  C.ar    1  <O>11       0.0733
   8 C4        5.3387    -9.7513    -0.4997  C.ar    1  <O>11      -0.0468
   9 C5        6.6974    -9.4476    -0.3611  C.ar    1  <O>11      -0.0609
  10 C6        7.6693   -10.3733    -0.7492  C.ar    1  <O>11      -0.0590
  11 C7        7.2728   -11.6080    -1.2742  C.ar    1  <O>11      -0.0257
  12 C8        5.9195   -11.9197    -1.4165  C.ar    1  <O>11       0.1355
  13 F1        5.5308   -13.1325    -1.9269  F       1  <O>11      -0.2047
  14 C9        1.4620   -10.1610    -4.6040  C.ar    1  <O>11       0.0400
  15 C10       0.4940    -9.5232    -3.8258  C.ar    1  <O>11      -0.0495
  16 C11      -0.8542    -9.8644    -3.9819  C.ar    1  <O>11      -0.0592
  17 C12      -1.2315   -10.8349    -4.9134  C.ar    1  <O>11      -0.0364
  18 C13      -0.2498   -11.4614    -5.6903  C.ar    1  <O>11       0.0943
  19 S1       -0.7316   -12.6825    -6.8627  S.O2    1  <O>11       0.0252
  20 O3       -2.3556   -12.5382    -7.1760  O.2     1  <O>11      -0.1643
  21 O4       -0.4186   -14.1933    -6.2483  O.2     1  <O>11      -0.1643
  22 C14       0.1815   -12.4544    -8.3610  C.ar    1  <O>11       0.0963
  23 C15      -0.0093   -11.3008    -9.1407  C.ar    1  <O>11      -0.0363
  24 C16       0.7026   -11.1270   -10.3316  C.ar    1  <O>11      -0.0572
  25 C17       1.6157   -12.0985   -10.7535  C.ar    1  <O>11      -0.0263
  26 C18       1.8115   -13.2434    -9.9728  C.ar    1  <O>11       0.1252
  27 F2        2.7095   -14.1926   -10.3902  F       1  <O>11      -0.2054
  28 C19       1.1069   -13.4252    -8.7824  C.ar    1  <O>11      -0.0012
  29 C20       1.0963   -11.1269    -5.5441  C.ar    1  <O>11      -0.0243
  30 H1        4.4984    -9.9405    -3.1657  H       1  <O>11       0.1731
  31 H2        1.8654   -11.1108    -2.4228  H       1  <O>11       0.1731
  32 H3        4.6263    -9.0640    -0.2078  H       1  <O>11       0.0626
  33 H4        6.9829    -8.5361     0.0294  H       1  <O>11       0.0618
  34 H5        8.6714   -10.1481    -0.6494  H       1  <O>11       0.0618
  35 H6        7.9880   -12.2953    -1.5592  H       1  <O>11       0.0646
  36 H7        0.7711    -8.8042    -3.1393  H       1  <O>11       0.0625
  37 H8       -1.5725    -9.3973    -3.4067  H       1  <O>11       0.0618
  38 H9       -2.2255   -11.0879    -5.0278  H       1  <O>11       0.0637
  39 H10      -0.6785   -10.5780    -8.8325  H       1  <O>11       0.0637
  40 H11       0.5537   -10.2791   -10.9009  H       1  <O>11       0.0619
  41 H12       2.1406   -11.9724   -11.6330  H       1  <O>11       0.0646
  42 H13       1.2648   -14.2708    -8.2123  H       1  <O>11       0.0665
  43 H14       1.8143   -11.5882    -6.1242  H       1  <O>11       0.0644
@<TRIPOS>BOND
     1     1     2    2
     2     2     3   am
     3     3     4    1
     4     4     5   am
     5     5     6    2
     6     5     7    1
     7     7     8   ar
     8     8     9   ar
     9     9    10   ar
    10    10    11   ar
    11    11    12   ar
    12     7    12   ar
    13    12    13    1
    14     2    14    1
    15    14    15   ar
    16    15    16   ar
    17    16    17   ar
    18    17    18   ar
    19    18    19    1
    20    19    20    2
    21    19    21    2
    22    19    22    1
    23    22    23   ar
    24    23    24   ar
    25    24    25   ar
    26    25    26   ar
    27    26    27    1
    28    26    28   ar
    29    22    28   ar
    30    18    29   ar
    31    14    29   ar
    32     3    30    1
    33     4    31    1
    34     8    32    1
    35     9    33    1
    36    10    34    1
    37    11    35    1
    38    15    36    1
    39    16    37    1
    40    17    38    1
    41    23    39    1
    42    24    40    1
    43    25    41    1
    44    28    42    1
    45    29    43    1
@<TRIPOS>MOLECULE
mol89_1_12
 43 45 0 0 0
SMALL
USER_CHARGES
****
VDW energy = 166.42
@<TRIPOS>ATOM
   1 O1        3.4420    -9.1855    -5.2979  O.2     1  <O>11      -0.2687
   2 C1        2.8552    -9.8129    -4.4288  C.2     1  <O>11       0.2602
   3 N1        3.5160   -10.1860    -3.2900  N.am    1  <O>11      -0.2301
   4 N2        4.8400    -9.8550    -3.1240  N.am    1  <O>11      -0.2300
   5 C2        5.4899   -10.1922    -1.9686  C.2     1  <O>11       0.2629
   6 O2        4.8939   -10.7882    -1.0839  O.2     1  <O>11      -0.2686
   7 C3        6.8929    -9.8422    -1.7925  C.ar    1  <O>11       0.0733
   8 C4        7.7773   -10.7425    -1.1759  C.ar    1  <O>11      -0.0468
   9 C5        9.1216   -10.3994    -0.9960  C.ar    1  <O>11      -0.0609
  10 C6        9.5968    -9.1600    -1.4323  C.ar    1  <O>11      -0.0590
  11 C7        8.7181    -8.2662    -2.0539  C.ar    1  <O>11      -0.0257
  12 C8        7.3750    -8.5998    -2.2375  C.ar    1  <O>11       0.1355
  13 F1        6.5145    -7.7252    -2.8515  F       1  <O>11      -0.2047
  14 C9        1.4620   -10.1610    -4.6040  C.ar    1  <O>11       0.0400
  15 C10       0.4940    -9.5232    -3.8258  C.ar    1  <O>11      -0.0495
  16 C11      -0.8542    -9.8644    -3.9819  C.ar    1  <O>11      -0.0592
  17 C12      -1.2315   -10.8349    -4.9134  C.ar    1  <O>11      -0.0364
  18 C13      -0.2498   -11.4614    -5.6903  C.ar    1  <O>11       0.0943
  19 S1       -0.7316   -12.6825    -6.8627  S.O2    1  <O>11       0.0252
  20 O3       -2.3556   -12.5382    -7.1760  O.2     1  <O>11      -0.1643
  21 O4       -0.4186   -14.1933    -6.2483  O.2     1  <O>11      -0.1643
  22 C14       0.1815   -12.4544    -8.3610  C.ar    1  <O>11       0.0963
  23 C15       1.4142   -13.1030    -8.5475  C.ar    1  <O>11      -0.0363
  24 C16       2.1421   -12.9120    -9.7261  C.ar    1  <O>11      -0.0572
  25 C17       1.6453   -12.0774   -10.7322  C.ar    1  <O>11      -0.0263
  26 C18       0.4139   -11.4380   -10.5496  C.ar    1  <O>11       0.1252
  27 F2       -0.0699   -10.6217   -11.5403  F       1  <O>11      -0.2054
  28 C19      -0.3203   -11.6233    -9.3779  C.ar    1  <O>11      -0.0012
  29 C20       1.0963   -11.1269    -5.5441  C.ar    1  <O>11      -0.0243
  30 H1        3.0270   -10.7100    -2.5640  H       1  <O>11       0.1731
  31 H2        5.3373    -9.3577    -3.8630  H       1  <O>11       0.1731
  32 H3        7.4339   -11.6611    -0.8541  H       1  <O>11       0.0626
  33 H4        9.7650   -11.0644    -0.5391  H       1  <O>11       0.0618
  34 H5       10.5878    -8.9059    -1.2971  H       1  <O>11       0.0618
  35 H6        9.0663    -7.3511    -2.3801  H       1  <O>11       0.0646
  36 H7        0.7711    -8.8042    -3.1393  H       1  <O>11       0.0625
  37 H8       -1.5725    -9.3973    -3.4067  H       1  <O>11       0.0618
  38 H9       -2.2255   -11.0879    -5.0278  H       1  <O>11       0.0637
  39 H10       1.7842   -13.7237    -7.8106  H       1  <O>11       0.0637
  40 H11       3.0487   -13.3884    -9.8538  H       1  <O>11       0.0619
  41 H12       2.1821   -11.9342   -11.6019  H       1  <O>11       0.0646
  42 H13      -1.2301   -11.1512    -9.2578  H       1  <O>11       0.0665
  43 H14       1.8143   -11.5882    -6.1242  H       1  <O>11       0.0644
@<TRIPOS>BOND
     1     1     2    2
     2     2     3   am
     3     3     4    1
     4     4     5   am
     5     5     6    2
     6     5     7    1
     7     7     8   ar
     8     8     9   ar
     9     9    10   ar
    10    10    11   ar
    11    11    12   ar
    12     7    12   ar
    13    12    13    1
    14     2    14    1
    15    14    15   ar
    16    15    16   ar
    17    16    17   ar
    18    17    18   ar
    19    18    19    1
    20    19    20    2
    21    19    21    2
    22    19    22    1
    23    22    23   ar
    24    23    24   ar
    25    24    25   ar
    26    25    26   ar
    27    26    27    1
    28    26    28   ar
    29    22    28   ar
    30    18    29   ar
    31    14    29   ar
    32     3    30    1
    33     4    31    1
    34     8    32    1
    35     9    33    1
    36    10    34    1
    37    11    35    1
    38    15    36    1
    39    16    37    1
    40    17    38    1
    41    23    39    1
    42    24    40    1
    43    25    41    1
    44    28    42    1
    45    29    43    1
@<TRIPOS>MOLECULE
mol89_1_13
 43 45 0 0 0
SMALL
USER_CHARGES
****
VDW energy = 166.47
@<TRIPOS>ATOM
   1 O1        3.4420    -9.1855    -5.2979  O.2     1  <O>11      -0.2687
   2 C1        2.8552    -9.8129    -4.4288  C.2     1  <O>11       0.2602
   3 N1        3.5160   -10.1860    -3.2900  N.am    1  <O>11      -0.2301
   4 N2        4.8400    -9.8550    -3.1240  N.am    1  <O>11      -0.2300
   5 C2        5.4899   -10.1922    -1.9686  C.2     1  <O>11       0.2629
   6 O2        6.6663    -9.8970    -1.8207  O.2     1  <O>11      -0.2686
   7 C3        4.7797   -10.9021    -0.9133  C.ar    1  <O>11       0.0733
   8 C4        4.1077   -10.1899     0.0938  C.ar    1  <O>11      -0.0468
   9 C5        3.4371   -10.8735     1.1137  C.ar    1  <O>11      -0.0609
  10 C6        3.4263   -12.2704     1.1367  C.ar    1  <O>11      -0.0590
  11 C7        4.0884   -12.9803     0.1292  C.ar    1  <O>11      -0.0257
  12 C8        4.7605   -12.3068    -0.8924  C.ar    1  <O>11       0.1355
  13 F1        5.4057   -13.0031    -1.8830  F       1  <O>11      -0.2047
  14 C9        1.4620   -10.1610    -4.6040  C.ar    1  <O>11       0.0400
  15 C10       0.4940    -9.5232    -3.8258  C.ar    1  <O>11      -0.0495
  16 C11      -0.8542    -9.8644    -3.9819  C.ar    1  <O>11      -0.0592
  17 C12      -1.2315   -10.8349    -4.9134  C.ar    1  <O>11      -0.0364
  18 C13      -0.2498   -11.4614    -5.6903  C.ar    1  <O>11       0.0943
  19 S1       -0.7316   -12.6825    -6.8627  S.O2    1  <O>11       0.0252
  20 O3       -2.3556   -12.5382    -7.1760  O.2     1  <O>11      -0.1643
  21 O4       -0.4186   -14.1933    -6.2483  O.2     1  <O>11      -0.1643
  22 C14       0.1815   -12.4544    -8.3610  C.ar    1  <O>11       0.0963
  23 C15      -0.0093   -11.3008    -9.1407  C.ar    1  <O>11      -0.0363
  24 C16       0.7026   -11.1270   -10.3316  C.ar    1  <O>11      -0.0572
  25 C17       1.6157   -12.0985   -10.7535  C.ar    1  <O>11      -0.0263
  26 C18       1.8115   -13.2434    -9.9728  C.ar    1  <O>11       0.1252
  27 F2        2.7095   -14.1926   -10.3902  F       1  <O>11      -0.2054
  28 C19       1.1069   -13.4252    -8.7824  C.ar    1  <O>11      -0.0012
  29 C20       1.0963   -11.1269    -5.5441  C.ar    1  <O>11      -0.0243
  30 H1        3.0270   -10.7100    -2.5640  H       1  <O>11       0.1731
  31 H2        5.3373    -9.3577    -3.8630  H       1  <O>11       0.1731
  32 H3        4.1087    -9.1579     0.0812  H       1  <O>11       0.0626
  33 H4        2.9484   -10.3437     1.8522  H       1  <O>11       0.0618
  34 H5        2.9338   -12.7745     1.8905  H       1  <O>11       0.0618
  35 H6        4.0800   -14.0122     0.1414  H       1  <O>11       0.0646
  36 H7        0.7711    -8.8042    -3.1393  H       1  <O>11       0.0625
  37 H8       -1.5725    -9.3973    -3.4067  H       1  <O>11       0.0618
  38 H9       -2.2255   -11.0879    -5.0278  H       1  <O>11       0.0637
  39 H10      -0.6785   -10.5780    -8.8325  H       1  <O>11       0.0637
  40 H11       0.5537   -10.2791   -10.9009  H       1  <O>11       0.0619
  41 H12       2.1406   -11.9724   -11.6330  H       1  <O>11       0.0646
  42 H13       1.2648   -14.2708    -8.2123  H       1  <O>11       0.0665
  43 H14       1.8143   -11.5882    -6.1242  H       1  <O>11       0.0644
@<TRIPOS>BOND
     1     1     2    2
     2     2     3   am
     3     3     4    1
     4     4     5   am
     5     5     6    2
     6     5     7    1
     7     7     8   ar
     8     8     9   ar
     9     9    10   ar
    10    10    11   ar
    11    11    12   ar
    12     7    12   ar
    13    12    13    1
    14     2    14    1
    15    14    15   ar
    16    15    16   ar
    17    16    17   ar
    18    17    18   ar
    19    18    19    1
    20    19    20    2
    21    19    21    2
    22    19    22    1
    23    22    23   ar
    24    23    24   ar
    25    24    25   ar
    26    25    26   ar
    27    26    27    1
    28    26    28   ar
    29    22    28   ar
    30    18    29   ar
    31    14    29   ar
    32     3    30    1
    33     4    31    1
    34     8    32    1
    35     9    33    1
    36    10    34    1
    37    11    35    1
    38    15    36    1
    39    16    37    1
    40    17    38    1
    41    23    39    1
    42    24    40    1
    43    25    41    1
    44    28    42    1
    45    29    43    1
@<TRIPOS>MOLECULE
mol89_1_14
 43 45 0 0 0
SMALL
USER_CHARGES
****
VDW energy = 166.65
@<TRIPOS>ATOM
   1 O1        3.4420    -9.1855    -5.2979  O.2     1  <O>11      -0.2687
   2 C1        2.8552    -9.8129    -4.4288  C.2     1  <O>11       0.2602
   3 N1        3.5160   -10.1860    -3.2900  N.am    1  <O>11      -0.2301
   4 N2        4.8400    -9.8550    -3.1240  N.am    1  <O>11      -0.2300
   5 C2        5.4899   -10.1922    -1.9686  C.2     1  <O>11       0.2629
   6 O2        6.6663    -9.8970    -1.8207  O.2     1  <O>11      -0.2686
   7 C3        4.7797   -10.9021    -0.9133  C.ar    1  <O>11       0.0733
   8 C4        4.6712   -12.3022    -0.9481  C.ar    1  <O>11      -0.0468
   9 C5        3.9776   -12.9813     0.0594  C.ar    1  <O>11      -0.0609
  10 C6        3.3907   -12.2729     1.1111  C.ar    1  <O>11      -0.0590
  11 C7        3.5055   -10.8791     1.1506  C.ar    1  <O>11      -0.0257
  12 C8        4.1955   -10.1929     0.1495  C.ar    1  <O>11       0.1355
  13 F1        4.3122    -8.8265     0.1910  F       1  <O>11      -0.2047
  14 C9        1.4620   -10.1610    -4.6040  C.ar    1  <O>11       0.0400
  15 C10       0.4940    -9.5232    -3.8258  C.ar    1  <O>11      -0.0495
  16 C11      -0.8542    -9.8644    -3.9819  C.ar    1  <O>11      -0.0592
  17 C12      -1.2315   -10.8349    -4.9134  C.ar    1  <O>11      -0.0364
  18 C13      -0.2498   -11.4614    -5.6903  C.ar    1  <O>11       0.0943
  19 S1       -0.7316   -12.6825    -6.8627  S.O2    1  <O>11       0.0252
  20 O3       -2.3556   -12.5382    -7.1760  O.2     1  <O>11      -0.1643
  21 O4       -0.4186   -14.1933    -6.2483  O.2     1  <O>11      -0.1643
  22 C14       0.1815   -12.4544    -8.3610  C.ar    1  <O>11       0.0963
  23 C15      -0.0093   -11.3008    -9.1407  C.ar    1  <O>11      -0.0363
  24 C16       0.7026   -11.1270   -10.3316  C.ar    1  <O>11      -0.0572
  25 C17       1.6157   -12.0985   -10.7535  C.ar    1  <O>11      -0.0263
  26 C18       1.8115   -13.2434    -9.9728  C.ar    1  <O>11       0.1252
  27 F2        2.7095   -14.1926   -10.3902  F       1  <O>11      -0.2054
  28 C19       1.1069   -13.4252    -8.7824  C.ar    1  <O>11      -0.0012
  29 C20       1.0963   -11.1269    -5.5441  C.ar    1  <O>11      -0.0243
  30 H1        3.0270   -10.7100    -2.5640  H       1  <O>11       0.1731
  31 H2        5.3373    -9.3577    -3.8630  H       1  <O>11       0.1731
  32 H3        5.1050   -12.8321    -1.7201  H       1  <O>11       0.0626
  33 H4        3.8990   -14.0097     0.0256  H       1  <O>11       0.0618
  34 H5        2.8768   -12.7737     1.8527  H       1  <O>11       0.0618
  35 H6        3.0759   -10.3529     1.9275  H       1  <O>11       0.0646
  36 H7        0.7711    -8.8042    -3.1393  H       1  <O>11       0.0625
  37 H8       -1.5725    -9.3973    -3.4067  H       1  <O>11       0.0618
  38 H9       -2.2255   -11.0879    -5.0278  H       1  <O>11       0.0637
  39 H10      -0.6785   -10.5780    -8.8325  H       1  <O>11       0.0637
  40 H11       0.5537   -10.2791   -10.9009  H       1  <O>11       0.0619
  41 H12       2.1406   -11.9724   -11.6330  H       1  <O>11       0.0646
  42 H13       1.2648   -14.2708    -8.2123  H       1  <O>11       0.0665
  43 H14       1.8143   -11.5882    -6.1242  H       1  <O>11       0.0644
@<TRIPOS>BOND
     1     1     2    2
     2     2     3   am
     3     3     4    1
     4     4     5   am
     5     5     6    2
     6     5     7    1
     7     7     8   ar
     8     8     9   ar
     9     9    10   ar
    10    10    11   ar
    11    11    12   ar
    12     7    12   ar
    13    12    13    1
    14     2    14    1
    15    14    15   ar
    16    15    16   ar
    17    16    17   ar
    18    17    18   ar
    19    18    19    1
    20    19    20    2
    21    19    21    2
    22    19    22    1
    23    22    23   ar
    24    23    24   ar
    25    24    25   ar
    26    25    26   ar
    27    26    27    1
    28    26    28   ar
    29    22    28   ar
    30    18    29   ar
    31    14    29   ar
    32     3    30    1
    33     4    31    1
    34     8    32    1
    35     9    33    1
    36    10    34    1
    37    11    35    1
    38    15    36    1
    39    16    37    1
    40    17    38    1
    41    23    39    1
    42    24    40    1
    43    25    41    1
    44    28    42    1
    45    29    43    1
@<TRIPOS>MOLECULE
mol89_1_15
 43 45 0 0 0
SMALL
USER_CHARGES
****
VDW energy = 166.82
@<TRIPOS>ATOM
   1 O1        3.4420    -9.1855    -5.2979  O.2     1  <O>11      -0.2687
   2 C1        2.8552    -9.8129    -4.4288  C.2     1  <O>11       0.2602
   3 N1        3.5160   -10.1860    -3.2900  N.am    1  <O>11      -0.2301
   4 N2        4.8400    -9.8550    -3.1240  N.am    1  <O>11      -0.2300
   5 C2        5.4899   -10.1922    -1.9686  C.2     1  <O>11       0.2629
   6 O2        4.8939   -10.7882    -1.0839  O.2     1  <O>11      -0.2686
   7 C3        6.8929    -9.8422    -1.7925  C.ar    1  <O>11       0.0733
   8 C4        7.3610    -9.3899    -0.5479  C.ar    1  <O>11      -0.0468
   9 C5        8.7062    -9.0418    -0.3841  C.ar    1  <O>11      -0.0609
  10 C6        9.5962    -9.1455    -1.4562  C.ar    1  <O>11      -0.0590
  11 C7        9.1321    -9.6038    -2.6939  C.ar    1  <O>11      -0.0257
  12 C8        7.7915    -9.9532    -2.8668  C.ar    1  <O>11       0.1355
  13 F1        7.3376   -10.4072    -4.0792  F       1  <O>11      -0.2047
  14 C9        1.4620   -10.1610    -4.6040  C.ar    1  <O>11       0.0400
  15 C10       1.1306   -11.3698    -5.2192  C.ar    1  <O>11      -0.0495
  16 C11      -0.2153   -11.7066    -5.4026  C.ar    1  <O>11      -0.0592
  17 C12      -1.2229   -10.8409    -4.9699  C.ar    1  <O>11      -0.0364
  18 C13      -0.8747    -9.6351    -4.3496  C.ar    1  <O>11       0.0943
  19 S1       -2.1487    -8.5493    -3.8059  S.O2    1  <O>11       0.0252
  20 O3       -3.5805    -9.3837    -3.7039  O.2     1  <O>11      -0.1643
  21 O4       -2.3116    -7.3011    -4.8891  O.2     1  <O>11      -0.1643
  22 C14      -1.7297    -7.8985    -2.2148  C.ar    1  <O>11       0.0963
  23 C15      -1.6591    -8.7466    -1.0964  C.ar    1  <O>11      -0.0363
  24 C16      -1.3411    -8.2298     0.1635  C.ar    1  <O>11      -0.0572
  25 C17      -1.0847    -6.8639     0.3192  C.ar    1  <O>11      -0.0263
  26 C18      -1.1471    -6.0209    -0.7962  C.ar    1  <O>11       0.1252
  27 F2       -0.8930    -4.6821    -0.6384  F       1  <O>11      -0.2054
  28 C19      -1.4623    -6.5273    -2.0574  C.ar    1  <O>11      -0.0012
  29 C20       0.4636    -9.2913    -4.1600  C.ar    1  <O>11      -0.0243
  30 H1        3.0270   -10.7100    -2.5640  H       1  <O>11       0.1731
  31 H2        5.3373    -9.3577    -3.8630  H       1  <O>11       0.1731
  32 H3        6.7100    -9.3139     0.2493  H       1  <O>11       0.0626
  33 H4        9.0425    -8.7070     0.5322  H       1  <O>11       0.0618
  34 H5       10.5878    -8.8862    -1.3361  H       1  <O>11       0.0618
  35 H6        9.7873    -9.6845    -3.4872  H       1  <O>11       0.0646
  36 H7        1.8739   -12.0113    -5.5368  H       1  <O>11       0.0625
  37 H8       -0.4644   -12.5978    -5.8593  H       1  <O>11       0.0618
  38 H9       -2.2155   -11.0882    -5.1063  H       1  <O>11       0.0637
  39 H10      -1.8429    -9.7562    -1.2055  H       1  <O>11       0.0637
  40 H11      -1.2955    -8.8583     0.9808  H       1  <O>11       0.0619
  41 H12      -0.8514    -6.4808     1.2486  H       1  <O>11       0.0646
  42 H13      -1.4990    -5.8964    -2.8733  H       1  <O>11       0.0665
  43 H14       0.7134    -8.4037    -3.6966  H       1  <O>11       0.0644
@<TRIPOS>BOND
     1     1     2    2
     2     2     3   am
     3     3     4    1
     4     4     5   am
     5     5     6    2
     6     5     7    1
     7     7     8   ar
     8     8     9   ar
     9     9    10   ar
    10    10    11   ar
    11    11    12   ar
    12     7    12   ar
    13    12    13    1
    14     2    14    1
    15    14    15   ar
    16    15    16   ar
    17    16    17   ar
    18    17    18   ar
    19    18    19    1
    20    19    20    2
    21    19    21    2
    22    19    22    1
    23    22    23   ar
    24    23    24   ar
    25    24    25   ar
    26    25    26   ar
    27    26    27    1
    28    26    28   ar
    29    22    28   ar
    30    18    29   ar
    31    14    29   ar
    32     3    30    1
    33     4    31    1
    34     8    32    1
    35     9    33    1
    36    10    34    1
    37    11    35    1
    38    15    36    1
    39    16    37    1
    40    17    38    1
    41    23    39    1
    42    24    40    1
    43    25    41    1
    44    28    42    1
    45    29    43    1
@<TRIPOS>MOLECULE
mol89_1_16
 43 45 0 0 0
SMALL
USER_CHARGES
****
VDW energy = 166.95
@<TRIPOS>ATOM
   1 O1        3.4420    -9.1855    -5.2979  O.2     1  <O>11      -0.2687
   2 C1        2.8552    -9.8129    -4.4288  C.2     1  <O>11       0.2602
   3 N1        3.5160   -10.1860    -3.2900  N.am    1  <O>11      -0.2301
   4 N2        4.8400    -9.8550    -3.1240  N.am    1  <O>11      -0.2300
   5 C2        5.4899   -10.1922    -1.9686  C.2     1  <O>11       0.2629
   6 O2        6.6663    -9.8970    -1.8207  O.2     1  <O>11      -0.2686
   7 C3        4.7797   -10.9021    -0.9133  C.ar    1  <O>11       0.0733
   8 C4        4.1077   -10.1899     0.0938  C.ar    1  <O>11      -0.0468
   9 C5        3.4371   -10.8735     1.1137  C.ar    1  <O>11      -0.0609
  10 C6        3.4263   -12.2704     1.1367  C.ar    1  <O>11      -0.0590
  11 C7        4.0884   -12.9803     0.1292  C.ar    1  <O>11      -0.0257
  12 C8        4.7605   -12.3068    -0.8924  C.ar    1  <O>11       0.1355
  13 F1        5.4057   -13.0031    -1.8830  F       1  <O>11      -0.2047
  14 C9        1.4620   -10.1610    -4.6040  C.ar    1  <O>11       0.0400
  15 C10       0.4940    -9.5232    -3.8258  C.ar    1  <O>11      -0.0495
  16 C11      -0.8542    -9.8644    -3.9819  C.ar    1  <O>11      -0.0592
  17 C12      -1.2315   -10.8349    -4.9134  C.ar    1  <O>11      -0.0364
  18 C13      -0.2498   -11.4614    -5.6903  C.ar    1  <O>11       0.0943
  19 S1       -0.7316   -12.6825    -6.8627  S.O2    1  <O>11       0.0252
  20 O3       -2.1015   -13.4530    -6.3277  O.2     1  <O>11      -0.1643
  21 O4        0.4923   -13.7906    -7.0421  O.2     1  <O>11      -0.1643
  22 C14      -1.0592   -11.9085    -8.4197  C.ar    1  <O>11       0.0963
  23 C15      -0.0308   -11.7489    -9.3641  C.ar    1  <O>11      -0.0363
  24 C16      -0.2869   -11.1250   -10.5892  C.ar    1  <O>11      -0.0572
  25 C17      -1.5717   -10.6599   -10.8867  C.ar    1  <O>11      -0.0263
  26 C18      -2.5975   -10.8262    -9.9493  C.ar    1  <O>11       0.1252
  27 F2       -3.8564   -10.3698   -10.2467  F       1  <O>11      -0.2054
  28 C19      -2.3522   -11.4485    -8.7250  C.ar    1  <O>11      -0.0012
  29 C20       1.0963   -11.1269    -5.5441  C.ar    1  <O>11      -0.0243
  30 H1        3.0270   -10.7100    -2.5640  H       1  <O>11       0.1731
  31 H2        5.3373    -9.3577    -3.8630  H       1  <O>11       0.1731
  32 H3        4.1087    -9.1579     0.0812  H       1  <O>11       0.0626
  33 H4        2.9484   -10.3437     1.8522  H       1  <O>11       0.0618
  34 H5        2.9338   -12.7745     1.8905  H       1  <O>11       0.0618
  35 H6        4.0800   -14.0122     0.1414  H       1  <O>11       0.0646
  36 H7        0.7711    -8.8042    -3.1393  H       1  <O>11       0.0625
  37 H8       -1.5725    -9.3973    -3.4067  H       1  <O>11       0.0618
  38 H9       -2.2255   -11.0879    -5.0278  H       1  <O>11       0.0637
  39 H10       0.9185   -12.0939    -9.1524  H       1  <O>11       0.0637
  40 H11       0.4746   -11.0076   -11.2758  H       1  <O>11       0.0619
  41 H12      -1.7618   -10.1979   -11.7897  H       1  <O>11       0.0646
  42 H13      -3.1185   -11.5709    -8.0446  H       1  <O>11       0.0665
  43 H14       1.8143   -11.5882    -6.1242  H       1  <O>11       0.0644
@<TRIPOS>BOND
     1     1     2    2
     2     2     3   am
     3     3     4    1
     4     4     5   am
     5     5     6    2
     6     5     7    1
     7     7     8   ar
     8     8     9   ar
     9     9    10   ar
    10    10    11   ar
    11    11    12   ar
    12     7    12   ar
    13    12    13    1
    14     2    14    1
    15    14    15   ar
    16    15    16   ar
    17    16    17   ar
    18    17    18   ar
    19    18    19    1
    20    19    20    2
    21    19    21    2
    22    19    22    1
    23    22    23   ar
    24    23    24   ar
    25    24    25   ar
    26    25    26   ar
    27    26    27    1
    28    26    28   ar
    29    22    28   ar
    30    18    29   ar
    31    14    29   ar
    32     3    30    1
    33     4    31    1
    34     8    32    1
    35     9    33    1
    36    10    34    1
    37    11    35    1
    38    15    36    1
    39    16    37    1
    40    17    38    1
    41    23    39    1
    42    24    40    1
    43    25    41    1
    44    28    42    1
    45    29    43    1
@<TRIPOS>MOLECULE
mol89_1_17
 43 45 0 0 0
SMALL
USER_CHARGES
****
VDW energy = 167.16
@<TRIPOS>ATOM
   1 O1        3.4420    -9.1855    -5.2979  O.2     1  <O>11      -0.2687
   2 C1        2.8552    -9.8129    -4.4288  C.2     1  <O>11       0.2602
   3 N1        3.5160   -10.1860    -3.2900  N.am    1  <O>11      -0.2301
   4 N2        4.8400    -9.8550    -3.1240  N.am    1  <O>11      -0.2300
   5 C2        5.4899   -10.1922    -1.9686  C.2     1  <O>11       0.2629
   6 O2        6.6663    -9.8970    -1.8207  O.2     1  <O>11      -0.2686
   7 C3        4.7797   -10.9021    -0.9133  C.ar    1  <O>11       0.0733
   8 C4        4.1077   -10.1899     0.0938  C.ar    1  <O>11      -0.0468
   9 C5        3.4371   -10.8735     1.1137  C.ar    1  <O>11      -0.0609
  10 C6        3.4263   -12.2704     1.1367  C.ar    1  <O>11      -0.0590
  11 C7        4.0884   -12.9803     0.1292  C.ar    1  <O>11      -0.0257
  12 C8        4.7605   -12.3068    -0.8924  C.ar    1  <O>11       0.1355
  13 F1        5.4057   -13.0031    -1.8830  F       1  <O>11      -0.2047
  14 C9        1.4620   -10.1610    -4.6040  C.ar    1  <O>11       0.0400
  15 C10       0.4940    -9.5232    -3.8258  C.ar    1  <O>11      -0.0495
  16 C11      -0.8542    -9.8644    -3.9819  C.ar    1  <O>11      -0.0592
  17 C12      -1.2315   -10.8349    -4.9134  C.ar    1  <O>11      -0.0364
  18 C13      -0.2498   -11.4614    -5.6903  C.ar    1  <O>11       0.0943
  19 S1       -0.7316   -12.6825    -6.8627  S.O2    1  <O>11       0.0252
  20 O3       -2.1015   -13.4530    -6.3277  O.2     1  <O>11      -0.1643
  21 O4        0.4923   -13.7906    -7.0421  O.2     1  <O>11      -0.1643
  22 C14      -1.0592   -11.9085    -8.4197  C.ar    1  <O>11       0.0963
  23 C15      -2.1392   -11.0198    -8.5581  C.ar    1  <O>11      -0.0363
  24 C16      -2.4060   -10.4186    -9.7921  C.ar    1  <O>11      -0.0572
  25 C17      -1.5954   -10.6929   -10.8981  C.ar    1  <O>11      -0.0263
  26 C18      -0.5152   -11.5716   -10.7580  C.ar    1  <O>11       0.1252
  27 F2        0.2779   -11.8360   -11.8456  F       1  <O>11      -0.2054
  28 C19      -0.2401   -12.1753    -9.5307  C.ar    1  <O>11      -0.0012
  29 C20       1.0963   -11.1269    -5.5441  C.ar    1  <O>11      -0.0243
  30 H1        3.0270   -10.7100    -2.5640  H       1  <O>11       0.1731
  31 H2        5.3373    -9.3577    -3.8630  H       1  <O>11       0.1731
  32 H3        4.1087    -9.1579     0.0812  H       1  <O>11       0.0626
  33 H4        2.9484   -10.3437     1.8522  H       1  <O>11       0.0618
  34 H5        2.9338   -12.7745     1.8905  H       1  <O>11       0.0618
  35 H6        4.0800   -14.0122     0.1414  H       1  <O>11       0.0646
  36 H7        0.7711    -8.8042    -3.1393  H       1  <O>11       0.0625
  37 H8       -1.5725    -9.3973    -3.4067  H       1  <O>11       0.0618
  38 H9       -2.2255   -11.0879    -5.0278  H       1  <O>11       0.0637
  39 H10      -2.7385   -10.8099    -7.7445  H       1  <O>11       0.0637
  40 H11      -3.2035    -9.7705    -9.8868  H       1  <O>11       0.0619
  41 H12      -1.7920   -10.2511   -11.8098  H       1  <O>11       0.0646
  42 H13       0.5632   -12.8166    -9.4386  H       1  <O>11       0.0665
  43 H14       1.8143   -11.5882    -6.1242  H       1  <O>11       0.0644
@<TRIPOS>BOND
     1     1     2    2
     2     2     3   am
     3     3     4    1
     4     4     5   am
     5     5     6    2
     6     5     7    1
     7     7     8   ar
     8     8     9   ar
     9     9    10   ar
    10    10    11   ar
    11    11    12   ar
    12     7    12   ar
    13    12    13    1
    14     2    14    1
    15    14    15   ar
    16    15    16   ar
    17    16    17   ar
    18    17    18   ar
    19    18    19    1
    20    19    20    2
    21    19    21    2
    22    19    22    1
    23    22    23   ar
    24    23    24   ar
    25    24    25   ar
    26    25    26   ar
    27    26    27    1
    28    26    28   ar
    29    22    28   ar
    30    18    29   ar
    31    14    29   ar
    32     3    30    1
    33     4    31    1
    34     8    32    1
    35     9    33    1
    36    10    34    1
    37    11    35    1
    38    15    36    1
    39    16    37    1
    40    17    38    1
    41    23    39    1
    42    24    40    1
    43    25    41    1
    44    28    42    1
    45    29    43    1
@<TRIPOS>MOLECULE
mol89_1_18
 43 45 0 0 0
SMALL
USER_CHARGES
****
VDW energy = 168.00
@<TRIPOS>ATOM
   1 O1        3.4420    -9.1855    -5.2979  O.2     1  <O>11      -0.2687
   2 C1        2.8552    -9.8129    -4.4288  C.2     1  <O>11       0.2602
   3 N1        3.5160   -10.1860    -3.2900  N.am    1  <O>11      -0.2301
   4 N2        2.8557   -10.8918    -2.3123  N.am    1  <O>11      -0.2300
   5 C2        3.5263   -11.3001    -1.1921  C.2     1  <O>11       0.2629
   6 O2        2.9396   -11.9283    -0.3237  O.2     1  <O>11      -0.2686
   7 C3        4.9402   -10.9875    -1.0345  C.ar    1  <O>11       0.0733
   8 C4        5.3387    -9.7513    -0.4997  C.ar    1  <O>11      -0.0468
   9 C5        6.6974    -9.4476    -0.3611  C.ar    1  <O>11      -0.0609
  10 C6        7.6693   -10.3733    -0.7492  C.ar    1  <O>11      -0.0590
  11 C7        7.2728   -11.6080    -1.2742  C.ar    1  <O>11      -0.0257
  12 C8        5.9195   -11.9197    -1.4165  C.ar    1  <O>11       0.1355
  13 F1        5.5308   -13.1325    -1.9269  F       1  <O>11      -0.2047
  14 C9        1.4620   -10.1610    -4.6040  C.ar    1  <O>11       0.0400
  15 C10       0.4940    -9.5232    -3.8258  C.ar    1  <O>11      -0.0495
  16 C11      -0.8542    -9.8644    -3.9819  C.ar    1  <O>11      -0.0592
  17 C12      -1.2315   -10.8349    -4.9134  C.ar    1  <O>11      -0.0364
  18 C13      -0.2498   -11.4614    -5.6903  C.ar    1  <O>11       0.0943
  19 S1       -0.7316   -12.6825    -6.8627  S.O2    1  <O>11       0.0252
  20 O3        0.6144   -13.2608    -7.6439  O.2     1  <O>11      -0.1643
  21 O4       -1.7673   -12.0070    -7.9713  O.2     1  <O>11      -0.1643
  22 C14      -1.5470   -14.0125    -6.0279  C.ar    1  <O>11       0.0963
  23 C15      -0.8389   -14.8266    -5.1274  C.ar    1  <O>11      -0.0363
  24 C16      -1.4802   -15.8860    -4.4778  C.ar    1  <O>11      -0.0572
  25 C17      -2.8347   -16.1400    -4.7153  C.ar    1  <O>11      -0.0263
  26 C18      -3.5417   -15.3241    -5.6059  C.ar    1  <O>11       0.1252
  27 F2       -4.8706   -15.5765    -5.8339  F       1  <O>11      -0.2054
  28 C19      -2.9110   -14.2640    -6.2577  C.ar    1  <O>11      -0.0012
  29 C20       1.0963   -11.1269    -5.5441  C.ar    1  <O>11      -0.0243
  30 H1        4.4984    -9.9405    -3.1657  H       1  <O>11       0.1731
  31 H2        1.8654   -11.1108    -2.4228  H       1  <O>11       0.1731
  32 H3        4.6263    -9.0640    -0.2078  H       1  <O>11       0.0626
  33 H4        6.9829    -8.5361     0.0294  H       1  <O>11       0.0618
  34 H5        8.6714   -10.1481    -0.6494  H       1  <O>11       0.0618
  35 H6        7.9880   -12.2953    -1.5592  H       1  <O>11       0.0646
  36 H7        0.7711    -8.8042    -3.1393  H       1  <O>11       0.0625
  37 H8       -1.5725    -9.3973    -3.4067  H       1  <O>11       0.0618
  38 H9       -2.2255   -11.0879    -5.0278  H       1  <O>11       0.0637
  39 H10       0.1598   -14.6416    -4.9445  H       1  <O>11       0.0637
  40 H11      -0.9523   -16.4821    -3.8213  H       1  <O>11       0.0619
  41 H12      -3.3090   -16.9224    -4.2378  H       1  <O>11       0.0646
  42 H13      -3.4447   -13.6656    -6.9073  H       1  <O>11       0.0665
  43 H14       1.8143   -11.5882    -6.1242  H       1  <O>11       0.0644
@<TRIPOS>BOND
     1     1     2    2
     2     2     3   am
     3     3     4    1
     4     4     5   am
     5     5     6    2
     6     5     7    1
     7     7     8   ar
     8     8     9   ar
     9     9    10   ar
    10    10    11   ar
    11    11    12   ar
    12     7    12   ar
    13    12    13    1
    14     2    14    1
    15    14    15   ar
    16    15    16   ar
    17    16    17   ar
    18    17    18   ar
    19    18    19    1
    20    19    20    2
    21    19    21    2
    22    19    22    1
    23    22    23   ar
    24    23    24   ar
    25    24    25   ar
    26    25    26   ar
    27    26    27    1
    28    26    28   ar
    29    22    28   ar
    30    18    29   ar
    31    14    29   ar
    32     3    30    1
    33     4    31    1
    34     8    32    1
    35     9    33    1
    36    10    34    1
    37    11    35    1
    38    15    36    1
    39    16    37    1
    40    17    38    1
    41    23    39    1
    42    24    40    1
    43    25    41    1
    44    28    42    1
    45    29    43    1
@<TRIPOS>MOLECULE
mol89_1_19
 43 45 0 0 0
SMALL
USER_CHARGES
****
VDW energy = 168.06
@<TRIPOS>ATOM
   1 O1        3.4420    -9.1855    -5.2979  O.2     1  <O>11      -0.2687
   2 C1        2.8552    -9.8129    -4.4288  C.2     1  <O>11       0.2602
   3 N1        3.5160   -10.1860    -3.2900  N.am    1  <O>11      -0.2301
   4 N2        2.8557   -10.8918    -2.3123  N.am    1  <O>11      -0.2300
   5 C2        3.5263   -11.3001    -1.1921  C.2     1  <O>11       0.2629
   6 O2        4.7121   -11.0371    -1.0600  O.2     1  <O>11      -0.2686
   7 C3        2.8269   -12.0474    -0.1557  C.ar    1  <O>11       0.0733
   8 C4        3.0875   -11.7936     1.2010  C.ar    1  <O>11      -0.0468
   9 C5        2.4243   -12.5214     2.1950  C.ar    1  <O>11      -0.0609
  10 C6        1.4938   -13.5037     1.8465  C.ar    1  <O>11      -0.0590
  11 C7        1.2278   -13.7511     0.4954  C.ar    1  <O>11      -0.0257
  12 C8        1.8849   -13.0301    -0.5033  C.ar    1  <O>11       0.1355
  13 F1        1.6203   -13.2695    -1.8281  F       1  <O>11      -0.2047
  14 C9        1.4620   -10.1610    -4.6040  C.ar    1  <O>11       0.0400
  15 C10       0.4940    -9.5232    -3.8258  C.ar    1  <O>11      -0.0495
  16 C11      -0.8542    -9.8644    -3.9819  C.ar    1  <O>11      -0.0592
  17 C12      -1.2315   -10.8349    -4.9134  C.ar    1  <O>11      -0.0364
  18 C13      -0.2498   -11.4614    -5.6903  C.ar    1  <O>11       0.0943
  19 S1       -0.7316   -12.6825    -6.8627  S.O2    1  <O>11       0.0252
  20 O3       -2.3556   -12.5382    -7.1760  O.2     1  <O>11      -0.1643
  21 O4       -0.4186   -14.1933    -6.2483  O.2     1  <O>11      -0.1643
  22 C14       0.1815   -12.4544    -8.3610  C.ar    1  <O>11       0.0963
  23 C15      -0.0093   -11.3008    -9.1407  C.ar    1  <O>11      -0.0363
  24 C16       0.7026   -11.1270   -10.3316  C.ar    1  <O>11      -0.0572
  25 C17       1.6157   -12.0985   -10.7535  C.ar    1  <O>11      -0.0263
  26 C18       1.8115   -13.2434    -9.9728  C.ar    1  <O>11       0.1252
  27 F2        2.7095   -14.1926   -10.3902  F       1  <O>11      -0.2054
  28 C19       1.1069   -13.4252    -8.7824  C.ar    1  <O>11      -0.0012
  29 C20       1.0963   -11.1269    -5.5441  C.ar    1  <O>11      -0.0243
  30 H1        4.4984    -9.9405    -3.1657  H       1  <O>11       0.1731
  31 H2        1.8654   -11.1108    -2.4228  H       1  <O>11       0.1731
  32 H3        3.7711   -11.0672     1.4658  H       1  <O>11       0.0626
  33 H4        2.6232   -12.3319     3.1897  H       1  <O>11       0.0618
  34 H5        1.0067   -14.0423     2.5796  H       1  <O>11       0.0618
  35 H6        0.5389   -14.4739     0.2344  H       1  <O>11       0.0646
  36 H7        0.7711    -8.8042    -3.1393  H       1  <O>11       0.0625
  37 H8       -1.5725    -9.3973    -3.4067  H       1  <O>11       0.0618
  38 H9       -2.2255   -11.0879    -5.0278  H       1  <O>11       0.0637
  39 H10      -0.6785   -10.5780    -8.8325  H       1  <O>11       0.0637
  40 H11       0.5537   -10.2791   -10.9009  H       1  <O>11       0.0619
  41 H12       2.1406   -11.9724   -11.6330  H       1  <O>11       0.0646
  42 H13       1.2648   -14.2708    -8.2123  H       1  <O>11       0.0665
  43 H14       1.8143   -11.5882    -6.1242  H       1  <O>11       0.0644
@<TRIPOS>BOND
     1     1     2    2
     2     2     3   am
     3     3     4    1
     4     4     5   am
     5     5     6    2
     6     5     7    1
     7     7     8   ar
     8     8     9   ar
     9     9    10   ar
    10    10    11   ar
    11    11    12   ar
    12     7    12   ar
    13    12    13    1
    14     2    14    1
    15    14    15   ar
    16    15    16   ar
    17    16    17   ar
    18    17    18   ar
    19    18    19    1
    20    19    20    2
    21    19    21    2
    22    19    22    1
    23    22    23   ar
    24    23    24   ar
    25    24    25   ar
    26    25    26   ar
    27    26    27    1
    28    26    28   ar
    29    22    28   ar
    30    18    29   ar
    31    14    29   ar
    32     3    30    1
    33     4    31    1
    34     8    32    1
    35     9    33    1
    36    10    34    1
    37    11    35    1
    38    15    36    1
    39    16    37    1
    40    17    38    1
    41    23    39    1
    42    24    40    1
    43    25    41    1
    44    28    42    1
    45    29    43    1
@<TRIPOS>MOLECULE
mol89_1_20
 43 45 0 0 0
SMALL
USER_CHARGES
****
VDW energy = 168.25
@<TRIPOS>ATOM
   1 O1        3.4420    -9.1855    -5.2979  O.2     1  <O>11      -0.2687
   2 C1        2.8552    -9.8129    -4.4288  C.2     1  <O>11       0.2602
   3 N1        3.5160   -10.1860    -3.2900  N.am    1  <O>11      -0.2301
   4 N2        4.8400    -9.8550    -3.1240  N.am    1  <O>11      -0.2300
   5 C2        5.4899   -10.1922    -1.9686  C.2     1  <O>11       0.2629
   6 O2        4.8941   -10.7887    -1.0841  O.2     1  <O>11      -0.2686
   7 C3        6.8927    -9.8417    -1.7923  C.ar    1  <O>11       0.0733
   8 C4        7.2522    -8.5719    -1.3111  C.ar    1  <O>11      -0.0468
   9 C5        8.6005    -8.2325    -1.1548  C.ar    1  <O>11      -0.0609
  10 C6        9.6005    -9.1553    -1.4717  C.ar    1  <O>11      -0.0590
  11 C7        9.2428   -10.4230    -1.9431  C.ar    1  <O>11      -0.0257
  12 C8        7.9001   -10.7705    -2.1026  C.ar    1  <O>11       0.1355
  13 F1        7.5493   -12.0154    -2.5603  F       1  <O>11      -0.2047
  14 C9        1.4620   -10.1610    -4.6040  C.ar    1  <O>11       0.0400
  15 C10       0.5946   -10.0837    -3.5126  C.ar    1  <O>11      -0.0495
  16 C11      -0.7516   -10.4309    -3.6727  C.ar    1  <O>11      -0.0592
  17 C12      -1.2274   -10.8492    -4.9180  C.ar    1  <O>11      -0.0364
  18 C13      -0.3466   -10.9160    -6.0041  C.ar    1  <O>11       0.0943
  19 S1       -0.9524   -11.4428    -7.5704  S.O2    1  <O>11       0.0252
  20 O3        0.2870   -11.4311    -8.6751  O.2     1  <O>11      -0.1643
  21 O4       -2.1529   -10.4119    -8.0745  O.2     1  <O>11      -0.1643
  22 C14      -1.6031   -13.0821    -7.4302  C.ar    1  <O>11       0.0963
  23 C15      -0.7520   -14.1619    -7.1391  C.ar    1  <O>11      -0.0363
  24 C16      -1.2644   -15.4594    -7.0416  C.ar    1  <O>11      -0.0572
  25 C17      -2.6308   -15.6918    -7.2274  C.ar    1  <O>11      -0.0263
  26 C18      -3.4795   -14.6152    -7.5092  C.ar    1  <O>11       0.1252
  27 F2       -4.8193   -14.8483    -7.6889  F       1  <O>11      -0.2054
  28 C19      -2.9779   -13.3171    -7.6072  C.ar    1  <O>11      -0.0012
  29 C20       0.9963   -10.5699    -5.8555  C.ar    1  <O>11      -0.0243
  30 H1        3.0270   -10.7100    -2.5640  H       1  <O>11       0.1731
  31 H2        5.3373    -9.3577    -3.8630  H       1  <O>11       0.1731
  32 H3        6.5187    -7.8865    -1.0719  H       1  <O>11       0.0626
  33 H4        8.8573    -7.2966    -0.8040  H       1  <O>11       0.0618
  34 H5       10.5950    -8.9039    -1.3589  H       1  <O>11       0.0618
  35 H6        9.9788   -11.1081    -2.1754  H       1  <O>11       0.0646
  36 H7        0.9443    -9.7723    -2.5929  H       1  <O>11       0.0625
  37 H8       -1.3953   -10.3778    -2.8679  H       1  <O>11       0.0618
  38 H9       -2.2197   -11.1068    -5.0362  H       1  <O>11       0.0637
  39 H10       0.2567   -13.9964    -6.9965  H       1  <O>11       0.0637
  40 H11      -0.6323   -16.2477    -6.8318  H       1  <O>11       0.0619
  41 H12      -3.0102   -16.6490    -7.1572  H       1  <O>11       0.0646
  42 H13      -3.6149   -12.5307    -7.8093  H       1  <O>11       0.0665
  43 H14       1.6389   -10.6156    -6.6617  H       1  <O>11       0.0644
@<TRIPOS>BOND
     1     1     2    2
     2     2     3   am
     3     3     4    1
     4     4     5   am
     5     5     6    2
     6     5     7    1
     7     7     8   ar
     8     8     9   ar
     9     9    10   ar
    10    10    11   ar
    11    11    12   ar
    12     7    12   ar
    13    12    13    1
    14     2    14    1
    15    14    15   ar
    16    15    16   ar
    17    16    17   ar
    18    17    18   ar
    19    18    19    1
    20    19    20    2
    21    19    21    2
    22    19    22    1
    23    22    23   ar
    24    23    24   ar
    25    24    25   ar
    26    25    26   ar
    27    26    27    1
    28    26    28   ar
    29    22    28   ar
    30    18    29   ar
    31    14    29   ar
    32     3    30    1
    33     4    31    1
    34     8    32    1
    35     9    33    1
    36    10    34    1
    37    11    35    1
    38    15    36    1
    39    16    37    1
    40    17    38    1
    41    23    39    1
    42    24    40    1
    43    25    41    1
    44    28    42    1
    45    29    43    1
@<TRIPOS>MOLECULE
mol89_1_21
 43 45 0 0 0
SMALL
USER_CHARGES
****
VDW energy = 168.73
@<TRIPOS>ATOM
   1 O1        3.4420    -9.1855    -5.2979  O.2     1  <O>11      -0.2687
   2 C1        2.8552    -9.8129    -4.4288  C.2     1  <O>11       0.2602
   3 N1        3.5160   -10.1860    -3.2900  N.am    1  <O>11      -0.2301
   4 N2        4.8400    -9.8550    -3.1240  N.am    1  <O>11      -0.2300
   5 C2        5.4899   -10.1922    -1.9686  C.2     1  <O>11       0.2629
   6 O2        6.6663    -9.8970    -1.8207  O.2     1  <O>11      -0.2686
   7 C3        4.7797   -10.9021    -0.9133  C.ar    1  <O>11       0.0733
   8 C4        4.6712   -12.3022    -0.9481  C.ar    1  <O>11      -0.0468
   9 C5        3.9776   -12.9813     0.0594  C.ar    1  <O>11      -0.0609
  10 C6        3.3907   -12.2729     1.1111  C.ar    1  <O>11      -0.0590
  11 C7        3.5055   -10.8791     1.1506  C.ar    1  <O>11      -0.0257
  12 C8        4.1955   -10.1929     0.1495  C.ar    1  <O>11       0.1355
  13 F1        4.3122    -8.8265     0.1910  F       1  <O>11      -0.2047
  14 C9        1.4620   -10.1610    -4.6040  C.ar    1  <O>11       0.0400
  15 C10       0.5946   -10.0837    -3.5126  C.ar    1  <O>11      -0.0495
  16 C11      -0.7516   -10.4309    -3.6727  C.ar    1  <O>11      -0.0592
  17 C12      -1.2274   -10.8492    -4.9180  C.ar    1  <O>11      -0.0364
  18 C13      -0.3466   -10.9160    -6.0041  C.ar    1  <O>11       0.0943
  19 S1       -0.9524   -11.4428    -7.5704  S.O2    1  <O>11       0.0252
  20 O3       -2.6078   -11.3188    -7.5934  O.2     1  <O>11      -0.1643
  21 O4       -0.5120   -13.0227    -7.8310  O.2     1  <O>11      -0.1643
  22 C14      -0.2658   -10.4218    -8.8420  C.ar    1  <O>11       0.0963
  23 C15      -0.5980    -9.0582    -8.9151  C.ar    1  <O>11      -0.0363
  24 C16      -0.0659    -8.2545    -9.9281  C.ar    1  <O>11      -0.0572
  25 C17       0.8069    -8.8010   -10.8742  C.ar    1  <O>11      -0.0263
  26 C18       1.1439   -10.1572   -10.7964  C.ar    1  <O>11       0.1252
  27 F2        2.0019   -10.6880   -11.7259  F       1  <O>11      -0.2054
  28 C19       0.6192   -10.9668    -9.7887  C.ar    1  <O>11      -0.0012
  29 C20       0.9963   -10.5699    -5.8555  C.ar    1  <O>11      -0.0243
  30 H1        3.0270   -10.7100    -2.5640  H       1  <O>11       0.1731
  31 H2        5.3373    -9.3577    -3.8630  H       1  <O>11       0.1731
  32 H3        5.1050   -12.8321    -1.7201  H       1  <O>11       0.0626
  33 H4        3.8990   -14.0097     0.0256  H       1  <O>11       0.0618
  34 H5        2.8768   -12.7737     1.8527  H       1  <O>11       0.0618
  35 H6        3.0759   -10.3529     1.9275  H       1  <O>11       0.0646
  36 H7        0.9443    -9.7723    -2.5929  H       1  <O>11       0.0625
  37 H8       -1.3953   -10.3778    -2.8679  H       1  <O>11       0.0618
  38 H9       -2.2197   -11.1068    -5.0362  H       1  <O>11       0.0637
  39 H10      -1.2381    -8.6478    -8.2173  H       1  <O>11       0.0637
  40 H11      -0.3180    -7.2549    -9.9777  H       1  <O>11       0.0619
  41 H12       1.1993    -8.2095   -11.6233  H       1  <O>11       0.0646
  42 H13       0.8803   -11.9639    -9.7382  H       1  <O>11       0.0665
  43 H14       1.6389   -10.6156    -6.6617  H       1  <O>11       0.0644
@<TRIPOS>BOND
     1     1     2    2
     2     2     3   am
     3     3     4    1
     4     4     5   am
     5     5     6    2
     6     5     7    1
     7     7     8   ar
     8     8     9   ar
     9     9    10   ar
    10    10    11   ar
    11    11    12   ar
    12     7    12   ar
    13    12    13    1
    14     2    14    1
    15    14    15   ar
    16    15    16   ar
    17    16    17   ar
    18    17    18   ar
    19    18    19    1
    20    19    20    2
    21    19    21    2
    22    19    22    1
    23    22    23   ar
    24    23    24   ar
    25    24    25   ar
    26    25    26   ar
    27    26    27    1
    28    26    28   ar
    29    22    28   ar
    30    18    29   ar
    31    14    29   ar
    32     3    30    1
    33     4    31    1
    34     8    32    1
    35     9    33    1
    36    10    34    1
    37    11    35    1
    38    15    36    1
    39    16    37    1
    40    17    38    1
    41    23    39    1
    42    24    40    1
    43    25    41    1
    44    28    42    1
    45    29    43    1
@<TRIPOS>MOLECULE
mol89_1_22
 43 45 0 0 0
SMALL
USER_CHARGES
****
VDW energy = 168.83
@<TRIPOS>ATOM
   1 O1        3.4420    -9.1855    -5.2979  O.2     1  <O>11      -0.2687
   2 C1        2.8552    -9.8129    -4.4288  C.2     1  <O>11       0.2602
   3 N1        3.5160   -10.1860    -3.2900  N.am    1  <O>11      -0.2301
   4 N2        2.8557   -10.8918    -2.3123  N.am    1  <O>11      -0.2300
   5 C2        2.3091   -12.1121    -2.6003  C.2     1  <O>11       0.2629
   6 O2        2.4080   -12.5755    -3.7266  O.2     1  <O>11      -0.2686
   7 C3        1.6099   -12.8605    -1.5645  C.ar    1  <O>11       0.0733
   8 C4        1.7609   -14.2539    -1.4707  C.ar    1  <O>11      -0.0468
   9 C5        1.0784   -14.9726    -0.4833  C.ar    1  <O>11      -0.0609
  10 C6        0.2443   -14.3099     0.4207  C.ar    1  <O>11      -0.0590
  11 C7        0.1000   -12.9211     0.3329  C.ar    1  <O>11      -0.0257
  12 C8        0.7768   -12.1956    -0.6492  C.ar    1  <O>11       0.1355
  13 F1        0.6390   -10.8330    -0.7321  F       1  <O>11      -0.2047
  14 C9        1.4620   -10.1610    -4.6040  C.ar    1  <O>11       0.0400
  15 C10       0.4940    -9.5232    -3.8258  C.ar    1  <O>11      -0.0495
  16 C11      -0.8542    -9.8644    -3.9819  C.ar    1  <O>11      -0.0592
  17 C12      -1.2315   -10.8349    -4.9134  C.ar    1  <O>11      -0.0364
  18 C13      -0.2498   -11.4614    -5.6903  C.ar    1  <O>11       0.0943
  19 S1       -0.7316   -12.6825    -6.8627  S.O2    1  <O>11       0.0252
  20 O3       -2.3556   -12.5382    -7.1760  O.2     1  <O>11      -0.1643
  21 O4       -0.4186   -14.1933    -6.2483  O.2     1  <O>11      -0.1643
  22 C14       0.1815   -12.4544    -8.3610  C.ar    1  <O>11       0.0963
  23 C15      -0.0093   -11.3008    -9.1407  C.ar    1  <O>11      -0.0363
  24 C16       0.7026   -11.1270   -10.3316  C.ar    1  <O>11      -0.0572
  25 C17       1.6157   -12.0985   -10.7535  C.ar    1  <O>11      -0.0263
  26 C18       1.8115   -13.2434    -9.9728  C.ar    1  <O>11       0.1252
  27 F2        2.7095   -14.1926   -10.3902  F       1  <O>11      -0.2054
  28 C19       1.1069   -13.4252    -8.7824  C.ar    1  <O>11      -0.0012
  29 C20       1.0963   -11.1269    -5.5441  C.ar    1  <O>11      -0.0243
  30 H1        4.4984    -9.9405    -3.1657  H       1  <O>11       0.1731
  31 H2        2.7736   -10.5047    -1.3719  H       1  <O>11       0.1731
  32 H3        2.3779   -14.7495    -2.1331  H       1  <O>11       0.0626
  33 H4        1.1915   -15.9966    -0.4225  H       1  <O>11       0.0618
  34 H5       -0.2612   -14.8405     1.1473  H       1  <O>11       0.0618
  35 H6       -0.5130   -12.4279     1.0009  H       1  <O>11       0.0646
  36 H7        0.7711    -8.8042    -3.1393  H       1  <O>11       0.0625
  37 H8       -1.5725    -9.3973    -3.4067  H       1  <O>11       0.0618
  38 H9       -2.2255   -11.0879    -5.0278  H       1  <O>11       0.0637
  39 H10      -0.6785   -10.5780    -8.8325  H       1  <O>11       0.0637
  40 H11       0.5537   -10.2791   -10.9009  H       1  <O>11       0.0619
  41 H12       2.1406   -11.9724   -11.6330  H       1  <O>11       0.0646
  42 H13       1.2648   -14.2708    -8.2123  H       1  <O>11       0.0665
  43 H14       1.8143   -11.5882    -6.1242  H       1  <O>11       0.0644
@<TRIPOS>BOND
     1     1     2    2
     2     2     3   am
     3     3     4    1
     4     4     5   am
     5     5     6    2
     6     5     7    1
     7     7     8   ar
     8     8     9   ar
     9     9    10   ar
    10    10    11   ar
    11    11    12   ar
    12     7    12   ar
    13    12    13    1
    14     2    14    1
    15    14    15   ar
    16    15    16   ar
    17    16    17   ar
    18    17    18   ar
    19    18    19    1
    20    19    20    2
    21    19    21    2
    22    19    22    1
    23    22    23   ar
    24    23    24   ar
    25    24    25   ar
    26    25    26   ar
    27    26    27    1
    28    26    28   ar
    29    22    28   ar
    30    18    29   ar
    31    14    29   ar
    32     3    30    1
    33     4    31    1
    34     8    32    1
    35     9    33    1
    36    10    34    1
    37    11    35    1
    38    15    36    1
    39    16    37    1
    40    17    38    1
    41    23    39    1
    42    24    40    1
    43    25    41    1
    44    28    42    1
    45    29    43    1
@<TRIPOS>MOLECULE
mol89_1_23
 43 45 0 0 0
SMALL
USER_CHARGES
****
VDW energy = 169.08
@<TRIPOS>ATOM
   1 O1        3.4420    -9.1855    -5.2979  O.2     1  <O>11      -0.2687
   2 C1        2.8552    -9.8129    -4.4288  C.2     1  <O>11       0.2602
   3 N1        3.5160   -10.1860    -3.2900  N.am    1  <O>11      -0.2301
   4 N2        4.8400    -9.8550    -3.1240  N.am    1  <O>11      -0.2300
   5 C2        5.4899   -10.1922    -1.9686  C.2     1  <O>11       0.2629
   6 O2        6.6663    -9.8970    -1.8207  O.2     1  <O>11      -0.2686
   7 C3        4.7797   -10.9021    -0.9133  C.ar    1  <O>11       0.0733
   8 C4        4.6712   -12.3022    -0.9481  C.ar    1  <O>11      -0.0468
   9 C5        3.9776   -12.9813     0.0594  C.ar    1  <O>11      -0.0609
  10 C6        3.3907   -12.2729     1.1111  C.ar    1  <O>11      -0.0590
  11 C7        3.5055   -10.8791     1.1506  C.ar    1  <O>11      -0.0257
  12 C8        4.1955   -10.1929     0.1495  C.ar    1  <O>11       0.1355
  13 F1        4.3122    -8.8265     0.1910  F       1  <O>11      -0.2047
  14 C9        1.4620   -10.1610    -4.6040  C.ar    1  <O>11       0.0400
  15 C10       0.4940    -9.5232    -3.8258  C.ar    1  <O>11      -0.0495
  16 C11      -0.8542    -9.8644    -3.9819  C.ar    1  <O>11      -0.0592
  17 C12      -1.2315   -10.8349    -4.9134  C.ar    1  <O>11      -0.0364
  18 C13      -0.2498   -11.4614    -5.6903  C.ar    1  <O>11       0.0943
  19 S1       -0.7316   -12.6825    -6.8627  S.O2    1  <O>11       0.0252
  20 O3        0.6144   -13.2608    -7.6439  O.2     1  <O>11      -0.1643
  21 O4       -1.7673   -12.0070    -7.9713  O.2     1  <O>11      -0.1643
  22 C14      -1.5470   -14.0125    -6.0279  C.ar    1  <O>11       0.0963
  23 C15      -0.8389   -14.8266    -5.1274  C.ar    1  <O>11      -0.0363
  24 C16      -1.4802   -15.8860    -4.4778  C.ar    1  <O>11      -0.0572
  25 C17      -2.8347   -16.1400    -4.7153  C.ar    1  <O>11      -0.0263
  26 C18      -3.5417   -15.3241    -5.6059  C.ar    1  <O>11       0.1252
  27 F2       -4.8706   -15.5765    -5.8339  F       1  <O>11      -0.2054
  28 C19      -2.9110   -14.2640    -6.2577  C.ar    1  <O>11      -0.0012
  29 C20       1.0963   -11.1269    -5.5441  C.ar    1  <O>11      -0.0243
  30 H1        3.0270   -10.7100    -2.5640  H       1  <O>11       0.1731
  31 H2        5.3373    -9.3577    -3.8630  H       1  <O>11       0.1731
  32 H3        5.1050   -12.8321    -1.7201  H       1  <O>11       0.0626
  33 H4        3.8990   -14.0097     0.0256  H       1  <O>11       0.0618
  34 H5        2.8768   -12.7737     1.8527  H       1  <O>11       0.0618
  35 H6        3.0759   -10.3529     1.9275  H       1  <O>11       0.0646
  36 H7        0.7711    -8.8042    -3.1393  H       1  <O>11       0.0625
  37 H8       -1.5725    -9.3973    -3.4067  H       1  <O>11       0.0618
  38 H9       -2.2255   -11.0879    -5.0278  H       1  <O>11       0.0637
  39 H10       0.1598   -14.6416    -4.9445  H       1  <O>11       0.0637
  40 H11      -0.9523   -16.4821    -3.8213  H       1  <O>11       0.0619
  41 H12      -3.3090   -16.9224    -4.2378  H       1  <O>11       0.0646
  42 H13      -3.4447   -13.6656    -6.9073  H       1  <O>11       0.0665
  43 H14       1.8143   -11.5882    -6.1242  H       1  <O>11       0.0644
@<TRIPOS>BOND
     1     1     2    2
     2     2     3   am
     3     3     4    1
     4     4     5   am
     5     5     6    2
     6     5     7    1
     7     7     8   ar
     8     8     9   ar
     9     9    10   ar
    10    10    11   ar
    11    11    12   ar
    12     7    12   ar
    13    12    13    1
    14     2    14    1
    15    14    15   ar
    16    15    16   ar
    17    16    17   ar
    18    17    18   ar
    19    18    19    1
    20    19    20    2
    21    19    21    2
    22    19    22    1
    23    22    23   ar
    24    23    24   ar
    25    24    25   ar
    26    25    26   ar
    27    26    27    1
    28    26    28   ar
    29    22    28   ar
    30    18    29   ar
    31    14    29   ar
    32     3    30    1
    33     4    31    1
    34     8    32    1
    35     9    33    1
    36    10    34    1
    37    11    35    1
    38    15    36    1
    39    16    37    1
    40    17    38    1
    41    23    39    1
    42    24    40    1
    43    25    41    1
    44    28    42    1
    45    29    43    1
@<TRIPOS>MOLECULE
mol89_1_24
 43 45 0 0 0
SMALL
USER_CHARGES
****
VDW energy = 169.30
@<TRIPOS>ATOM
   1 O1        3.4420    -9.1855    -5.2979  O.2     1  <O>11      -0.2687
   2 C1        2.8552    -9.8129    -4.4288  C.2     1  <O>11       0.2602
   3 N1        3.5160   -10.1860    -3.2900  N.am    1  <O>11      -0.2301
   4 N2        4.8400    -9.8550    -3.1240  N.am    1  <O>11      -0.2300
   5 C2        5.4899   -10.1922    -1.9686  C.2     1  <O>11       0.2629
   6 O2        6.6663    -9.8970    -1.8207  O.2     1  <O>11      -0.2686
   7 C3        4.7797   -10.9021    -0.9133  C.ar    1  <O>11       0.0733
   8 C4        4.6712   -12.3022    -0.9481  C.ar    1  <O>11      -0.0468
   9 C5        3.9776   -12.9813     0.0594  C.ar    1  <O>11      -0.0609
  10 C6        3.3907   -12.2729     1.1111  C.ar    1  <O>11      -0.0590
  11 C7        3.5055   -10.8791     1.1506  C.ar    1  <O>11      -0.0257
  12 C8        4.1955   -10.1929     0.1495  C.ar    1  <O>11       0.1355
  13 F1        4.3122    -8.8265     0.1910  F       1  <O>11      -0.2047
  14 C9        1.4620   -10.1610    -4.6040  C.ar    1  <O>11       0.0400
  15 C10       0.4940    -9.5232    -3.8258  C.ar    1  <O>11      -0.0495
  16 C11      -0.8542    -9.8644    -3.9819  C.ar    1  <O>11      -0.0592
  17 C12      -1.2315   -10.8349    -4.9134  C.ar    1  <O>11      -0.0364
  18 C13      -0.2498   -11.4614    -5.6903  C.ar    1  <O>11       0.0943
  19 S1       -0.7316   -12.6825    -6.8627  S.O2    1  <O>11       0.0252
  20 O3        0.3355   -12.6795    -8.1347  O.2     1  <O>11      -0.1643
  21 O4       -2.2584   -12.3421    -7.4204  O.2     1  <O>11      -0.1643
  22 C14      -0.7269   -14.2750    -6.0915  C.ar    1  <O>11       0.0963
  23 C15      -1.8849   -14.7632    -5.4626  C.ar    1  <O>11      -0.0363
  24 C16      -1.8770   -16.0161    -4.8414  C.ar    1  <O>11      -0.0572
  25 C17      -0.7166   -16.7964    -4.8465  C.ar    1  <O>11      -0.0263
  26 C18       0.4342   -16.3134    -5.4799  C.ar    1  <O>11       0.1252
  27 F2        1.5694   -17.0835    -5.4836  F       1  <O>11      -0.2054
  28 C19       0.4357   -15.0653    -6.1034  C.ar    1  <O>11      -0.0012
  29 C20       1.0963   -11.1269    -5.5441  C.ar    1  <O>11      -0.0243
  30 H1        3.0270   -10.7100    -2.5640  H       1  <O>11       0.1731
  31 H2        5.3373    -9.3577    -3.8630  H       1  <O>11       0.1731
  32 H3        5.1050   -12.8321    -1.7201  H       1  <O>11       0.0626
  33 H4        3.8990   -14.0097     0.0256  H       1  <O>11       0.0618
  34 H5        2.8768   -12.7737     1.8527  H       1  <O>11       0.0618
  35 H6        3.0759   -10.3529     1.9275  H       1  <O>11       0.0646
  36 H7        0.7711    -8.8042    -3.1393  H       1  <O>11       0.0625
  37 H8       -1.5725    -9.3973    -3.4067  H       1  <O>11       0.0618
  38 H9       -2.2255   -11.0879    -5.0278  H       1  <O>11       0.0637
  39 H10      -2.7458   -14.1941    -5.4591  H       1  <O>11       0.0637
  40 H11      -2.7302   -16.3658    -4.3779  H       1  <O>11       0.0619
  41 H12      -0.7088   -17.7205    -4.3872  H       1  <O>11       0.0646
  42 H13       1.2888   -14.7230    -6.5726  H       1  <O>11       0.0665
  43 H14       1.8143   -11.5882    -6.1242  H       1  <O>11       0.0644
@<TRIPOS>BOND
     1     1     2    2
     2     2     3   am
     3     3     4    1
     4     4     5   am
     5     5     6    2
     6     5     7    1
     7     7     8   ar
     8     8     9   ar
     9     9    10   ar
    10    10    11   ar
    11    11    12   ar
    12     7    12   ar
    13    12    13    1
    14     2    14    1
    15    14    15   ar
    16    15    16   ar
    17    16    17   ar
    18    17    18   ar
    19    18    19    1
    20    19    20    2
    21    19    21    2
    22    19    22    1
    23    22    23   ar
    24    23    24   ar
    25    24    25   ar
    26    25    26   ar
    27    26    27    1
    28    26    28   ar
    29    22    28   ar
    30    18    29   ar
    31    14    29   ar
    32     3    30    1
    33     4    31    1
    34     8    32    1
    35     9    33    1
    36    10    34    1
    37    11    35    1
    38    15    36    1
    39    16    37    1
    40    17    38    1
    41    23    39    1
    42    24    40    1
    43    25    41    1
    44    28    42    1
    45    29    43    1
@<TRIPOS>MOLECULE
mol89_1_25
 43 45 0 0 0
SMALL
USER_CHARGES
****
VDW energy = 169.34
@<TRIPOS>ATOM
   1 O1        3.4420    -9.1855    -5.2979  O.2     1  <O>11      -0.2687
   2 C1        2.8552    -9.8129    -4.4288  C.2     1  <O>11       0.2602
   3 N1        3.5160   -10.1860    -3.2900  N.am    1  <O>11      -0.2301
   4 N2        4.8400    -9.8550    -3.1240  N.am    1  <O>11      -0.2300
   5 C2        5.4899   -10.1922    -1.9686  C.2     1  <O>11       0.2629
   6 O2        6.6663    -9.8970    -1.8207  O.2     1  <O>11      -0.2686
   7 C3        4.7797   -10.9021    -0.9133  C.ar    1  <O>11       0.0733
   8 C4        4.6712   -12.3022    -0.9481  C.ar    1  <O>11      -0.0468
   9 C5        3.9776   -12.9813     0.0594  C.ar    1  <O>11      -0.0609
  10 C6        3.3907   -12.2729     1.1111  C.ar    1  <O>11      -0.0590
  11 C7        3.5055   -10.8791     1.1506  C.ar    1  <O>11      -0.0257
  12 C8        4.1955   -10.1929     0.1495  C.ar    1  <O>11       0.1355
  13 F1        4.3122    -8.8265     0.1910  F       1  <O>11      -0.2047
  14 C9        1.4620   -10.1610    -4.6040  C.ar    1  <O>11       0.0400
  15 C10       0.4940    -9.5232    -3.8258  C.ar    1  <O>11      -0.0495
  16 C11      -0.8542    -9.8644    -3.9819  C.ar    1  <O>11      -0.0592
  17 C12      -1.2315   -10.8349    -4.9134  C.ar    1  <O>11      -0.0364
  18 C13      -0.2498   -11.4614    -5.6903  C.ar    1  <O>11       0.0943
  19 S1       -0.7316   -12.6825    -6.8627  S.O2    1  <O>11       0.0252
  20 O3        0.6144   -13.2608    -7.6439  O.2     1  <O>11      -0.1643
  21 O4       -1.7673   -12.0070    -7.9713  O.2     1  <O>11      -0.1643
  22 C14      -1.5470   -14.0125    -6.0279  C.ar    1  <O>11       0.0963
  23 C15      -0.8095   -15.1074    -5.5460  C.ar    1  <O>11      -0.0363
  24 C16      -1.4558   -16.1647    -4.8981  C.ar    1  <O>11      -0.0572
  25 C17      -2.8425   -16.1377    -4.7192  C.ar    1  <O>11      -0.0263
  26 C18      -3.5757   -15.0434    -5.1920  C.ar    1  <O>11       0.1252
  27 F2       -4.9355   -15.0209    -5.0124  F       1  <O>11      -0.2054
  28 C19      -2.9398   -13.9832    -5.8384  C.ar    1  <O>11      -0.0012
  29 C20       1.0963   -11.1269    -5.5441  C.ar    1  <O>11      -0.0243
  30 H1        3.0270   -10.7100    -2.5640  H       1  <O>11       0.1731
  31 H2        5.3373    -9.3577    -3.8630  H       1  <O>11       0.1731
  32 H3        5.1050   -12.8321    -1.7201  H       1  <O>11       0.0626
  33 H4        3.8990   -14.0097     0.0256  H       1  <O>11       0.0618
  34 H5        2.8768   -12.7737     1.8527  H       1  <O>11       0.0618
  35 H6        3.0759   -10.3529     1.9275  H       1  <O>11       0.0646
  36 H7        0.7711    -8.8042    -3.1393  H       1  <O>11       0.0625
  37 H8       -1.5725    -9.3973    -3.4067  H       1  <O>11       0.0618
  38 H9       -2.2255   -11.0879    -5.0278  H       1  <O>11       0.0637
  39 H10       0.2147   -15.1313    -5.6710  H       1  <O>11       0.0637
  40 H11      -0.9078   -16.9674    -4.5509  H       1  <O>11       0.0619
  41 H12      -3.3211   -16.9180    -4.2425  H       1  <O>11       0.0646
  42 H13      -3.4907   -13.1789    -6.1769  H       1  <O>11       0.0665
  43 H14       1.8143   -11.5882    -6.1242  H       1  <O>11       0.0644
@<TRIPOS>BOND
     1     1     2    2
     2     2     3   am
     3     3     4    1
     4     4     5   am
     5     5     6    2
     6     5     7    1
     7     7     8   ar
     8     8     9   ar
     9     9    10   ar
    10    10    11   ar
    11    11    12   ar
    12     7    12   ar
    13    12    13    1
    14     2    14    1
    15    14    15   ar
    16    15    16   ar
    17    16    17   ar
    18    17    18   ar
    19    18    19    1
    20    19    20    2
    21    19    21    2
    22    19    22    1
    23    22    23   ar
    24    23    24   ar
    25    24    25   ar
    26    25    26   ar
    27    26    27    1
    28    26    28   ar
    29    22    28   ar
    30    18    29   ar
    31    14    29   ar
    32     3    30    1
    33     4    31    1
    34     8    32    1
    35     9    33    1
    36    10    34    1
    37    11    35    1
    38    15    36    1
    39    16    37    1
    40    17    38    1
    41    23    39    1
    42    24    40    1
    43    25    41    1
    44    28    42    1
    45    29    43    1
@<TRIPOS>MOLECULE
mol89_1_26
 43 45 0 0 0
SMALL
USER_CHARGES
****
VDW energy = 172.57
@<TRIPOS>ATOM
   1 O1        3.4420    -9.1855    -5.2979  O.2     1  <O>11      -0.2687
   2 C1        2.8552    -9.8129    -4.4288  C.2     1  <O>11       0.2602
   3 N1        3.5160   -10.1860    -3.2900  N.am    1  <O>11      -0.2301
   4 N2        4.8400    -9.8550    -3.1240  N.am    1  <O>11      -0.2300
   5 C2        5.4899   -10.1922    -1.9686  C.2     1  <O>11       0.2629
   6 O2        4.8939   -10.7882    -1.0839  O.2     1  <O>11      -0.2686
   7 C3        6.8929    -9.8422    -1.7925  C.ar    1  <O>11       0.0733
   8 C4        7.2530    -8.5725    -1.3117  C.ar    1  <O>11      -0.0468
   9 C5        8.6013    -8.2336    -1.1556  C.ar    1  <O>11      -0.0609
  10 C6        9.6010    -9.1568    -1.4724  C.ar    1  <O>11      -0.0590
  11 C7        9.2427   -10.4245    -1.9435  C.ar    1  <O>11      -0.0257
  12 C8        7.8999   -10.7715    -2.1028  C.ar    1  <O>11       0.1355
  13 F1        7.5485   -12.0164    -2.5602  F       1  <O>11      -0.2047
  14 C9        1.4620   -10.1610    -4.6040  C.ar    1  <O>11       0.0400
  15 C10       0.8011    -9.7734    -5.7712  C.ar    1  <O>11      -0.0495
  16 C11      -0.5499   -10.0964    -5.9412  C.ar    1  <O>11      -0.0592
  17 C12      -1.2340   -10.8060    -4.9510  C.ar    1  <O>11      -0.0364
  18 C13      -0.5561   -11.1926    -3.7888  C.ar    1  <O>11       0.0943
  19 S1       -1.4233   -12.0870    -2.5455  S.O2    1  <O>11       0.0252
  20 O3       -0.3666   -13.0859    -1.7441  O.2     1  <O>11      -0.1643
  21 O4       -2.6187   -12.9983    -3.2517  O.2     1  <O>11      -0.1643
  22 C14      -2.1475   -10.9511    -1.3985  C.ar    1  <O>11       0.0963
  23 C15      -1.3320   -10.1522    -0.5788  C.ar    1  <O>11      -0.0363
  24 C16      -1.9046    -9.2642     0.3372  C.ar    1  <O>11      -0.0572
  25 C17      -3.2953    -9.1599     0.4405  C.ar    1  <O>11      -0.0263
  26 C18      -4.1072    -9.9497    -0.3816  C.ar    1  <O>11       0.1252
  27 F2       -5.4708    -9.8423    -0.2775  F       1  <O>11      -0.2054
  28 C19      -3.5453   -10.8375    -1.2994  C.ar    1  <O>11      -0.0012
  29 C20       0.7909   -10.8776    -3.6108  C.ar    1  <O>11      -0.0243
  30 H1        3.0270   -10.7100    -2.5640  H       1  <O>11       0.1731
  31 H2        5.3373    -9.3577    -3.8630  H       1  <O>11       0.1731
  32 H3        6.5198    -7.8867    -1.0726  H       1  <O>11       0.0626
  33 H4        8.8587    -7.2977    -0.8050  H       1  <O>11       0.0618
  34 H5       10.5956    -8.9058    -1.3598  H       1  <O>11       0.0618
  35 H6        9.9784   -11.1100    -2.1757  H       1  <O>11       0.0646
  36 H7        1.3061    -9.2516    -6.5046  H       1  <O>11       0.0625
  37 H8       -1.0427    -9.8094    -6.8013  H       1  <O>11       0.0618
  38 H9       -2.2307   -11.0431    -5.0753  H       1  <O>11       0.0637
  39 H10      -0.3050   -10.2213    -0.6533  H       1  <O>11       0.0637
  40 H11      -1.2991    -8.6841     0.9387  H       1  <O>11       0.0619
  41 H12      -3.7194    -8.5061     1.1171  H       1  <O>11       0.0646
  42 H13      -4.1546   -11.4099    -1.9044  H       1  <O>11       0.0665
  43 H14       1.2863   -11.1709    -2.7543  H       1  <O>11       0.0644
@<TRIPOS>BOND
     1     1     2    2
     2     2     3   am
     3     3     4    1
     4     4     5   am
     5     5     6    2
     6     5     7    1
     7     7     8   ar
     8     8     9   ar
     9     9    10   ar
    10    10    11   ar
    11    11    12   ar
    12     7    12   ar
    13    12    13    1
    14     2    14    1
    15    14    15   ar
    16    15    16   ar
    17    16    17   ar
    18    17    18   ar
    19    18    19    1
    20    19    20    2
    21    19    21    2
    22    19    22    1
    23    22    23   ar
    24    23    24   ar
    25    24    25   ar
    26    25    26   ar
    27    26    27    1
    28    26    28   ar
    29    22    28   ar
    30    18    29   ar
    31    14    29   ar
    32     3    30    1
    33     4    31    1
    34     8    32    1
    35     9    33    1
    36    10    34    1
    37    11    35    1
    38    15    36    1
    39    16    37    1
    40    17    38    1
    41    23    39    1
    42    24    40    1
    43    25    41    1
    44    28    42    1
    45    29    43    1
@<TRIPOS>MOLECULE
mol89_1_27
 43 45 0 0 0
SMALL
USER_CHARGES
****
VDW energy = 173.22
@<TRIPOS>ATOM
   1 O1        3.4420    -9.1855    -5.2979  O.2     1  <O>11      -0.2687
   2 C1        2.8552    -9.8129    -4.4288  C.2     1  <O>11       0.2602
   3 N1        3.5160   -10.1860    -3.2900  N.am    1  <O>11      -0.2301
   4 N2        2.8557   -10.8918    -2.3123  N.am    1  <O>11      -0.2300
   5 C2        3.5263   -11.3001    -1.1921  C.2     1  <O>11       0.2629
   6 O2        2.9396   -11.9283    -0.3237  O.2     1  <O>11      -0.2686
   7 C3        4.9402   -10.9875    -1.0345  C.ar    1  <O>11       0.0733
   8 C4        5.3387    -9.7513    -0.4997  C.ar    1  <O>11      -0.0468
   9 C5        6.6974    -9.4476    -0.3611  C.ar    1  <O>11      -0.0609
  10 C6        7.6693   -10.3733    -0.7492  C.ar    1  <O>11      -0.0590
  11 C7        7.2728   -11.6080    -1.2742  C.ar    1  <O>11      -0.0257
  12 C8        5.9195   -11.9197    -1.4165  C.ar    1  <O>11       0.1355
  13 F1        5.5308   -13.1325    -1.9269  F       1  <O>11      -0.2047
  14 C9        1.4620   -10.1610    -4.6040  C.ar    1  <O>11       0.0400
  15 C10       0.4940    -9.5232    -3.8258  C.ar    1  <O>11      -0.0495
  16 C11      -0.8542    -9.8644    -3.9819  C.ar    1  <O>11      -0.0592
  17 C12      -1.2315   -10.8349    -4.9134  C.ar    1  <O>11      -0.0364
  18 C13      -0.2498   -11.4614    -5.6903  C.ar    1  <O>11       0.0943
  19 S1       -0.7316   -12.6825    -6.8627  S.O2    1  <O>11       0.0252
  20 O3       -2.3556   -12.5382    -7.1760  O.2     1  <O>11      -0.1643
  21 O4       -0.4186   -14.1933    -6.2483  O.2     1  <O>11      -0.1643
  22 C14       0.1815   -12.4544    -8.3610  C.ar    1  <O>11       0.0963
  23 C15       1.5848   -12.5300    -8.3563  C.ar    1  <O>11      -0.0363
  24 C16       2.3070   -12.3364    -9.5380  C.ar    1  <O>11      -0.0572
  25 C17       1.6369   -12.0714   -10.7365  C.ar    1  <O>11      -0.0263
  26 C18       0.2390   -12.0041   -10.7424  C.ar    1  <O>11       0.1252
  27 F2       -0.4136   -11.7457   -11.9210  F       1  <O>11      -0.2054
  28 C19      -0.4903   -12.1973    -9.5689  C.ar    1  <O>11      -0.0012
  29 C20       1.0963   -11.1269    -5.5441  C.ar    1  <O>11      -0.0243
  30 H1        4.4984    -9.9405    -3.1657  H       1  <O>11       0.1731
  31 H2        1.8654   -11.1108    -2.4228  H       1  <O>11       0.1731
  32 H3        4.6263    -9.0640    -0.2078  H       1  <O>11       0.0626
  33 H4        6.9829    -8.5361     0.0294  H       1  <O>11       0.0618
  34 H5        8.6714   -10.1481    -0.6494  H       1  <O>11       0.0618
  35 H6        7.9880   -12.2953    -1.5592  H       1  <O>11       0.0646
  36 H7        0.7711    -8.8042    -3.1393  H       1  <O>11       0.0625
  37 H8       -1.5725    -9.3973    -3.4067  H       1  <O>11       0.0618
  38 H9       -2.2255   -11.0879    -5.0278  H       1  <O>11       0.0637
  39 H10       2.0851   -12.7296    -7.4759  H       1  <O>11       0.0637
  40 H11       3.3376   -12.3892    -9.5256  H       1  <O>11       0.0619
  41 H12       2.1686   -11.9268   -11.6091  H       1  <O>11       0.0646
  42 H13      -1.5212   -12.1514    -9.5875  H       1  <O>11       0.0665
  43 H14       1.8143   -11.5882    -6.1242  H       1  <O>11       0.0644
@<TRIPOS>BOND
     1     1     2    2
     2     2     3   am
     3     3     4    1
     4     4     5   am
     5     5     6    2
     6     5     7    1
     7     7     8   ar
     8     8     9   ar
     9     9    10   ar
    10    10    11   ar
    11    11    12   ar
    12     7    12   ar
    13    12    13    1
    14     2    14    1
    15    14    15   ar
    16    15    16   ar
    17    16    17   ar
    18    17    18   ar
    19    18    19    1
    20    19    20    2
    21    19    21    2
    22    19    22    1
    23    22    23   ar
    24    23    24   ar
    25    24    25   ar
    26    25    26   ar
    27    26    27    1
    28    26    28   ar
    29    22    28   ar
    30    18    29   ar
    31    14    29   ar
    32     3    30    1
    33     4    31    1
    34     8    32    1
    35     9    33    1
    36    10    34    1
    37    11    35    1
    38    15    36    1
    39    16    37    1
    40    17    38    1
    41    23    39    1
    42    24    40    1
    43    25    41    1
    44    28    42    1
    45    29    43    1
@<TRIPOS>MOLECULE
mol89_1_28
 43 45 0 0 0
SMALL
USER_CHARGES
****
VDW energy = 173.77
@<TRIPOS>ATOM
   1 O1        3.4420    -9.1855    -5.2979  O.2     1  <O>11      -0.2687
   2 C1        2.8552    -9.8129    -4.4288  C.2     1  <O>11       0.2602
   3 N1        3.5160   -10.1860    -3.2900  N.am    1  <O>11      -0.2301
   4 N2        4.8400    -9.8550    -3.1240  N.am    1  <O>11      -0.2300
   5 C2        5.4899   -10.1922    -1.9686  C.2     1  <O>11       0.2629
   6 O2        4.8939   -10.7882    -1.0839  O.2     1  <O>11      -0.2686
   7 C3        6.8929    -9.8422    -1.7925  C.ar    1  <O>11       0.0733
   8 C4        7.5865    -9.1588    -2.8048  C.ar    1  <O>11      -0.0468
   9 C5        8.9375    -8.8349    -2.6393  C.ar    1  <O>11      -0.0609
  10 C6        9.6069    -9.1846    -1.4638  C.ar    1  <O>11      -0.0590
  11 C7        8.9142    -9.8581    -0.4519  C.ar    1  <O>11      -0.0257
  12 C8        7.5662   -10.1856    -0.6082  C.ar    1  <O>11       0.1355
  13 F1        6.8858   -10.8417     0.3862  F       1  <O>11      -0.2047
  14 C9        1.4620   -10.1610    -4.6040  C.ar    1  <O>11       0.0400
  15 C10       0.4940    -9.5232    -3.8258  C.ar    1  <O>11      -0.0495
  16 C11      -0.8542    -9.8644    -3.9819  C.ar    1  <O>11      -0.0592
  17 C12      -1.2315   -10.8349    -4.9134  C.ar    1  <O>11      -0.0364
  18 C13      -0.2498   -11.4614    -5.6903  C.ar    1  <O>11       0.0943
  19 S1       -0.7316   -12.6825    -6.8627  S.O2    1  <O>11       0.0252
  20 O3       -2.1015   -13.4530    -6.3277  O.2     1  <O>11      -0.1643
  21 O4        0.4923   -13.7906    -7.0421  O.2     1  <O>11      -0.1643
  22 C14      -1.0592   -11.9085    -8.4197  C.ar    1  <O>11       0.0963
  23 C15      -2.1392   -11.0198    -8.5581  C.ar    1  <O>11      -0.0363
  24 C16      -2.4060   -10.4186    -9.7921  C.ar    1  <O>11      -0.0572
  25 C17      -1.5954   -10.6929   -10.8981  C.ar    1  <O>11      -0.0263
  26 C18      -0.5152   -11.5716   -10.7580  C.ar    1  <O>11       0.1252
  27 F2        0.2779   -11.8360   -11.8456  F       1  <O>11      -0.2054
  28 C19      -0.2401   -12.1753    -9.5307  C.ar    1  <O>11      -0.0012
  29 C20       1.0963   -11.1269    -5.5441  C.ar    1  <O>11      -0.0243
  30 H1        3.0270   -10.7100    -2.5640  H       1  <O>11       0.1731
  31 H2        5.3373    -9.3577    -3.8630  H       1  <O>11       0.1731
  32 H3        7.0976    -8.8944    -3.6743  H       1  <O>11       0.0626
  33 H4        9.4417    -8.3357    -3.3886  H       1  <O>11       0.0618
  34 H5       10.6041    -8.9481    -1.3430  H       1  <O>11       0.0618
  35 H6        9.4047   -10.1153     0.4189  H       1  <O>11       0.0646
  36 H7        0.7711    -8.8042    -3.1393  H       1  <O>11       0.0625
  37 H8       -1.5725    -9.3973    -3.4067  H       1  <O>11       0.0618
  38 H9       -2.2255   -11.0879    -5.0278  H       1  <O>11       0.0637
  39 H10      -2.7385   -10.8099    -7.7445  H       1  <O>11       0.0637
  40 H11      -3.2035    -9.7705    -9.8868  H       1  <O>11       0.0619
  41 H12      -1.7920   -10.2511   -11.8098  H       1  <O>11       0.0646
  42 H13       0.5632   -12.8166    -9.4386  H       1  <O>11       0.0665
  43 H14       1.8143   -11.5882    -6.1242  H       1  <O>11       0.0644
@<TRIPOS>BOND
     1     1     2    2
     2     2     3   am
     3     3     4    1
     4     4     5   am
     5     5     6    2
     6     5     7    1
     7     7     8   ar
     8     8     9   ar
     9     9    10   ar
    10    10    11   ar
    11    11    12   ar
    12     7    12   ar
    13    12    13    1
    14     2    14    1
    15    14    15   ar
    16    15    16   ar
    17    16    17   ar
    18    17    18   ar
    19    18    19    1
    20    19    20    2
    21    19    21    2
    22    19    22    1
    23    22    23   ar
    24    23    24   ar
    25    24    25   ar
    26    25    26   ar
    27    26    27    1
    28    26    28   ar
    29    22    28   ar
    30    18    29   ar
    31    14    29   ar
    32     3    30    1
    33     4    31    1
    34     8    32    1
    35     9    33    1
    36    10    34    1
    37    11    35    1
    38    15    36    1
    39    16    37    1
    40    17    38    1
    41    23    39    1
    42    24    40    1
    43    25    41    1
    44    28    42    1
    45    29    43    1
@<TRIPOS>MOLECULE
mol89_1_29
 43 45 0 0 0
SMALL
USER_CHARGES
****
VDW energy = 177.00
@<TRIPOS>ATOM
   1 O1        3.4420    -9.1855    -5.2979  O.2     1  <O>11      -0.2687
   2 C1        2.8552    -9.8129    -4.4288  C.2     1  <O>11       0.2602
   3 N1        3.5160   -10.1860    -3.2900  N.am    1  <O>11      -0.2301
   4 N2        4.8400    -9.8550    -3.1240  N.am    1  <O>11      -0.2300
   5 C2        5.7742   -10.3017    -4.0178  C.2     1  <O>11       0.2629
   6 O2        5.4320   -10.9945    -4.9643  O.2     1  <O>11      -0.2686
   7 C3        7.1770    -9.9507    -3.8426  C.ar    1  <O>11       0.0733
   8 C4        7.6955    -8.7840    -4.4283  C.ar    1  <O>11      -0.0468
   9 C5        9.0462    -8.4553    -4.2698  C.ar    1  <O>11      -0.0609
  10 C6        9.8896    -9.2825    -3.5238  C.ar    1  <O>11      -0.0590
  11 C7        9.3718   -10.4403    -2.9333  C.ar    1  <O>11      -0.0257
  12 C8        8.0255   -10.7765    -3.0862  C.ar    1  <O>11       0.1355
  13 F1        7.5167   -11.9094    -2.5031  F       1  <O>11      -0.2047
  14 C9        1.4620   -10.1610    -4.6040  C.ar    1  <O>11       0.0400
  15 C10       1.1306   -11.3698    -5.2192  C.ar    1  <O>11      -0.0495
  16 C11      -0.2153   -11.7066    -5.4026  C.ar    1  <O>11      -0.0592
  17 C12      -1.2229   -10.8409    -4.9699  C.ar    1  <O>11      -0.0364
  18 C13      -0.8747    -9.6351    -4.3496  C.ar    1  <O>11       0.0943
  19 S1       -2.1487    -8.5493    -3.8059  S.O2    1  <O>11       0.0252
  20 O3       -3.5805    -9.3837    -3.7039  O.2     1  <O>11      -0.1643
  21 O4       -2.3116    -7.3011    -4.8891  O.2     1  <O>11      -0.1643
  22 C14      -1.7297    -7.8985    -2.2148  C.ar    1  <O>11       0.0963
  23 C15      -1.6591    -8.7466    -1.0964  C.ar    1  <O>11      -0.0363
  24 C16      -1.3411    -8.2298     0.1635  C.ar    1  <O>11      -0.0572
  25 C17      -1.0847    -6.8639     0.3192  C.ar    1  <O>11      -0.0263
  26 C18      -1.1471    -6.0209    -0.7962  C.ar    1  <O>11       0.1252
  27 F2       -0.8930    -4.6821    -0.6384  F       1  <O>11      -0.2054
  28 C19      -1.4623    -6.5273    -2.0574  C.ar    1  <O>11      -0.0012
  29 C20       0.4636    -9.2913    -4.1600  C.ar    1  <O>11      -0.0243
  30 H1        3.0270   -10.7100    -2.5640  H       1  <O>11       0.1731
  31 H2        5.1252    -9.2762    -2.3338  H       1  <O>11       0.1731
  32 H3        7.0776    -8.1667    -4.9780  H       1  <O>11       0.0626
  33 H4        9.4210    -7.5984    -4.7058  H       1  <O>11       0.0618
  34 H5       10.8864    -9.0413    -3.4091  H       1  <O>11       0.0618
  35 H6        9.9912   -11.0520    -2.3791  H       1  <O>11       0.0646
  36 H7        1.8739   -12.0113    -5.5368  H       1  <O>11       0.0625
  37 H8       -0.4644   -12.5978    -5.8593  H       1  <O>11       0.0618
  38 H9       -2.2155   -11.0882    -5.1063  H       1  <O>11       0.0637
  39 H10      -1.8429    -9.7562    -1.2055  H       1  <O>11       0.0637
  40 H11      -1.2955    -8.8583     0.9808  H       1  <O>11       0.0619
  41 H12      -0.8514    -6.4808     1.2486  H       1  <O>11       0.0646
  42 H13      -1.4990    -5.8964    -2.8733  H       1  <O>11       0.0665
  43 H14       0.7134    -8.4037    -3.6966  H       1  <O>11       0.0644
@<TRIPOS>BOND
     1     1     2    2
     2     2     3   am
     3     3     4    1
     4     4     5   am
     5     5     6    2
     6     5     7    1
     7     7     8   ar
     8     8     9   ar
     9     9    10   ar
    10    10    11   ar
    11    11    12   ar
    12     7    12   ar
    13    12    13    1
    14     2    14    1
    15    14    15   ar
    16    15    16   ar
    17    16    17   ar
    18    17    18   ar
    19    18    19    1
    20    19    20    2
    21    19    21    2
    22    19    22    1
    23    22    23   ar
    24    23    24   ar
    25    24    25   ar
    26    25    26   ar
    27    26    27    1
    28    26    28   ar
    29    22    28   ar
    30    18    29   ar
    31    14    29   ar
    32     3    30    1
    33     4    31    1
    34     8    32    1
    35     9    33    1
    36    10    34    1
    37    11    35    1
    38    15    36    1
    39    16    37    1
    40    17    38    1
    41    23    39    1
    42    24    40    1
    43    25    41    1
    44    28    42    1
    45    29    43    1
@<TRIPOS>MOLECULE
mol89_1_30
 43 45 0 0 0
SMALL
USER_CHARGES
****
VDW energy = 180.42
@<TRIPOS>ATOM
   1 O1        3.4420    -9.1855    -5.2979  O.2     1  <O>11      -0.2687
   2 C1        2.8552    -9.8129    -4.4288  C.2     1  <O>11       0.2602
   3 N1        3.5160   -10.1860    -3.2900  N.am    1  <O>11      -0.2301
   4 N2        4.8400    -9.8550    -3.1240  N.am    1  <O>11      -0.2300
   5 C2        5.2216    -8.5414    -3.1205  C.2     1  <O>11       0.2629
   6 O2        6.3985    -8.2474    -2.9741  O.2     1  <O>11      -0.2686
   7 C3        4.2256    -7.4925    -3.2926  C.ar    1  <O>11       0.0733
   8 C4        3.5038    -7.0107    -2.1881  C.ar    1  <O>11      -0.0468
   9 C5        2.5383    -6.0123    -2.3574  C.ar    1  <O>11      -0.0609
  10 C6        2.2872    -5.4831    -3.6258  C.ar    1  <O>11      -0.0590
  11 C7        3.0116    -5.9569    -4.7249  C.ar    1  <O>11      -0.0257
  12 C8        3.9767    -6.9530    -4.5657  C.ar    1  <O>11       0.1355
  13 F1        4.6905    -7.4141    -5.6429  F       1  <O>11      -0.2047
  14 C9        1.4620   -10.1610    -4.6040  C.ar    1  <O>11       0.0400
  15 C10       0.4940    -9.5232    -3.8258  C.ar    1  <O>11      -0.0495
  16 C11      -0.8542    -9.8644    -3.9819  C.ar    1  <O>11      -0.0592
  17 C12      -1.2315   -10.8349    -4.9134  C.ar    1  <O>11      -0.0364
  18 C13      -0.2498   -11.4614    -5.6903  C.ar    1  <O>11       0.0943
  19 S1       -0.7316   -12.6825    -6.8627  S.O2    1  <O>11       0.0252
  20 O3       -2.3556   -12.5382    -7.1760  O.2     1  <O>11      -0.1643
  21 O4       -0.4186   -14.1933    -6.2483  O.2     1  <O>11      -0.1643
  22 C14       0.1815   -12.4544    -8.3610  C.ar    1  <O>11       0.0963
  23 C15      -0.0093   -11.3008    -9.1407  C.ar    1  <O>11      -0.0363
  24 C16       0.7026   -11.1270   -10.3316  C.ar    1  <O>11      -0.0572
  25 C17       1.6157   -12.0985   -10.7535  C.ar    1  <O>11      -0.0263
  26 C18       1.8115   -13.2434    -9.9728  C.ar    1  <O>11       0.1252
  27 F2        2.7095   -14.1926   -10.3902  F       1  <O>11      -0.2054
  28 C19       1.1069   -13.4252    -8.7824  C.ar    1  <O>11      -0.0012
  29 C20       1.0963   -11.1269    -5.5441  C.ar    1  <O>11      -0.0243
  30 H1        3.0270   -10.7100    -2.5640  H       1  <O>11       0.1731
  31 H2        5.5375   -10.5896    -3.0036  H       1  <O>11       0.1731
  32 H3        3.6864    -7.3947    -1.2478  H       1  <O>11       0.0626
  33 H4        2.0095    -5.6655    -1.5420  H       1  <O>11       0.0618
  34 H5        1.5731    -4.7486    -3.7510  H       1  <O>11       0.0618
  35 H6        2.8308    -5.5661    -5.6629  H       1  <O>11       0.0646
  36 H7        0.7711    -8.8042    -3.1393  H       1  <O>11       0.0625
  37 H8       -1.5725    -9.3973    -3.4067  H       1  <O>11       0.0618
  38 H9       -2.2255   -11.0879    -5.0278  H       1  <O>11       0.0637
  39 H10      -0.6785   -10.5780    -8.8325  H       1  <O>11       0.0637
  40 H11       0.5537   -10.2791   -10.9009  H       1  <O>11       0.0619
  41 H12       2.1406   -11.9724   -11.6330  H       1  <O>11       0.0646
  42 H13       1.2648   -14.2708    -8.2123  H       1  <O>11       0.0665
  43 H14       1.8143   -11.5882    -6.1242  H       1  <O>11       0.0644
@<TRIPOS>BOND
     1     1     2    2
     2     2     3   am
     3     3     4    1
     4     4     5   am
     5     5     6    2
     6     5     7    1
     7     7     8   ar
     8     8     9   ar
     9     9    10   ar
    10    10    11   ar
    11    11    12   ar
    12     7    12   ar
    13    12    13    1
    14     2    14    1
    15    14    15   ar
    16    15    16   ar
    17    16    17   ar
    18    17    18   ar
    19    18    19    1
    20    19    20    2
    21    19    21    2
    22    19    22    1
    23    22    23   ar
    24    23    24   ar
    25    24    25   ar
    26    25    26   ar
    27    26    27    1
    28    26    28   ar
    29    22    28   ar
    30    18    29   ar
    31    14    29   ar
    32     3    30    1
    33     4    31    1
    34     8    32    1
    35     9    33    1
    36    10    34    1
    37    11    35    1
    38    15    36    1
    39    16    37    1
    40    17    38    1
    41    23    39    1
    42    24    40    1
    43    25    41    1
    44    28    42    1
    45    29    43    1
