@<TRIPOS>MOLECULE
mol86_1_1
 46 49 0 0 0
SMALL
USER_CHARGES
****
VDW energy = -65.21
@<TRIPOS>ATOM
   1 O1        6.9878     0.1985     2.5155  O.2     1  <O>11      -0.2661
   2 C1        5.8255    -0.2285     3.1857  C.ar    1  <O>11       0.2682
   3 N1        5.1910    -1.2820     2.6452  N.ar    1  <O>11      -0.2427
   4 N2        4.0648    -1.7438     3.2451  N.ar    1  <O>11      -0.1753
   5 C2        3.6029    -1.1357     4.3580  C.ar    1  <O>11       0.0693
   6 C3        2.3840    -1.7110     4.9590  C.3     1  <O>11       0.0168
   7 C4        2.7646    -2.7510     5.9510  C.ar    1  <O>11      -0.0397
   8 C5        3.5051    -3.8763     5.5484  C.ar    1  <O>11      -0.0581
   9 C6        3.8525    -4.8607     6.4813  C.ar    1  <O>11      -0.0597
  10 C7        3.4695    -4.7296     7.8187  C.ar    1  <O>11      -0.0393
  11 C8        2.7389    -3.6055     8.2190  C.ar    1  <O>11       0.0484
  12 N3        2.3474    -3.4751     9.5989  N.pl3   1  <O>11      -0.2135
  13 S1        1.2713    -4.5430    10.2577  S.O2    1  <O>11       0.1056
  14 O2        1.0111    -4.1526    11.8505  O.2     1  <O>11      -0.1470
  15 O3        1.8885    -6.0822    10.1588  O.2     1  <O>11      -0.1470
  16 C9       -0.2593    -4.4634     9.3704  C.ar    1  <O>11       0.2610
  17 C10      -0.7846    -5.5078     8.7421  C.ar    1  <O>11       0.0041
  18 C11      -1.9811    -5.0176     8.1698  C.ar    1  <O>11      -0.0219
  19 C12      -2.0826    -3.6835     8.5238  C.ar    1  <O>11       0.0943
  20 O4       -0.9892    -3.3378     9.2765  O.2     1  <O>11      -0.4449
  21 C13       2.3894    -2.6176     7.2981  C.ar    1  <O>11      -0.0358
  22 C14       4.2202    -0.0251     4.9315  C.ar    1  <O>11      -0.0158
  23 C15       5.4039     0.4308     4.3283  C.ar    1  <O>11       0.0232
  24 C16       6.1641     1.6216     4.8468  C.3     1  <O>11      -0.0222
  25 C17       5.7865     1.9954     6.2785  C.3     1  <O>11      -0.0486
  26 C18       4.2731     2.0252     6.4337  C.3     1  <O>11      -0.0487
  27 C19       3.6796     0.6416     6.1699  C.3     1  <O>11      -0.0255
  28 H1        5.5438    -1.7235     1.8081  H       1  <O>11       0.1921
  29 H2        1.7715    -2.1615     4.1779  H       1  <O>11       0.0377
  30 H3        1.8173    -0.9241     5.4572  H       1  <O>11       0.0377
  31 H4        2.7351    -2.7240    10.1716  H       1  <O>11       0.1738
  32 H5        7.2294     1.3927     4.8175  H       1  <O>11       0.0315
  33 H6        5.9571     2.4739     4.1996  H       1  <O>11       0.0315
  34 H7        6.2039     1.2585     6.9646  H       1  <O>11       0.0269
  35 H8        6.1914     2.9801     6.5118  H       1  <O>11       0.0269
  36 H9        4.0229     2.3350     7.4484  H       1  <O>11       0.0268
  37 H10       3.8538     2.7366     5.7222  H       1  <O>11       0.0268
  38 H11       3.8988     0.0045     7.0267  H       1  <O>11       0.0314
  39 H12       2.6001     0.7458     6.0607  H       1  <O>11       0.0314
  40 H13       3.7934    -3.9769     4.5626  H       1  <O>11       0.0620
  41 H14       4.3935    -5.6864     6.1800  H       1  <O>11       0.0618
  42 H15       3.7236    -5.4563     8.5059  H       1  <O>11       0.0636
  43 H16      -0.4042    -6.4654     8.6841  H       1  <O>11       0.0670
  44 H17      -2.6517    -5.5532     7.5965  H       1  <O>11       0.0650
  45 H18      -2.8558    -3.0513     8.2637  H       1  <O>11       0.1030
  46 H19       1.8559    -1.7896     7.6062  H       1  <O>11       0.0639
@<TRIPOS>BOND
     1     1     2    2
     2     2     3   ar
     3     3     4   ar
     4     4     5   ar
     5     5     6    1
     6     6     7    1
     7     7     8   ar
     8     8     9   ar
     9     9    10   ar
    10    10    11   ar
    11    11    12    1
    12    12    13    1
    13    13    14    2
    14    13    15    2
    15    13    16    1
    16    16    17   ar
    17    17    18   ar
    18    18    19   ar
    19    19    20   ar
    20    16    20   ar
    21    11    21   ar
    22     7    21   ar
    23     5    22   ar
    24    22    23   ar
    25     2    23   ar
    26    23    24    1
    27    24    25    1
    28    25    26    1
    29    26    27    1
    30    22    27    1
    31     3    28    1
    32     6    29    1
    33     6    30    1
    34    12    31    1
    35    24    32    1
    36    24    33    1
    37    25    34    1
    38    25    35    1
    39    26    36    1
    40    26    37    1
    41    27    38    1
    42    27    39    1
    43     8    40    1
    44     9    41    1
    45    10    42    1
    46    17    43    1
    47    18    44    1
    48    19    45    1
    49    21    46    1
@<TRIPOS>MOLECULE
mol86_1_2
 46 49 0 0 0
SMALL
USER_CHARGES
****
VDW energy = -64.83
@<TRIPOS>ATOM
   1 O1        6.9878     0.1985     2.5155  O.2     1  <O>11      -0.2661
   2 C1        5.8255    -0.2285     3.1857  C.ar    1  <O>11       0.2682
   3 N1        5.1910    -1.2820     2.6452  N.ar    1  <O>11      -0.2427
   4 N2        4.0648    -1.7438     3.2451  N.ar    1  <O>11      -0.1753
   5 C2        3.6029    -1.1357     4.3580  C.ar    1  <O>11       0.0693
   6 C3        2.3840    -1.7110     4.9590  C.3     1  <O>11       0.0168
   7 C4        2.1704    -3.0832     4.4280  C.ar    1  <O>11      -0.0397
   8 C5        2.7323    -4.1921     5.0850  C.ar    1  <O>11      -0.0581
   9 C6        2.5404    -5.4825     4.5771  C.ar    1  <O>11      -0.0597
  10 C7        1.7862    -5.6775     3.4170  C.ar    1  <O>11      -0.0393
  11 C8        1.2217    -4.5736     2.7686  C.ar    1  <O>11       0.0484
  12 N3        0.4447    -4.7804     1.5738  N.pl3   1  <O>11      -0.2135
  13 S1        1.1716    -5.3503     0.2029  S.O2    1  <O>11       0.1056
  14 O2        0.0402    -5.4904    -1.0043  O.2     1  <O>11      -0.1470
  15 O3        1.8410    -6.8394     0.5097  O.2     1  <O>11      -0.1470
  16 C9        2.4425    -4.2257    -0.3037  C.ar    1  <O>11       0.2610
  17 C10       3.7185    -4.5765    -0.4051  C.ar    1  <O>11       0.0041
  18 C11       4.3817    -3.4003    -0.8247  C.ar    1  <O>11      -0.0219
  19 C12       3.4173    -2.4163    -0.9559  C.ar    1  <O>11       0.0943
  20 O4        2.1958    -2.9419    -0.6194  O.2     1  <O>11      -0.4449
  21 C13       1.4049    -3.2836     3.2675  C.ar    1  <O>11      -0.0358
  22 C14       4.2202    -0.0251     4.9315  C.ar    1  <O>11      -0.0158
  23 C15       5.4039     0.4308     4.3283  C.ar    1  <O>11       0.0232
  24 C16       6.1641     1.6216     4.8468  C.3     1  <O>11      -0.0222
  25 C17       5.7865     1.9954     6.2785  C.3     1  <O>11      -0.0486
  26 C18       4.2731     2.0252     6.4337  C.3     1  <O>11      -0.0487
  27 C19       3.6796     0.6416     6.1699  C.3     1  <O>11      -0.0255
  28 H1        5.5438    -1.7235     1.8081  H       1  <O>11       0.1921
  29 H2        1.5259    -1.0873     4.7082  H       1  <O>11       0.0377
  30 H3        2.4978    -1.7545     6.0423  H       1  <O>11       0.0377
  31 H4       -0.5557    -4.5766     1.5728  H       1  <O>11       0.1738
  32 H5        7.2294     1.3927     4.8175  H       1  <O>11       0.0315
  33 H6        5.9571     2.4739     4.1996  H       1  <O>11       0.0315
  34 H7        6.2039     1.2585     6.9646  H       1  <O>11       0.0269
  35 H8        6.1914     2.9801     6.5118  H       1  <O>11       0.0269
  36 H9        4.0229     2.3350     7.4484  H       1  <O>11       0.0268
  37 H10       3.8538     2.7366     5.7222  H       1  <O>11       0.0268
  38 H11       3.8988     0.0045     7.0267  H       1  <O>11       0.0314
  39 H12       2.6001     0.7458     6.0607  H       1  <O>11       0.0314
  40 H13       3.2876    -4.0543     5.9439  H       1  <O>11       0.0620
  41 H14       2.9575    -6.2928     5.0614  H       1  <O>11       0.0618
  42 H15       1.6466    -6.6285     3.0414  H       1  <O>11       0.0636
  43 H16       4.1344    -5.5024    -0.2189  H       1  <O>11       0.0670
  44 H17       5.3933    -3.2953    -0.9998  H       1  <O>11       0.0650
  45 H18       3.5894    -1.4446    -1.2581  H       1  <O>11       0.1030
  46 H19       0.9783    -2.4776     2.7843  H       1  <O>11       0.0639
@<TRIPOS>BOND
     1     1     2    2
     2     2     3   ar
     3     3     4   ar
     4     4     5   ar
     5     5     6    1
     6     6     7    1
     7     7     8   ar
     8     8     9   ar
     9     9    10   ar
    10    10    11   ar
    11    11    12    1
    12    12    13    1
    13    13    14    2
    14    13    15    2
    15    13    16    1
    16    16    17   ar
    17    17    18   ar
    18    18    19   ar
    19    19    20   ar
    20    16    20   ar
    21    11    21   ar
    22     7    21   ar
    23     5    22   ar
    24    22    23   ar
    25     2    23   ar
    26    23    24    1
    27    24    25    1
    28    25    26    1
    29    26    27    1
    30    22    27    1
    31     3    28    1
    32     6    29    1
    33     6    30    1
    34    12    31    1
    35    24    32    1
    36    24    33    1
    37    25    34    1
    38    25    35    1
    39    26    36    1
    40    26    37    1
    41    27    38    1
    42    27    39    1
    43     8    40    1
    44     9    41    1
    45    10    42    1
    46    17    43    1
    47    18    44    1
    48    19    45    1
    49    21    46    1
@<TRIPOS>MOLECULE
mol86_1_3
 46 49 0 0 0
SMALL
USER_CHARGES
****
VDW energy = -63.99
@<TRIPOS>ATOM
   1 O1        6.9878     0.1985     2.5155  O.2     1  <O>11      -0.2661
   2 C1        5.8255    -0.2285     3.1857  C.ar    1  <O>11       0.2682
   3 N1        5.1910    -1.2820     2.6452  N.ar    1  <O>11      -0.2427
   4 N2        4.0648    -1.7438     3.2451  N.ar    1  <O>11      -0.1753
   5 C2        3.6029    -1.1357     4.3580  C.ar    1  <O>11       0.0693
   6 C3        2.3840    -1.7110     4.9590  C.3     1  <O>11       0.0168
   7 C4        2.1704    -3.0832     4.4280  C.ar    1  <O>11      -0.0397
   8 C5        2.7323    -4.1921     5.0850  C.ar    1  <O>11      -0.0581
   9 C6        2.5404    -5.4825     4.5771  C.ar    1  <O>11      -0.0597
  10 C7        1.7862    -5.6775     3.4170  C.ar    1  <O>11      -0.0393
  11 C8        1.2217    -4.5736     2.7686  C.ar    1  <O>11       0.0484
  12 N3        0.4447    -4.7804     1.5738  N.pl3   1  <O>11      -0.2135
  13 S1        1.1716    -5.3503     0.2029  S.O2    1  <O>11       0.1056
  14 O2        0.0402    -5.4904    -1.0043  O.2     1  <O>11      -0.1470
  15 O3        1.8410    -6.8394     0.5097  O.2     1  <O>11      -0.1470
  16 C9        2.4425    -4.2257    -0.3037  C.ar    1  <O>11       0.2610
  17 C10       2.7958    -4.0595    -1.5722  C.ar    1  <O>11       0.0041
  18 C11       3.8295    -3.0954    -1.5334  C.ar    1  <O>11      -0.0219
  19 C12       4.0062    -2.7442    -0.2064  C.ar    1  <O>11       0.0943
  20 O4        3.1320    -3.4660     0.5659  O.2     1  <O>11      -0.4449
  21 C13       1.4049    -3.2836     3.2675  C.ar    1  <O>11      -0.0358
  22 C14       4.2202    -0.0251     4.9315  C.ar    1  <O>11      -0.0158
  23 C15       5.4039     0.4308     4.3283  C.ar    1  <O>11       0.0232
  24 C16       6.1641     1.6216     4.8468  C.3     1  <O>11      -0.0222
  25 C17       5.7865     1.9954     6.2785  C.3     1  <O>11      -0.0486
  26 C18       4.2731     2.0252     6.4337  C.3     1  <O>11      -0.0487
  27 C19       3.6796     0.6416     6.1699  C.3     1  <O>11      -0.0255
  28 H1        5.5438    -1.7235     1.8081  H       1  <O>11       0.1921
  29 H2        1.5259    -1.0873     4.7082  H       1  <O>11       0.0377
  30 H3        2.4978    -1.7545     6.0423  H       1  <O>11       0.0377
  31 H4       -0.5557    -4.5766     1.5728  H       1  <O>11       0.1738
  32 H5        7.2294     1.3927     4.8175  H       1  <O>11       0.0315
  33 H6        5.9571     2.4739     4.1996  H       1  <O>11       0.0315
  34 H7        6.2039     1.2585     6.9646  H       1  <O>11       0.0269
  35 H8        6.1914     2.9801     6.5118  H       1  <O>11       0.0269
  36 H9        4.0229     2.3350     7.4484  H       1  <O>11       0.0268
  37 H10       3.8538     2.7366     5.7222  H       1  <O>11       0.0268
  38 H11       3.8988     0.0045     7.0267  H       1  <O>11       0.0314
  39 H12       2.6001     0.7458     6.0607  H       1  <O>11       0.0314
  40 H13       3.2876    -4.0543     5.9439  H       1  <O>11       0.0620
  41 H14       2.9575    -6.2928     5.0614  H       1  <O>11       0.0618
  42 H15       1.6466    -6.6285     3.0414  H       1  <O>11       0.0636
  43 H16       2.4032    -4.5297    -2.4027  H       1  <O>11       0.0670
  44 H17       4.3530    -2.7240    -2.3415  H       1  <O>11       0.0650
  45 H18       4.6857    -2.0515     0.1451  H       1  <O>11       0.1030
  46 H19       0.9783    -2.4776     2.7843  H       1  <O>11       0.0639
@<TRIPOS>BOND
     1     1     2    2
     2     2     3   ar
     3     3     4   ar
     4     4     5   ar
     5     5     6    1
     6     6     7    1
     7     7     8   ar
     8     8     9   ar
     9     9    10   ar
    10    10    11   ar
    11    11    12    1
    12    12    13    1
    13    13    14    2
    14    13    15    2
    15    13    16    1
    16    16    17   ar
    17    17    18   ar
    18    18    19   ar
    19    19    20   ar
    20    16    20   ar
    21    11    21   ar
    22     7    21   ar
    23     5    22   ar
    24    22    23   ar
    25     2    23   ar
    26    23    24    1
    27    24    25    1
    28    25    26    1
    29    26    27    1
    30    22    27    1
    31     3    28    1
    32     6    29    1
    33     6    30    1
    34    12    31    1
    35    24    32    1
    36    24    33    1
    37    25    34    1
    38    25    35    1
    39    26    36    1
    40    26    37    1
    41    27    38    1
    42    27    39    1
    43     8    40    1
    44     9    41    1
    45    10    42    1
    46    17    43    1
    47    18    44    1
    48    19    45    1
    49    21    46    1
@<TRIPOS>MOLECULE
mol86_1_4
 46 49 0 0 0
SMALL
USER_CHARGES
****
VDW energy = -63.94
@<TRIPOS>ATOM
   1 O1        6.9878     0.1985     2.5155  O.2     1  <O>11      -0.2661
   2 C1        5.8255    -0.2285     3.1857  C.ar    1  <O>11       0.2682
   3 N1        5.1910    -1.2820     2.6452  N.ar    1  <O>11      -0.2427
   4 N2        4.0648    -1.7438     3.2451  N.ar    1  <O>11      -0.1753
   5 C2        3.6029    -1.1357     4.3580  C.ar    1  <O>11       0.0693
   6 C3        2.3840    -1.7110     4.9590  C.3     1  <O>11       0.0168
   7 C4        2.6772    -2.1503     6.3488  C.ar    1  <O>11      -0.0397
   8 C5        3.6634    -3.1228     6.5908  C.ar    1  <O>11      -0.0581
   9 C6        3.9301    -3.5442     7.8990  C.ar    1  <O>11      -0.0597
  10 C7        3.2214    -2.9987     8.9725  C.ar    1  <O>11      -0.0393
  11 C8        2.2454    -2.0257     8.7306  C.ar    1  <O>11       0.0484
  12 N3        1.5186    -1.4662     9.8409  N.pl3   1  <O>11      -0.2135
  13 S1        2.3072    -0.5495    10.9679  S.O2    1  <O>11       0.1056
  14 O2        1.2257    -0.0407    12.1205  O.2     1  <O>11      -0.1470
  15 O3        2.9893     0.7719    10.2273  O.2     1  <O>11      -0.1470
  16 C9        3.5775    -1.5173    11.7335  C.ar    1  <O>11       0.2610
  17 C10       4.8622    -1.1867    11.6896  C.ar    1  <O>11       0.0041
  18 C11       5.5212    -2.2123    12.4060  C.ar    1  <O>11      -0.0219
  19 C12       4.5462    -3.0918    12.8435  C.ar    1  <O>11       0.0943
  20 O4        3.3216    -2.6510    12.4102  O.2     1  <O>11      -0.4449
  21 C13       1.9734    -1.5970     7.4312  C.ar    1  <O>11      -0.0358
  22 C14       4.2202    -0.0251     4.9315  C.ar    1  <O>11      -0.0158
  23 C15       5.4039     0.4308     4.3283  C.ar    1  <O>11       0.0232
  24 C16       6.1641     1.6216     4.8468  C.3     1  <O>11      -0.0222
  25 C17       5.7865     1.9954     6.2785  C.3     1  <O>11      -0.0486
  26 C18       4.2731     2.0252     6.4337  C.3     1  <O>11      -0.0487
  27 C19       3.6796     0.6416     6.1699  C.3     1  <O>11      -0.0255
  28 H1        5.5438    -1.7235     1.8081  H       1  <O>11       0.1921
  29 H2        2.0574    -2.5674     4.3691  H       1  <O>11       0.0377
  30 H3        1.5956    -0.9582     4.9749  H       1  <O>11       0.0377
  31 H4        0.5156    -1.6341     9.9321  H       1  <O>11       0.1738
  32 H5        7.2294     1.3927     4.8175  H       1  <O>11       0.0315
  33 H6        5.9571     2.4739     4.1996  H       1  <O>11       0.0315
  34 H7        6.2039     1.2585     6.9646  H       1  <O>11       0.0269
  35 H8        6.1914     2.9801     6.5118  H       1  <O>11       0.0269
  36 H9        4.0229     2.3350     7.4484  H       1  <O>11       0.0268
  37 H10       3.8538     2.7366     5.7222  H       1  <O>11       0.0268
  38 H11       3.8988     0.0045     7.0267  H       1  <O>11       0.0314
  39 H12       2.6001     0.7458     6.0607  H       1  <O>11       0.0314
  40 H13       4.1922    -3.5269     5.8020  H       1  <O>11       0.0620
  41 H14       4.6529    -4.2605     8.0710  H       1  <O>11       0.0618
  42 H15       3.4164    -3.3109     9.9366  H       1  <O>11       0.0636
  43 H16       5.2861    -0.3637    11.2338  H       1  <O>11       0.0670
  44 H17       6.5369    -2.2904    12.5714  H       1  <O>11       0.0650
  45 H18       4.7134    -3.9416    13.4047  H       1  <O>11       0.1030
  46 H19       1.2557    -0.8741     7.2653  H       1  <O>11       0.0639
@<TRIPOS>BOND
     1     1     2    2
     2     2     3   ar
     3     3     4   ar
     4     4     5   ar
     5     5     6    1
     6     6     7    1
     7     7     8   ar
     8     8     9   ar
     9     9    10   ar
    10    10    11   ar
    11    11    12    1
    12    12    13    1
    13    13    14    2
    14    13    15    2
    15    13    16    1
    16    16    17   ar
    17    17    18   ar
    18    18    19   ar
    19    19    20   ar
    20    16    20   ar
    21    11    21   ar
    22     7    21   ar
    23     5    22   ar
    24    22    23   ar
    25     2    23   ar
    26    23    24    1
    27    24    25    1
    28    25    26    1
    29    26    27    1
    30    22    27    1
    31     3    28    1
    32     6    29    1
    33     6    30    1
    34    12    31    1
    35    24    32    1
    36    24    33    1
    37    25    34    1
    38    25    35    1
    39    26    36    1
    40    26    37    1
    41    27    38    1
    42    27    39    1
    43     8    40    1
    44     9    41    1
    45    10    42    1
    46    17    43    1
    47    18    44    1
    48    19    45    1
    49    21    46    1
@<TRIPOS>MOLECULE
mol86_1_5
 46 49 0 0 0
SMALL
USER_CHARGES
****
VDW energy = -63.52
@<TRIPOS>ATOM
   1 O1        6.9878     0.1985     2.5155  O.2     1  <O>11      -0.2661
   2 C1        5.8255    -0.2285     3.1857  C.ar    1  <O>11       0.2682
   3 N1        5.1910    -1.2820     2.6452  N.ar    1  <O>11      -0.2427
   4 N2        4.0648    -1.7438     3.2451  N.ar    1  <O>11      -0.1753
   5 C2        3.6029    -1.1357     4.3580  C.ar    1  <O>11       0.0693
   6 C3        2.3840    -1.7110     4.9590  C.3     1  <O>11       0.0168
   7 C4        2.1704    -3.0832     4.4280  C.ar    1  <O>11      -0.0397
   8 C5        3.1445    -4.0779     4.6242  C.ar    1  <O>11      -0.0581
   9 C6        2.9475    -5.3664     4.1132  C.ar    1  <O>11      -0.0597
  10 C7        1.7804    -5.6734     3.4090  C.ar    1  <O>11      -0.0393
  11 C8        0.8087    -4.6844     3.2210  C.ar    1  <O>11       0.0484
  12 N3       -0.3927    -5.0066     2.4950  N.pl3   1  <O>11      -0.2135
  13 S1       -0.3116    -5.3845     0.8879  S.O2    1  <O>11       0.1056
  14 O2       -1.8373    -5.7106     0.3198  O.2     1  <O>11      -0.1470
  15 O3        0.6532    -6.7211     0.6818  O.2     1  <O>11      -0.1470
  16 C9        0.3744    -4.0187    -0.0068  C.ar    1  <O>11       0.2610
  17 C10       0.0606    -3.7514    -1.2684  C.ar    1  <O>11       0.0041
  18 C11       0.8218    -2.6046    -1.5922  C.ar    1  <O>11      -0.0219
  19 C12       1.5404    -2.2623    -0.4599  C.ar    1  <O>11       0.0943
  20 O4        1.2586    -3.1628     0.5358  O.2     1  <O>11      -0.4449
  21 C13       0.9940    -3.3979     3.7279  C.ar    1  <O>11      -0.0358
  22 C14       4.2202    -0.0251     4.9315  C.ar    1  <O>11      -0.0158
  23 C15       5.4039     0.4308     4.3283  C.ar    1  <O>11       0.0232
  24 C16       6.1641     1.6216     4.8468  C.3     1  <O>11      -0.0222
  25 C17       5.7865     1.9954     6.2785  C.3     1  <O>11      -0.0486
  26 C18       4.2731     2.0252     6.4337  C.3     1  <O>11      -0.0487
  27 C19       3.6796     0.6416     6.1699  C.3     1  <O>11      -0.0255
  28 H1        5.5438    -1.7235     1.8081  H       1  <O>11       0.1921
  29 H2        1.5259    -1.0873     4.7082  H       1  <O>11       0.0377
  30 H3        2.4978    -1.7545     6.0423  H       1  <O>11       0.0377
  31 H4       -1.2951    -5.0033     2.9726  H       1  <O>11       0.1738
  32 H5        7.2294     1.3927     4.8175  H       1  <O>11       0.0315
  33 H6        5.9571     2.4739     4.1996  H       1  <O>11       0.0315
  34 H7        6.2039     1.2585     6.9646  H       1  <O>11       0.0269
  35 H8        6.1914     2.9801     6.5118  H       1  <O>11       0.0269
  36 H9        4.0229     2.3350     7.4484  H       1  <O>11       0.0268
  37 H10       3.8538     2.7366     5.7222  H       1  <O>11       0.0268
  38 H11       3.8988     0.0045     7.0267  H       1  <O>11       0.0314
  39 H12       2.6001     0.7458     6.0607  H       1  <O>11       0.0314
  40 H13       4.0071    -3.8577     5.1462  H       1  <O>11       0.0620
  41 H14       3.6670    -6.0921     4.2573  H       1  <O>11       0.0618
  42 H15       1.6361    -6.6226     3.0304  H       1  <O>11       0.0636
  43 H16      -0.5938    -4.2663    -1.8779  H       1  <O>11       0.0670
  44 H17       0.8384    -2.1153    -2.5007  H       1  <O>11       0.0650
  45 H18       2.1839    -1.4597    -0.3781  H       1  <O>11       0.1030
  46 H19       0.2675    -2.6782     3.5886  H       1  <O>11       0.0639
@<TRIPOS>BOND
     1     1     2    2
     2     2     3   ar
     3     3     4   ar
     4     4     5   ar
     5     5     6    1
     6     6     7    1
     7     7     8   ar
     8     8     9   ar
     9     9    10   ar
    10    10    11   ar
    11    11    12    1
    12    12    13    1
    13    13    14    2
    14    13    15    2
    15    13    16    1
    16    16    17   ar
    17    17    18   ar
    18    18    19   ar
    19    19    20   ar
    20    16    20   ar
    21    11    21   ar
    22     7    21   ar
    23     5    22   ar
    24    22    23   ar
    25     2    23   ar
    26    23    24    1
    27    24    25    1
    28    25    26    1
    29    26    27    1
    30    22    27    1
    31     3    28    1
    32     6    29    1
    33     6    30    1
    34    12    31    1
    35    24    32    1
    36    24    33    1
    37    25    34    1
    38    25    35    1
    39    26    36    1
    40    26    37    1
    41    27    38    1
    42    27    39    1
    43     8    40    1
    44     9    41    1
    45    10    42    1
    46    17    43    1
    47    18    44    1
    48    19    45    1
    49    21    46    1
@<TRIPOS>MOLECULE
mol86_1_6
 46 49 0 0 0
SMALL
USER_CHARGES
****
VDW energy = -63.19
@<TRIPOS>ATOM
   1 O1        6.9878     0.1985     2.5155  O.2     1  <O>11      -0.2661
   2 C1        5.8255    -0.2285     3.1857  C.ar    1  <O>11       0.2682
   3 N1        5.1910    -1.2820     2.6452  N.ar    1  <O>11      -0.2427
   4 N2        4.0648    -1.7438     3.2451  N.ar    1  <O>11      -0.1753
   5 C2        3.6029    -1.1357     4.3580  C.ar    1  <O>11       0.0693
   6 C3        2.3840    -1.7110     4.9590  C.3     1  <O>11       0.0168
   7 C4        2.6772    -2.1503     6.3488  C.ar    1  <O>11      -0.0397
   8 C5        3.6634    -3.1228     6.5908  C.ar    1  <O>11      -0.0581
   9 C6        3.9301    -3.5442     7.8990  C.ar    1  <O>11      -0.0597
  10 C7        3.2214    -2.9987     8.9725  C.ar    1  <O>11      -0.0393
  11 C8        2.2454    -2.0257     8.7306  C.ar    1  <O>11       0.0484
  12 N3        1.5186    -1.4662     9.8409  N.pl3   1  <O>11      -0.2135
  13 S1        0.5016    -2.4203    10.7286  S.O2    1  <O>11       0.1056
  14 O2       -0.1924    -1.5146    11.9348  O.2     1  <O>11      -0.1470
  15 O3        1.3632    -3.6711    11.4016  O.2     1  <O>11      -0.1470
  16 C9       -0.7636    -3.0750     9.6765  C.ar    1  <O>11       0.2610
  17 C10      -0.9482    -4.3765     9.4932  C.ar    1  <O>11       0.0041
  18 C11      -2.0351    -4.4614     8.5927  C.ar    1  <O>11      -0.0219
  19 C12      -2.4314    -3.1653     8.3127  C.ar    1  <O>11       0.0943
  20 O4       -1.6206    -2.2942     8.9950  O.2     1  <O>11      -0.4449
  21 C13       1.9734    -1.5970     7.4312  C.ar    1  <O>11      -0.0358
  22 C14       4.2202    -0.0251     4.9315  C.ar    1  <O>11      -0.0158
  23 C15       5.4039     0.4308     4.3283  C.ar    1  <O>11       0.0232
  24 C16       6.1641     1.6216     4.8468  C.3     1  <O>11      -0.0222
  25 C17       5.7865     1.9954     6.2785  C.3     1  <O>11      -0.0486
  26 C18       4.2731     2.0252     6.4337  C.3     1  <O>11      -0.0487
  27 C19       3.6796     0.6416     6.1699  C.3     1  <O>11      -0.0255
  28 H1        5.5438    -1.7235     1.8081  H       1  <O>11       0.1921
  29 H2        2.0574    -2.5674     4.3691  H       1  <O>11       0.0377
  30 H3        1.5956    -0.9582     4.9749  H       1  <O>11       0.0377
  31 H4        1.6318    -0.4805    10.0815  H       1  <O>11       0.1738
  32 H5        7.2294     1.3927     4.8175  H       1  <O>11       0.0315
  33 H6        5.9571     2.4739     4.1996  H       1  <O>11       0.0315
  34 H7        6.2039     1.2585     6.9646  H       1  <O>11       0.0269
  35 H8        6.1914     2.9801     6.5118  H       1  <O>11       0.0269
  36 H9        4.0229     2.3350     7.4484  H       1  <O>11       0.0268
  37 H10       3.8538     2.7366     5.7222  H       1  <O>11       0.0268
  38 H11       3.8988     0.0045     7.0267  H       1  <O>11       0.0314
  39 H12       2.6001     0.7458     6.0607  H       1  <O>11       0.0314
  40 H13       4.1922    -3.5269     5.8020  H       1  <O>11       0.0620
  41 H14       4.6529    -4.2605     8.0710  H       1  <O>11       0.0618
  42 H15       3.4164    -3.3109     9.9366  H       1  <O>11       0.0636
  43 H16      -0.4164    -5.1541     9.9145  H       1  <O>11       0.0670
  44 H17      -2.4536    -5.3261     8.2156  H       1  <O>11       0.0650
  45 H18      -3.2106    -2.8975     7.6912  H       1  <O>11       0.1030
  46 H19       1.2557    -0.8741     7.2653  H       1  <O>11       0.0639
@<TRIPOS>BOND
     1     1     2    2
     2     2     3   ar
     3     3     4   ar
     4     4     5   ar
     5     5     6    1
     6     6     7    1
     7     7     8   ar
     8     8     9   ar
     9     9    10   ar
    10    10    11   ar
    11    11    12    1
    12    12    13    1
    13    13    14    2
    14    13    15    2
    15    13    16    1
    16    16    17   ar
    17    17    18   ar
    18    18    19   ar
    19    19    20   ar
    20    16    20   ar
    21    11    21   ar
    22     7    21   ar
    23     5    22   ar
    24    22    23   ar
    25     2    23   ar
    26    23    24    1
    27    24    25    1
    28    25    26    1
    29    26    27    1
    30    22    27    1
    31     3    28    1
    32     6    29    1
    33     6    30    1
    34    12    31    1
    35    24    32    1
    36    24    33    1
    37    25    34    1
    38    25    35    1
    39    26    36    1
    40    26    37    1
    41    27    38    1
    42    27    39    1
    43     8    40    1
    44     9    41    1
    45    10    42    1
    46    17    43    1
    47    18    44    1
    48    19    45    1
    49    21    46    1
@<TRIPOS>MOLECULE
mol86_1_7
 46 49 0 0 0
SMALL
USER_CHARGES
****
VDW energy = -62.00
@<TRIPOS>ATOM
   1 O1        6.9878     0.1985     2.5155  O.2     1  <O>11      -0.2661
   2 C1        5.8255    -0.2285     3.1857  C.ar    1  <O>11       0.2682
   3 N1        5.1910    -1.2820     2.6452  N.ar    1  <O>11      -0.2427
   4 N2        4.0648    -1.7438     3.2451  N.ar    1  <O>11      -0.1753
   5 C2        3.6029    -1.1357     4.3580  C.ar    1  <O>11       0.0693
   6 C3        2.3840    -1.7110     4.9590  C.3     1  <O>11       0.0168
   7 C4        2.1704    -3.0832     4.4280  C.ar    1  <O>11      -0.0397
   8 C5        3.1445    -4.0779     4.6242  C.ar    1  <O>11      -0.0581
   9 C6        2.9475    -5.3664     4.1132  C.ar    1  <O>11      -0.0597
  10 C7        1.7804    -5.6734     3.4090  C.ar    1  <O>11      -0.0393
  11 C8        0.8087    -4.6844     3.2210  C.ar    1  <O>11       0.0484
  12 N3       -0.3927    -5.0066     2.4950  N.pl3   1  <O>11      -0.2135
  13 S1       -1.4680    -6.0967     3.1178  S.O2    1  <O>11       0.1056
  14 O2       -2.7483    -6.2670     2.0743  O.2     1  <O>11      -0.1470
  15 O3       -2.0200    -5.5518     4.5869  O.2     1  <O>11      -0.1470
  16 C9       -0.6665    -7.6612     3.3326  C.ar    1  <O>11       0.2610
  17 C10      -0.5550    -8.2593     4.5122  C.ar    1  <O>11       0.0041
  18 C11       0.1442    -9.4583     4.2419  C.ar    1  <O>11      -0.0219
  19 C12       0.3898    -9.4858     2.8802  C.ar    1  <O>11       0.0943
  20 O4       -0.1188    -8.3453     2.3125  O.2     1  <O>11      -0.4449
  21 C13       0.9940    -3.3979     3.7279  C.ar    1  <O>11      -0.0358
  22 C14       4.2202    -0.0251     4.9315  C.ar    1  <O>11      -0.0158
  23 C15       5.4039     0.4308     4.3283  C.ar    1  <O>11       0.0232
  24 C16       6.1641     1.6216     4.8468  C.3     1  <O>11      -0.0222
  25 C17       5.7865     1.9954     6.2785  C.3     1  <O>11      -0.0486
  26 C18       4.2731     2.0252     6.4337  C.3     1  <O>11      -0.0487
  27 C19       3.6796     0.6416     6.1699  C.3     1  <O>11      -0.0255
  28 H1        5.5438    -1.7235     1.8081  H       1  <O>11       0.1921
  29 H2        1.5259    -1.0873     4.7082  H       1  <O>11       0.0377
  30 H3        2.4978    -1.7545     6.0423  H       1  <O>11       0.0377
  31 H4       -0.5819    -4.5611     1.5961  H       1  <O>11       0.1738
  32 H5        7.2294     1.3927     4.8175  H       1  <O>11       0.0315
  33 H6        5.9571     2.4739     4.1996  H       1  <O>11       0.0315
  34 H7        6.2039     1.2585     6.9646  H       1  <O>11       0.0269
  35 H8        6.1914     2.9801     6.5118  H       1  <O>11       0.0269
  36 H9        4.0229     2.3350     7.4484  H       1  <O>11       0.0268
  37 H10       3.8538     2.7366     5.7222  H       1  <O>11       0.0268
  38 H11       3.8988     0.0045     7.0267  H       1  <O>11       0.0314
  39 H12       2.6001     0.7458     6.0607  H       1  <O>11       0.0314
  40 H13       4.0071    -3.8577     5.1462  H       1  <O>11       0.0620
  41 H14       3.6670    -6.0921     4.2573  H       1  <O>11       0.0618
  42 H15       1.6361    -6.6226     3.0304  H       1  <O>11       0.0636
  43 H16      -0.9017    -7.9237     5.4244  H       1  <O>11       0.0670
  44 H17       0.4192   -10.1768     4.9298  H       1  <O>11       0.0650
  45 H18       0.8767   -10.2420     2.3739  H       1  <O>11       0.1030
  46 H19       0.2675    -2.6782     3.5886  H       1  <O>11       0.0639
@<TRIPOS>BOND
     1     1     2    2
     2     2     3   ar
     3     3     4   ar
     4     4     5   ar
     5     5     6    1
     6     6     7    1
     7     7     8   ar
     8     8     9   ar
     9     9    10   ar
    10    10    11   ar
    11    11    12    1
    12    12    13    1
    13    13    14    2
    14    13    15    2
    15    13    16    1
    16    16    17   ar
    17    17    18   ar
    18    18    19   ar
    19    19    20   ar
    20    16    20   ar
    21    11    21   ar
    22     7    21   ar
    23     5    22   ar
    24    22    23   ar
    25     2    23   ar
    26    23    24    1
    27    24    25    1
    28    25    26    1
    29    26    27    1
    30    22    27    1
    31     3    28    1
    32     6    29    1
    33     6    30    1
    34    12    31    1
    35    24    32    1
    36    24    33    1
    37    25    34    1
    38    25    35    1
    39    26    36    1
    40    26    37    1
    41    27    38    1
    42    27    39    1
    43     8    40    1
    44     9    41    1
    45    10    42    1
    46    17    43    1
    47    18    44    1
    48    19    45    1
    49    21    46    1
@<TRIPOS>MOLECULE
mol86_1_8
 46 49 0 0 0
SMALL
USER_CHARGES
****
VDW energy = -58.73
@<TRIPOS>ATOM
   1 O1        6.9878     0.1985     2.5155  O.2     1  <O>11      -0.2661
   2 C1        5.8255    -0.2285     3.1857  C.ar    1  <O>11       0.2682
   3 N1        5.1910    -1.2820     2.6452  N.ar    1  <O>11      -0.2427
   4 N2        4.0648    -1.7438     3.2451  N.ar    1  <O>11      -0.1753
   5 C2        3.6029    -1.1357     4.3580  C.ar    1  <O>11       0.0693
   6 C3        2.3840    -1.7110     4.9590  C.3     1  <O>11       0.0168
   7 C4        2.1704    -3.0832     4.4280  C.ar    1  <O>11      -0.0397
   8 C5        1.9953    -3.2892     3.0482  C.ar    1  <O>11      -0.0581
   9 C6        1.7823    -4.5805     2.5509  C.ar    1  <O>11      -0.0597
  10 C7        1.7466    -5.6730     3.4214  C.ar    1  <O>11      -0.0393
  11 C8        1.9283    -5.4671     4.7933  C.ar    1  <O>11       0.0484
  12 N3        1.8914    -6.5968     5.6858  N.pl3   1  <O>11      -0.2135
  13 S1        3.2817    -7.4189     6.0373  S.O2    1  <O>11       0.1056
  14 O2        2.9389    -8.6608     7.0847  O.2     1  <O>11      -0.1470
  15 O3        4.3727    -6.3842     6.7436  O.2     1  <O>11      -0.1470
  16 C9        3.9733    -8.0761     4.5452  C.ar    1  <O>11       0.2610
  17 C10       5.1847    -7.7549     4.1084  C.ar    1  <O>11       0.0041
  18 C11       5.3369    -8.4824     2.9055  C.ar    1  <O>11      -0.0219
  19 C12       4.1743    -9.2105     2.7225  C.ar    1  <O>11       0.0943
  20 O4        3.3145    -8.9448     3.7578  O.2     1  <O>11      -0.4449
  21 C13       2.1435    -4.1848     5.2991  C.ar    1  <O>11      -0.0358
  22 C14       4.2202    -0.0251     4.9315  C.ar    1  <O>11      -0.0158
  23 C15       5.4039     0.4308     4.3283  C.ar    1  <O>11       0.0232
  24 C16       6.1641     1.6216     4.8468  C.3     1  <O>11      -0.0222
  25 C17       5.7865     1.9954     6.2785  C.3     1  <O>11      -0.0486
  26 C18       4.2731     2.0252     6.4337  C.3     1  <O>11      -0.0487
  27 C19       3.6796     0.6416     6.1699  C.3     1  <O>11      -0.0255
  28 H1        5.5438    -1.7235     1.8081  H       1  <O>11       0.1921
  29 H2        1.5259    -1.0873     4.7082  H       1  <O>11       0.0377
  30 H3        2.4978    -1.7545     6.0423  H       1  <O>11       0.0377
  31 H4        1.0069    -6.8899     6.1032  H       1  <O>11       0.1738
  32 H5        7.2294     1.3927     4.8175  H       1  <O>11       0.0315
  33 H6        5.9571     2.4739     4.1996  H       1  <O>11       0.0315
  34 H7        6.2039     1.2585     6.9646  H       1  <O>11       0.0269
  35 H8        6.1914     2.9801     6.5118  H       1  <O>11       0.0269
  36 H9        4.0229     2.3350     7.4484  H       1  <O>11       0.0268
  37 H10       3.8538     2.7366     5.7222  H       1  <O>11       0.0268
  38 H11       3.8988     0.0045     7.0267  H       1  <O>11       0.0314
  39 H12       2.6001     0.7458     6.0607  H       1  <O>11       0.0314
  40 H13       2.0238    -2.4864     2.4004  H       1  <O>11       0.0620
  41 H14       1.6512    -4.7259     1.5377  H       1  <O>11       0.0618
  42 H15       1.5873    -6.6245     3.0551  H       1  <O>11       0.0636
  43 H16       5.8648    -7.1159     4.5490  H       1  <O>11       0.0670
  44 H17       6.1592    -8.4723     2.2819  H       1  <O>11       0.0650
  45 H18       3.9849    -9.8498     1.9348  H       1  <O>11       0.1030
  46 H19       2.2828    -4.0458     6.3122  H       1  <O>11       0.0639
@<TRIPOS>BOND
     1     1     2    2
     2     2     3   ar
     3     3     4   ar
     4     4     5   ar
     5     5     6    1
     6     6     7    1
     7     7     8   ar
     8     8     9   ar
     9     9    10   ar
    10    10    11   ar
    11    11    12    1
    12    12    13    1
    13    13    14    2
    14    13    15    2
    15    13    16    1
    16    16    17   ar
    17    17    18   ar
    18    18    19   ar
    19    19    20   ar
    20    16    20   ar
    21    11    21   ar
    22     7    21   ar
    23     5    22   ar
    24    22    23   ar
    25     2    23   ar
    26    23    24    1
    27    24    25    1
    28    25    26    1
    29    26    27    1
    30    22    27    1
    31     3    28    1
    32     6    29    1
    33     6    30    1
    34    12    31    1
    35    24    32    1
    36    24    33    1
    37    25    34    1
    38    25    35    1
    39    26    36    1
    40    26    37    1
    41    27    38    1
    42    27    39    1
    43     8    40    1
    44     9    41    1
    45    10    42    1
    46    17    43    1
    47    18    44    1
    48    19    45    1
    49    21    46    1
@<TRIPOS>MOLECULE
mol86_1_9
 46 49 0 0 0
SMALL
USER_CHARGES
****
VDW energy = -57.85
@<TRIPOS>ATOM
   1 O1        6.9878     0.1985     2.5155  O.2     1  <O>11      -0.2661
   2 C1        5.8255    -0.2285     3.1857  C.ar    1  <O>11       0.2682
   3 N1        5.1910    -1.2820     2.6452  N.ar    1  <O>11      -0.2427
   4 N2        4.0648    -1.7438     3.2451  N.ar    1  <O>11      -0.1753
   5 C2        3.6029    -1.1357     4.3580  C.ar    1  <O>11       0.0693
   6 C3        2.3840    -1.7110     4.9590  C.3     1  <O>11       0.0168
   7 C4        2.1704    -3.0832     4.4280  C.ar    1  <O>11      -0.0397
   8 C5        1.9953    -3.2892     3.0482  C.ar    1  <O>11      -0.0581
   9 C6        1.7823    -4.5805     2.5509  C.ar    1  <O>11      -0.0597
  10 C7        1.7466    -5.6730     3.4214  C.ar    1  <O>11      -0.0393
  11 C8        1.9283    -5.4671     4.7933  C.ar    1  <O>11       0.0484
  12 N3        1.8914    -6.5968     5.6858  N.pl3   1  <O>11      -0.2135
  13 S1        0.4868    -7.4442     5.8894  S.O2    1  <O>11       0.1056
  14 O2        0.7407    -8.6834     6.9651  O.2     1  <O>11      -0.1470
  15 O3        0.0013    -8.0697     4.4290  O.2     1  <O>11      -0.1470
  16 C9       -0.7698    -6.3645     6.5152  C.ar    1  <O>11       0.2610
  17 C10      -1.7576    -6.7829     7.2968  C.ar    1  <O>11       0.0041
  18 C11      -2.5250    -5.6240     7.5566  C.ar    1  <O>11      -0.0219
  19 C12      -1.9077    -4.5737     6.8998  C.ar    1  <O>11       0.0943
  20 O4       -0.8036    -5.0488     6.2388  O.2     1  <O>11      -0.4449
  21 C13       2.1435    -4.1848     5.2991  C.ar    1  <O>11      -0.0358
  22 C14       4.2202    -0.0251     4.9315  C.ar    1  <O>11      -0.0158
  23 C15       5.4039     0.4308     4.3283  C.ar    1  <O>11       0.0232
  24 C16       6.1641     1.6216     4.8468  C.3     1  <O>11      -0.0222
  25 C17       5.7865     1.9954     6.2785  C.3     1  <O>11      -0.0486
  26 C18       4.2731     2.0252     6.4337  C.3     1  <O>11      -0.0487
  27 C19       3.6796     0.6416     6.1699  C.3     1  <O>11      -0.0255
  28 H1        5.5438    -1.7235     1.8081  H       1  <O>11       0.1921
  29 H2        1.5259    -1.0873     4.7082  H       1  <O>11       0.0377
  30 H3        2.4978    -1.7545     6.0423  H       1  <O>11       0.0377
  31 H4        2.7327    -6.8760     6.1922  H       1  <O>11       0.1738
  32 H5        7.2294     1.3927     4.8175  H       1  <O>11       0.0315
  33 H6        5.9571     2.4739     4.1996  H       1  <O>11       0.0315
  34 H7        6.2039     1.2585     6.9646  H       1  <O>11       0.0269
  35 H8        6.1914     2.9801     6.5118  H       1  <O>11       0.0269
  36 H9        4.0229     2.3350     7.4484  H       1  <O>11       0.0268
  37 H10       3.8538     2.7366     5.7222  H       1  <O>11       0.0268
  38 H11       3.8988     0.0045     7.0267  H       1  <O>11       0.0314
  39 H12       2.6001     0.7458     6.0607  H       1  <O>11       0.0314
  40 H13       2.0238    -2.4864     2.4004  H       1  <O>11       0.0620
  41 H14       1.6512    -4.7259     1.5377  H       1  <O>11       0.0618
  42 H15       1.5873    -6.6245     3.0551  H       1  <O>11       0.0636
  43 H16      -1.9278    -7.7415     7.6390  H       1  <O>11       0.0670
  44 H17      -3.3829    -5.5713     8.1278  H       1  <O>11       0.0650
  45 H18      -2.2265    -3.5922     6.9064  H       1  <O>11       0.1030
  46 H19       2.2828    -4.0458     6.3122  H       1  <O>11       0.0639
@<TRIPOS>BOND
     1     1     2    2
     2     2     3   ar
     3     3     4   ar
     4     4     5   ar
     5     5     6    1
     6     6     7    1
     7     7     8   ar
     8     8     9   ar
     9     9    10   ar
    10    10    11   ar
    11    11    12    1
    12    12    13    1
    13    13    14    2
    14    13    15    2
    15    13    16    1
    16    16    17   ar
    17    17    18   ar
    18    18    19   ar
    19    19    20   ar
    20    16    20   ar
    21    11    21   ar
    22     7    21   ar
    23     5    22   ar
    24    22    23   ar
    25     2    23   ar
    26    23    24    1
    27    24    25    1
    28    25    26    1
    29    26    27    1
    30    22    27    1
    31     3    28    1
    32     6    29    1
    33     6    30    1
    34    12    31    1
    35    24    32    1
    36    24    33    1
    37    25    34    1
    38    25    35    1
    39    26    36    1
    40    26    37    1
    41    27    38    1
    42    27    39    1
    43     8    40    1
    44     9    41    1
    45    10    42    1
    46    17    43    1
    47    18    44    1
    48    19    45    1
    49    21    46    1
@<TRIPOS>MOLECULE
mol86_1_10
 46 49 0 0 0
SMALL
USER_CHARGES
****
VDW energy = -57.64
@<TRIPOS>ATOM
   1 O1        6.9878     0.1985     2.5155  O.2     1  <O>11      -0.2661
   2 C1        5.8255    -0.2285     3.1857  C.ar    1  <O>11       0.2682
   3 N1        5.1910    -1.2820     2.6452  N.ar    1  <O>11      -0.2427
   4 N2        4.0648    -1.7438     3.2451  N.ar    1  <O>11      -0.1753
   5 C2        3.6029    -1.1357     4.3580  C.ar    1  <O>11       0.0693
   6 C3        2.3840    -1.7110     4.9590  C.3     1  <O>11       0.0168
   7 C4        2.1704    -3.0832     4.4280  C.ar    1  <O>11      -0.0397
   8 C5        1.9953    -3.2892     3.0482  C.ar    1  <O>11      -0.0581
   9 C6        1.7823    -4.5805     2.5509  C.ar    1  <O>11      -0.0597
  10 C7        1.7466    -5.6730     3.4214  C.ar    1  <O>11      -0.0393
  11 C8        1.9283    -5.4671     4.7933  C.ar    1  <O>11       0.0484
  12 N3        1.8914    -6.5968     5.6858  N.pl3   1  <O>11      -0.2135
  13 S1        0.4868    -7.4442     5.8894  S.O2    1  <O>11       0.1056
  14 O2        0.7407    -8.6834     6.9651  O.2     1  <O>11      -0.1470
  15 O3        0.0013    -8.0697     4.4290  O.2     1  <O>11      -0.1470
  16 C9       -0.7698    -6.3645     6.5152  C.ar    1  <O>11       0.2610
  17 C10      -1.3817    -6.5651     7.6758  C.ar    1  <O>11       0.0041
  18 C11      -2.2995    -5.4952     7.7872  C.ar    1  <O>11      -0.0219
  19 C12      -2.1478    -4.7120     6.6562  C.ar    1  <O>11       0.0943
  20 O4       -1.1850    -5.2696     5.8539  O.2     1  <O>11      -0.4449
  21 C13       2.1435    -4.1848     5.2991  C.ar    1  <O>11      -0.0358
  22 C14       4.2202    -0.0251     4.9315  C.ar    1  <O>11      -0.0158
  23 C15       5.4039     0.4308     4.3283  C.ar    1  <O>11       0.0232
  24 C16       6.1641     1.6216     4.8468  C.3     1  <O>11      -0.0222
  25 C17       5.7865     1.9954     6.2785  C.3     1  <O>11      -0.0486
  26 C18       4.2731     2.0252     6.4337  C.3     1  <O>11      -0.0487
  27 C19       3.6796     0.6416     6.1699  C.3     1  <O>11      -0.0255
  28 H1        5.5438    -1.7235     1.8081  H       1  <O>11       0.1921
  29 H2        1.5259    -1.0873     4.7082  H       1  <O>11       0.0377
  30 H3        2.4978    -1.7545     6.0423  H       1  <O>11       0.0377
  31 H4        2.7327    -6.8760     6.1922  H       1  <O>11       0.1738
  32 H5        7.2294     1.3927     4.8175  H       1  <O>11       0.0315
  33 H6        5.9571     2.4739     4.1996  H       1  <O>11       0.0315
  34 H7        6.2039     1.2585     6.9646  H       1  <O>11       0.0269
  35 H8        6.1914     2.9801     6.5118  H       1  <O>11       0.0269
  36 H9        4.0229     2.3350     7.4484  H       1  <O>11       0.0268
  37 H10       3.8538     2.7366     5.7222  H       1  <O>11       0.0268
  38 H11       3.8988     0.0045     7.0267  H       1  <O>11       0.0314
  39 H12       2.6001     0.7458     6.0607  H       1  <O>11       0.0314
  40 H13       2.0238    -2.4864     2.4004  H       1  <O>11       0.0620
  41 H14       1.6512    -4.7259     1.5377  H       1  <O>11       0.0618
  42 H15       1.5873    -6.6245     3.0551  H       1  <O>11       0.0636
  43 H16      -1.2228    -7.3319     8.3479  H       1  <O>11       0.0670
  44 H17      -2.9578    -5.3297     8.5645  H       1  <O>11       0.0650
  45 H18      -2.6739    -3.8484     6.4500  H       1  <O>11       0.1030
  46 H19       2.2828    -4.0458     6.3122  H       1  <O>11       0.0639
@<TRIPOS>BOND
     1     1     2    2
     2     2     3   ar
     3     3     4   ar
     4     4     5   ar
     5     5     6    1
     6     6     7    1
     7     7     8   ar
     8     8     9   ar
     9     9    10   ar
    10    10    11   ar
    11    11    12    1
    12    12    13    1
    13    13    14    2
    14    13    15    2
    15    13    16    1
    16    16    17   ar
    17    17    18   ar
    18    18    19   ar
    19    19    20   ar
    20    16    20   ar
    21    11    21   ar
    22     7    21   ar
    23     5    22   ar
    24    22    23   ar
    25     2    23   ar
    26    23    24    1
    27    24    25    1
    28    25    26    1
    29    26    27    1
    30    22    27    1
    31     3    28    1
    32     6    29    1
    33     6    30    1
    34    12    31    1
    35    24    32    1
    36    24    33    1
    37    25    34    1
    38    25    35    1
    39    26    36    1
    40    26    37    1
    41    27    38    1
    42    27    39    1
    43     8    40    1
    44     9    41    1
    45    10    42    1
    46    17    43    1
    47    18    44    1
    48    19    45    1
    49    21    46    1
@<TRIPOS>MOLECULE
mol86_1_11
 46 49 0 0 0
SMALL
USER_CHARGES
****
VDW energy = -57.12
@<TRIPOS>ATOM
   1 O1        6.9878     0.1985     2.5155  O.2     1  <O>11      -0.2661
   2 C1        5.8255    -0.2285     3.1857  C.ar    1  <O>11       0.2682
   3 N1        5.1910    -1.2820     2.6452  N.ar    1  <O>11      -0.2427
   4 N2        4.0648    -1.7438     3.2451  N.ar    1  <O>11      -0.1753
   5 C2        3.6029    -1.1357     4.3580  C.ar    1  <O>11       0.0693
   6 C3        2.3840    -1.7110     4.9590  C.3     1  <O>11       0.0168
   7 C4        2.1704    -3.0832     4.4280  C.ar    1  <O>11      -0.0397
   8 C5        1.9953    -3.2892     3.0482  C.ar    1  <O>11      -0.0581
   9 C6        1.7823    -4.5805     2.5509  C.ar    1  <O>11      -0.0597
  10 C7        1.7466    -5.6730     3.4214  C.ar    1  <O>11      -0.0393
  11 C8        1.9283    -5.4671     4.7933  C.ar    1  <O>11       0.0484
  12 N3        1.8914    -6.5968     5.6858  N.pl3   1  <O>11      -0.2135
  13 S1        0.4868    -7.4442     5.8894  S.O2    1  <O>11       0.1056
  14 O2        0.7407    -8.6834     6.9651  O.2     1  <O>11      -0.1470
  15 O3        0.0013    -8.0697     4.4290  O.2     1  <O>11      -0.1470
  16 C9       -0.7698    -6.3645     6.5152  C.ar    1  <O>11       0.2610
  17 C10      -1.9065    -6.1300     5.8713  C.ar    1  <O>11       0.0041
  18 C11      -2.6081    -5.2244     6.7002  C.ar    1  <O>11      -0.0219
  19 C12      -1.8154    -4.9944     7.8111  C.ar    1  <O>11       0.0943
  20 O4       -0.6531    -5.7121     7.6855  O.2     1  <O>11      -0.4449
  21 C13       2.1435    -4.1848     5.2991  C.ar    1  <O>11      -0.0358
  22 C14       4.2202    -0.0251     4.9315  C.ar    1  <O>11      -0.0158
  23 C15       5.4039     0.4308     4.3283  C.ar    1  <O>11       0.0232
  24 C16       6.1641     1.6216     4.8468  C.3     1  <O>11      -0.0222
  25 C17       5.7865     1.9954     6.2785  C.3     1  <O>11      -0.0486
  26 C18       4.2731     2.0252     6.4337  C.3     1  <O>11      -0.0487
  27 C19       3.6796     0.6416     6.1699  C.3     1  <O>11      -0.0255
  28 H1        5.5438    -1.7235     1.8081  H       1  <O>11       0.1921
  29 H2        1.5259    -1.0873     4.7082  H       1  <O>11       0.0377
  30 H3        2.4978    -1.7545     6.0423  H       1  <O>11       0.0377
  31 H4        2.7327    -6.8760     6.1922  H       1  <O>11       0.1738
  32 H5        7.2294     1.3927     4.8175  H       1  <O>11       0.0315
  33 H6        5.9571     2.4739     4.1996  H       1  <O>11       0.0315
  34 H7        6.2039     1.2585     6.9646  H       1  <O>11       0.0269
  35 H8        6.1914     2.9801     6.5118  H       1  <O>11       0.0269
  36 H9        4.0229     2.3350     7.4484  H       1  <O>11       0.0268
  37 H10       3.8538     2.7366     5.7222  H       1  <O>11       0.0268
  38 H11       3.8988     0.0045     7.0267  H       1  <O>11       0.0314
  39 H12       2.6001     0.7458     6.0607  H       1  <O>11       0.0314
  40 H13       2.0238    -2.4864     2.4004  H       1  <O>11       0.0620
  41 H14       1.6512    -4.7259     1.5377  H       1  <O>11       0.0618
  42 H15       1.5873    -6.6245     3.0551  H       1  <O>11       0.0636
  43 H16      -2.2107    -6.5218     4.9664  H       1  <O>11       0.0670
  44 H17      -3.5357    -4.8128     6.5123  H       1  <O>11       0.0650
  45 H18      -2.0592    -4.3822     8.6053  H       1  <O>11       0.1030
  46 H19       2.2828    -4.0458     6.3122  H       1  <O>11       0.0639
@<TRIPOS>BOND
     1     1     2    2
     2     2     3   ar
     3     3     4   ar
     4     4     5   ar
     5     5     6    1
     6     6     7    1
     7     7     8   ar
     8     8     9   ar
     9     9    10   ar
    10    10    11   ar
    11    11    12    1
    12    12    13    1
    13    13    14    2
    14    13    15    2
    15    13    16    1
    16    16    17   ar
    17    17    18   ar
    18    18    19   ar
    19    19    20   ar
    20    16    20   ar
    21    11    21   ar
    22     7    21   ar
    23     5    22   ar
    24    22    23   ar
    25     2    23   ar
    26    23    24    1
    27    24    25    1
    28    25    26    1
    29    26    27    1
    30    22    27    1
    31     3    28    1
    32     6    29    1
    33     6    30    1
    34    12    31    1
    35    24    32    1
    36    24    33    1
    37    25    34    1
    38    25    35    1
    39    26    36    1
    40    26    37    1
    41    27    38    1
    42    27    39    1
    43     8    40    1
    44     9    41    1
    45    10    42    1
    46    17    43    1
    47    18    44    1
    48    19    45    1
    49    21    46    1
@<TRIPOS>MOLECULE
mol86_1_12
 46 49 0 0 0
SMALL
USER_CHARGES
****
VDW energy = -56.68
@<TRIPOS>ATOM
   1 O1        6.9878     0.1985     2.5155  O.2     1  <O>11      -0.2661
   2 C1        5.8255    -0.2285     3.1857  C.ar    1  <O>11       0.2682
   3 N1        5.1910    -1.2820     2.6452  N.ar    1  <O>11      -0.2427
   4 N2        4.0648    -1.7438     3.2451  N.ar    1  <O>11      -0.1753
   5 C2        3.6029    -1.1357     4.3580  C.ar    1  <O>11       0.0693
   6 C3        2.3840    -1.7110     4.9590  C.3     1  <O>11       0.0168
   7 C4        2.1704    -3.0832     4.4280  C.ar    1  <O>11      -0.0397
   8 C5        1.9953    -3.2892     3.0482  C.ar    1  <O>11      -0.0581
   9 C6        1.7823    -4.5805     2.5509  C.ar    1  <O>11      -0.0597
  10 C7        1.7466    -5.6730     3.4214  C.ar    1  <O>11      -0.0393
  11 C8        1.9283    -5.4671     4.7933  C.ar    1  <O>11       0.0484
  12 N3        1.8914    -6.5968     5.6858  N.pl3   1  <O>11      -0.2135
  13 S1        3.2817    -7.4189     6.0373  S.O2    1  <O>11       0.1056
  14 O2        4.3720    -6.3837     6.7418  O.2     1  <O>11      -0.1470
  15 O3        3.9289    -8.0354     4.6369  O.2     1  <O>11      -0.1470
  16 C9        2.9182    -8.7456     7.1527  C.ar    1  <O>11       0.2610
  17 C10       3.1503   -10.0192     6.8598  C.ar    1  <O>11       0.0041
  18 C11       2.7174   -10.7343     8.0002  C.ar    1  <O>11      -0.0219
  19 C12       2.2599    -9.8010     8.9140  C.ar    1  <O>11       0.0943
  20 O4        2.3833    -8.5476     8.3706  O.2     1  <O>11      -0.4449
  21 C13       2.1435    -4.1848     5.2991  C.ar    1  <O>11      -0.0358
  22 C14       4.2202    -0.0251     4.9315  C.ar    1  <O>11      -0.0158
  23 C15       5.4039     0.4308     4.3283  C.ar    1  <O>11       0.0232
  24 C16       6.1641     1.6216     4.8468  C.3     1  <O>11      -0.0222
  25 C17       5.7865     1.9954     6.2785  C.3     1  <O>11      -0.0486
  26 C18       4.2731     2.0252     6.4337  C.3     1  <O>11      -0.0487
  27 C19       3.6796     0.6416     6.1699  C.3     1  <O>11      -0.0255
  28 H1        5.5438    -1.7235     1.8081  H       1  <O>11       0.1921
  29 H2        1.5259    -1.0873     4.7082  H       1  <O>11       0.0377
  30 H3        2.4978    -1.7545     6.0423  H       1  <O>11       0.0377
  31 H4        1.0069    -6.8899     6.1032  H       1  <O>11       0.1738
  32 H5        7.2294     1.3927     4.8175  H       1  <O>11       0.0315
  33 H6        5.9571     2.4739     4.1996  H       1  <O>11       0.0315
  34 H7        6.2039     1.2585     6.9646  H       1  <O>11       0.0269
  35 H8        6.1914     2.9801     6.5118  H       1  <O>11       0.0269
  36 H9        4.0229     2.3350     7.4484  H       1  <O>11       0.0268
  37 H10       3.8538     2.7366     5.7222  H       1  <O>11       0.0268
  38 H11       3.8988     0.0045     7.0267  H       1  <O>11       0.0314
  39 H12       2.6001     0.7458     6.0607  H       1  <O>11       0.0314
  40 H13       2.0238    -2.4864     2.4004  H       1  <O>11       0.0620
  41 H14       1.6512    -4.7259     1.5377  H       1  <O>11       0.0618
  42 H15       1.5873    -6.6245     3.0551  H       1  <O>11       0.0636
  43 H16       3.5566   -10.4025     5.9920  H       1  <O>11       0.0670
  44 H17       2.7385   -11.7583     8.1271  H       1  <O>11       0.0650
  45 H18       1.8864   -10.0137     9.8523  H       1  <O>11       0.1030
  46 H19       2.2828    -4.0458     6.3122  H       1  <O>11       0.0639
@<TRIPOS>BOND
     1     1     2    2
     2     2     3   ar
     3     3     4   ar
     4     4     5   ar
     5     5     6    1
     6     6     7    1
     7     7     8   ar
     8     8     9   ar
     9     9    10   ar
    10    10    11   ar
    11    11    12    1
    12    12    13    1
    13    13    14    2
    14    13    15    2
    15    13    16    1
    16    16    17   ar
    17    17    18   ar
    18    18    19   ar
    19    19    20   ar
    20    16    20   ar
    21    11    21   ar
    22     7    21   ar
    23     5    22   ar
    24    22    23   ar
    25     2    23   ar
    26    23    24    1
    27    24    25    1
    28    25    26    1
    29    26    27    1
    30    22    27    1
    31     3    28    1
    32     6    29    1
    33     6    30    1
    34    12    31    1
    35    24    32    1
    36    24    33    1
    37    25    34    1
    38    25    35    1
    39    26    36    1
    40    26    37    1
    41    27    38    1
    42    27    39    1
    43     8    40    1
    44     9    41    1
    45    10    42    1
    46    17    43    1
    47    18    44    1
    48    19    45    1
    49    21    46    1
@<TRIPOS>MOLECULE
mol86_1_13
 46 49 0 0 0
SMALL
USER_CHARGES
****
VDW energy = -56.64
@<TRIPOS>ATOM
   1 O1        6.9878     0.1985     2.5155  O.2     1  <O>11      -0.2661
   2 C1        5.8255    -0.2285     3.1857  C.ar    1  <O>11       0.2682
   3 N1        5.1910    -1.2820     2.6452  N.ar    1  <O>11      -0.2427
   4 N2        4.0648    -1.7438     3.2451  N.ar    1  <O>11      -0.1753
   5 C2        3.6029    -1.1357     4.3580  C.ar    1  <O>11       0.0693
   6 C3        2.3840    -1.7110     4.9590  C.3     1  <O>11       0.0168
   7 C4        2.1704    -3.0832     4.4280  C.ar    1  <O>11      -0.0397
   8 C5        1.9953    -3.2892     3.0482  C.ar    1  <O>11      -0.0581
   9 C6        1.7823    -4.5805     2.5509  C.ar    1  <O>11      -0.0597
  10 C7        1.7466    -5.6730     3.4214  C.ar    1  <O>11      -0.0393
  11 C8        1.9283    -5.4671     4.7933  C.ar    1  <O>11       0.0484
  12 N3        1.8914    -6.5968     5.6858  N.pl3   1  <O>11      -0.2135
  13 S1        3.2817    -7.4189     6.0373  S.O2    1  <O>11       0.1056
  14 O2        4.3720    -6.3837     6.7418  O.2     1  <O>11      -0.1470
  15 O3        3.9289    -8.0354     4.6369  O.2     1  <O>11      -0.1470
  16 C9        2.9182    -8.7456     7.1527  C.ar    1  <O>11       0.2610
  17 C10       3.4648    -8.8457     8.3580  C.ar    1  <O>11       0.0041
  18 C11       2.9179   -10.0305     8.9027  C.ar    1  <O>11      -0.0219
  19 C12       2.0536   -10.5507     7.9552  C.ar    1  <O>11       0.0943
  20 O4        2.0630    -9.7384     6.8498  O.2     1  <O>11      -0.4449
  21 C13       2.1435    -4.1848     5.2991  C.ar    1  <O>11      -0.0358
  22 C14       4.2202    -0.0251     4.9315  C.ar    1  <O>11      -0.0158
  23 C15       5.4039     0.4308     4.3283  C.ar    1  <O>11       0.0232
  24 C16       6.1641     1.6216     4.8468  C.3     1  <O>11      -0.0222
  25 C17       5.7865     1.9954     6.2785  C.3     1  <O>11      -0.0486
  26 C18       4.2731     2.0252     6.4337  C.3     1  <O>11      -0.0487
  27 C19       3.6796     0.6416     6.1699  C.3     1  <O>11      -0.0255
  28 H1        5.5438    -1.7235     1.8081  H       1  <O>11       0.1921
  29 H2        1.5259    -1.0873     4.7082  H       1  <O>11       0.0377
  30 H3        2.4978    -1.7545     6.0423  H       1  <O>11       0.0377
  31 H4        1.0069    -6.8899     6.1032  H       1  <O>11       0.1738
  32 H5        7.2294     1.3927     4.8175  H       1  <O>11       0.0315
  33 H6        5.9571     2.4739     4.1996  H       1  <O>11       0.0315
  34 H7        6.2039     1.2585     6.9646  H       1  <O>11       0.0269
  35 H8        6.1914     2.9801     6.5118  H       1  <O>11       0.0269
  36 H9        4.0229     2.3350     7.4484  H       1  <O>11       0.0268
  37 H10       3.8538     2.7366     5.7222  H       1  <O>11       0.0268
  38 H11       3.8988     0.0045     7.0267  H       1  <O>11       0.0314
  39 H12       2.6001     0.7458     6.0607  H       1  <O>11       0.0314
  40 H13       2.0238    -2.4864     2.4004  H       1  <O>11       0.0620
  41 H14       1.6512    -4.7259     1.5377  H       1  <O>11       0.0618
  42 H15       1.5873    -6.6245     3.0551  H       1  <O>11       0.0636
  43 H16       4.1393    -8.2016     8.7997  H       1  <O>11       0.0670
  44 H17       3.1241   -10.4314     9.8310  H       1  <O>11       0.0650
  45 H18       1.4929   -11.4104     8.0628  H       1  <O>11       0.1030
  46 H19       2.2828    -4.0458     6.3122  H       1  <O>11       0.0639
@<TRIPOS>BOND
     1     1     2    2
     2     2     3   ar
     3     3     4   ar
     4     4     5   ar
     5     5     6    1
     6     6     7    1
     7     7     8   ar
     8     8     9   ar
     9     9    10   ar
    10    10    11   ar
    11    11    12    1
    12    12    13    1
    13    13    14    2
    14    13    15    2
    15    13    16    1
    16    16    17   ar
    17    17    18   ar
    18    18    19   ar
    19    19    20   ar
    20    16    20   ar
    21    11    21   ar
    22     7    21   ar
    23     5    22   ar
    24    22    23   ar
    25     2    23   ar
    26    23    24    1
    27    24    25    1
    28    25    26    1
    29    26    27    1
    30    22    27    1
    31     3    28    1
    32     6    29    1
    33     6    30    1
    34    12    31    1
    35    24    32    1
    36    24    33    1
    37    25    34    1
    38    25    35    1
    39    26    36    1
    40    26    37    1
    41    27    38    1
    42    27    39    1
    43     8    40    1
    44     9    41    1
    45    10    42    1
    46    17    43    1
    47    18    44    1
    48    19    45    1
    49    21    46    1
@<TRIPOS>MOLECULE
mol86_1_14
 46 49 0 0 0
SMALL
USER_CHARGES
****
VDW energy = -56.55
@<TRIPOS>ATOM
   1 O1        6.9878     0.1985     2.5155  O.2     1  <O>11      -0.2661
   2 C1        5.8255    -0.2285     3.1857  C.ar    1  <O>11       0.2682
   3 N1        5.1910    -1.2820     2.6452  N.ar    1  <O>11      -0.2427
   4 N2        4.0648    -1.7438     3.2451  N.ar    1  <O>11      -0.1753
   5 C2        3.6029    -1.1357     4.3580  C.ar    1  <O>11       0.0693
   6 C3        2.3840    -1.7110     4.9590  C.3     1  <O>11       0.0168
   7 C4        2.1704    -3.0832     4.4280  C.ar    1  <O>11      -0.0397
   8 C5        1.9953    -3.2892     3.0482  C.ar    1  <O>11      -0.0581
   9 C6        1.7823    -4.5805     2.5509  C.ar    1  <O>11      -0.0597
  10 C7        1.7466    -5.6730     3.4214  C.ar    1  <O>11      -0.0393
  11 C8        1.9283    -5.4671     4.7933  C.ar    1  <O>11       0.0484
  12 N3        1.8914    -6.5968     5.6858  N.pl3   1  <O>11      -0.2135
  13 S1        3.0618    -7.7606     5.5957  S.O2    1  <O>11       0.1056
  14 O2        2.7668    -8.9297     6.7372  O.2     1  <O>11      -0.1470
  15 O3        4.5479    -7.0737     5.8782  O.2     1  <O>11      -0.1470
  16 C9        3.0469    -8.4905     3.9822  C.ar    1  <O>11       0.2610
  17 C10       4.0942    -8.4625     3.1675  C.ar    1  <O>11       0.0041
  18 C11       3.6619    -9.1398     2.0039  C.ar    1  <O>11      -0.0219
  19 C12       2.3565    -9.5403     2.2298  C.ar    1  <O>11       0.0943
  20 O4        1.9717    -9.1218     3.4782  O.2     1  <O>11      -0.4449
  21 C13       2.1435    -4.1848     5.2991  C.ar    1  <O>11      -0.0358
  22 C14       4.2202    -0.0251     4.9315  C.ar    1  <O>11      -0.0158
  23 C15       5.4039     0.4308     4.3283  C.ar    1  <O>11       0.0232
  24 C16       6.1641     1.6216     4.8468  C.3     1  <O>11      -0.0222
  25 C17       5.7865     1.9954     6.2785  C.3     1  <O>11      -0.0486
  26 C18       4.2731     2.0252     6.4337  C.3     1  <O>11      -0.0487
  27 C19       3.6796     0.6416     6.1699  C.3     1  <O>11      -0.0255
  28 H1        5.5438    -1.7235     1.8081  H       1  <O>11       0.1921
  29 H2        1.5259    -1.0873     4.7082  H       1  <O>11       0.0377
  30 H3        2.4978    -1.7545     6.0423  H       1  <O>11       0.0377
  31 H4        1.1432    -6.6791     6.3757  H       1  <O>11       0.1738
  32 H5        7.2294     1.3927     4.8175  H       1  <O>11       0.0315
  33 H6        5.9571     2.4739     4.1996  H       1  <O>11       0.0315
  34 H7        6.2039     1.2585     6.9646  H       1  <O>11       0.0269
  35 H8        6.1914     2.9801     6.5118  H       1  <O>11       0.0269
  36 H9        4.0229     2.3350     7.4484  H       1  <O>11       0.0268
  37 H10       3.8538     2.7366     5.7222  H       1  <O>11       0.0268
  38 H11       3.8988     0.0045     7.0267  H       1  <O>11       0.0314
  39 H12       2.6001     0.7458     6.0607  H       1  <O>11       0.0314
  40 H13       2.0238    -2.4864     2.4004  H       1  <O>11       0.0620
  41 H14       1.6512    -4.7259     1.5377  H       1  <O>11       0.0618
  42 H15       1.5873    -6.6245     3.0551  H       1  <O>11       0.0636
  43 H16       5.0191    -8.0402     3.3440  H       1  <O>11       0.0670
  44 H17       4.2149    -9.3042     1.1483  H       1  <O>11       0.0650
  45 H18       1.7680   -10.0682     1.5664  H       1  <O>11       0.1030
  46 H19       2.2828    -4.0458     6.3122  H       1  <O>11       0.0639
@<TRIPOS>BOND
     1     1     2    2
     2     2     3   ar
     3     3     4   ar
     4     4     5   ar
     5     5     6    1
     6     6     7    1
     7     7     8   ar
     8     8     9   ar
     9     9    10   ar
    10    10    11   ar
    11    11    12    1
    12    12    13    1
    13    13    14    2
    14    13    15    2
    15    13    16    1
    16    16    17   ar
    17    17    18   ar
    18    18    19   ar
    19    19    20   ar
    20    16    20   ar
    21    11    21   ar
    22     7    21   ar
    23     5    22   ar
    24    22    23   ar
    25     2    23   ar
    26    23    24    1
    27    24    25    1
    28    25    26    1
    29    26    27    1
    30    22    27    1
    31     3    28    1
    32     6    29    1
    33     6    30    1
    34    12    31    1
    35    24    32    1
    36    24    33    1
    37    25    34    1
    38    25    35    1
    39    26    36    1
    40    26    37    1
    41    27    38    1
    42    27    39    1
    43     8    40    1
    44     9    41    1
    45    10    42    1
    46    17    43    1
    47    18    44    1
    48    19    45    1
    49    21    46    1
@<TRIPOS>MOLECULE
mol86_1_15
 46 49 0 0 0
SMALL
USER_CHARGES
****
VDW energy = -56.41
@<TRIPOS>ATOM
   1 O1        6.9878     0.1985     2.5155  O.2     1  <O>11      -0.2661
   2 C1        5.8255    -0.2285     3.1857  C.ar    1  <O>11       0.2682
   3 N1        5.1910    -1.2820     2.6452  N.ar    1  <O>11      -0.2427
   4 N2        4.0648    -1.7438     3.2451  N.ar    1  <O>11      -0.1753
   5 C2        3.6029    -1.1357     4.3580  C.ar    1  <O>11       0.0693
   6 C3        2.3840    -1.7110     4.9590  C.3     1  <O>11       0.0168
   7 C4        2.1704    -3.0832     4.4280  C.ar    1  <O>11      -0.0397
   8 C5        1.9953    -3.2892     3.0482  C.ar    1  <O>11      -0.0581
   9 C6        1.7823    -4.5805     2.5509  C.ar    1  <O>11      -0.0597
  10 C7        1.7466    -5.6730     3.4214  C.ar    1  <O>11      -0.0393
  11 C8        1.9283    -5.4671     4.7933  C.ar    1  <O>11       0.0484
  12 N3        1.8914    -6.5968     5.6858  N.pl3   1  <O>11      -0.2135
  13 S1        3.0618    -7.7606     5.5957  S.O2    1  <O>11       0.1056
  14 O2        4.5468    -7.0729     5.8767  O.2     1  <O>11      -0.1470
  15 O3        3.0462    -8.4449     4.0820  O.2     1  <O>11      -0.1470
  16 C9        2.7480    -9.0101     6.8108  C.ar    1  <O>11       0.2610
  17 C10       3.7132    -9.7174     7.3850  C.ar    1  <O>11       0.0041
  18 C11       3.0401   -10.5907     8.2702  C.ar    1  <O>11      -0.0219
  19 C12       1.6879   -10.3173     8.1589  C.ar    1  <O>11       0.0943
  20 O4        1.5093    -9.3228     7.2311  O.2     1  <O>11      -0.4449
  21 C13       2.1435    -4.1848     5.2991  C.ar    1  <O>11      -0.0358
  22 C14       4.2202    -0.0251     4.9315  C.ar    1  <O>11      -0.0158
  23 C15       5.4039     0.4308     4.3283  C.ar    1  <O>11       0.0232
  24 C16       6.1641     1.6216     4.8468  C.3     1  <O>11      -0.0222
  25 C17       5.7865     1.9954     6.2785  C.3     1  <O>11      -0.0486
  26 C18       4.2731     2.0252     6.4337  C.3     1  <O>11      -0.0487
  27 C19       3.6796     0.6416     6.1699  C.3     1  <O>11      -0.0255
  28 H1        5.5438    -1.7235     1.8081  H       1  <O>11       0.1921
  29 H2        1.5259    -1.0873     4.7082  H       1  <O>11       0.0377
  30 H3        2.4978    -1.7545     6.0423  H       1  <O>11       0.0377
  31 H4        1.1432    -6.6791     6.3757  H       1  <O>11       0.1738
  32 H5        7.2294     1.3927     4.8175  H       1  <O>11       0.0315
  33 H6        5.9571     2.4739     4.1996  H       1  <O>11       0.0315
  34 H7        6.2039     1.2585     6.9646  H       1  <O>11       0.0269
  35 H8        6.1914     2.9801     6.5118  H       1  <O>11       0.0269
  36 H9        4.0229     2.3350     7.4484  H       1  <O>11       0.0268
  37 H10       3.8538     2.7366     5.7222  H       1  <O>11       0.0268
  38 H11       3.8988     0.0045     7.0267  H       1  <O>11       0.0314
  39 H12       2.6001     0.7458     6.0607  H       1  <O>11       0.0314
  40 H13       2.0238    -2.4864     2.4004  H       1  <O>11       0.0620
  41 H14       1.6512    -4.7259     1.5377  H       1  <O>11       0.0618
  42 H15       1.5873    -6.6245     3.0551  H       1  <O>11       0.0636
  43 H16       4.7296    -9.6458     7.2216  H       1  <O>11       0.0670
  44 H17       3.4747   -11.2981     8.8833  H       1  <O>11       0.0650
  45 H18       0.9359   -10.7858     8.6881  H       1  <O>11       0.1030
  46 H19       2.2828    -4.0458     6.3122  H       1  <O>11       0.0639
@<TRIPOS>BOND
     1     1     2    2
     2     2     3   ar
     3     3     4   ar
     4     4     5   ar
     5     5     6    1
     6     6     7    1
     7     7     8   ar
     8     8     9   ar
     9     9    10   ar
    10    10    11   ar
    11    11    12    1
    12    12    13    1
    13    13    14    2
    14    13    15    2
    15    13    16    1
    16    16    17   ar
    17    17    18   ar
    18    18    19   ar
    19    19    20   ar
    20    16    20   ar
    21    11    21   ar
    22     7    21   ar
    23     5    22   ar
    24    22    23   ar
    25     2    23   ar
    26    23    24    1
    27    24    25    1
    28    25    26    1
    29    26    27    1
    30    22    27    1
    31     3    28    1
    32     6    29    1
    33     6    30    1
    34    12    31    1
    35    24    32    1
    36    24    33    1
    37    25    34    1
    38    25    35    1
    39    26    36    1
    40    26    37    1
    41    27    38    1
    42    27    39    1
    43     8    40    1
    44     9    41    1
    45    10    42    1
    46    17    43    1
    47    18    44    1
    48    19    45    1
    49    21    46    1
@<TRIPOS>MOLECULE
mol86_1_16
 46 49 0 0 0
SMALL
USER_CHARGES
****
VDW energy = -55.71
@<TRIPOS>ATOM
   1 O1        6.9878     0.1985     2.5155  O.2     1  <O>11      -0.2661
   2 C1        5.8255    -0.2285     3.1857  C.ar    1  <O>11       0.2682
   3 N1        5.1910    -1.2820     2.6452  N.ar    1  <O>11      -0.2427
   4 N2        4.0648    -1.7438     3.2451  N.ar    1  <O>11      -0.1753
   5 C2        3.6029    -1.1357     4.3580  C.ar    1  <O>11       0.0693
   6 C3        2.3840    -1.7110     4.9590  C.3     1  <O>11       0.0168
   7 C4        2.1704    -3.0832     4.4280  C.ar    1  <O>11      -0.0397
   8 C5        1.9953    -3.2892     3.0482  C.ar    1  <O>11      -0.0581
   9 C6        1.7823    -4.5805     2.5509  C.ar    1  <O>11      -0.0597
  10 C7        1.7466    -5.6730     3.4214  C.ar    1  <O>11      -0.0393
  11 C8        1.9283    -5.4671     4.7933  C.ar    1  <O>11       0.0484
  12 N3        1.8914    -6.5968     5.6858  N.pl3   1  <O>11      -0.2135
  13 S1        0.4868    -7.4442     5.8894  S.O2    1  <O>11       0.1056
  14 O2        0.0016    -8.0677     4.4290  O.2     1  <O>11      -0.1470
  15 O3       -0.6908    -6.4304     6.4771  O.2     1  <O>11      -0.1470
  16 C9        0.7544    -8.7652     7.0382  C.ar    1  <O>11       0.2610
  17 C10       0.5783   -10.0425     6.7235  C.ar    1  <O>11       0.0041
  18 C11       0.8883   -10.7500     7.9079  C.ar    1  <O>11      -0.0219
  19 C12       1.2475    -9.8106     8.8586  C.ar    1  <O>11       0.0943
  20 O4        1.1548    -8.5587     8.3054  O.2     1  <O>11      -0.4449
  21 C13       2.1435    -4.1848     5.2991  C.ar    1  <O>11      -0.0358
  22 C14       4.2202    -0.0251     4.9315  C.ar    1  <O>11      -0.0158
  23 C15       5.4039     0.4308     4.3283  C.ar    1  <O>11       0.0232
  24 C16       6.1641     1.6216     4.8468  C.3     1  <O>11      -0.0222
  25 C17       5.7865     1.9954     6.2785  C.3     1  <O>11      -0.0486
  26 C18       4.2731     2.0252     6.4337  C.3     1  <O>11      -0.0487
  27 C19       3.6796     0.6416     6.1699  C.3     1  <O>11      -0.0255
  28 H1        5.5438    -1.7235     1.8081  H       1  <O>11       0.1921
  29 H2        1.5259    -1.0873     4.7082  H       1  <O>11       0.0377
  30 H3        2.4978    -1.7545     6.0423  H       1  <O>11       0.0377
  31 H4        2.7327    -6.8760     6.1922  H       1  <O>11       0.1738
  32 H5        7.2294     1.3927     4.8175  H       1  <O>11       0.0315
  33 H6        5.9571     2.4739     4.1996  H       1  <O>11       0.0315
  34 H7        6.2039     1.2585     6.9646  H       1  <O>11       0.0269
  35 H8        6.1914     2.9801     6.5118  H       1  <O>11       0.0269
  36 H9        4.0229     2.3350     7.4484  H       1  <O>11       0.0268
  37 H10       3.8538     2.7366     5.7222  H       1  <O>11       0.0268
  38 H11       3.8988     0.0045     7.0267  H       1  <O>11       0.0314
  39 H12       2.6001     0.7458     6.0607  H       1  <O>11       0.0314
  40 H13       2.0238    -2.4864     2.4004  H       1  <O>11       0.0620
  41 H14       1.6512    -4.7259     1.5377  H       1  <O>11       0.0618
  42 H15       1.5873    -6.6245     3.0551  H       1  <O>11       0.0636
  43 H16       0.2808   -10.4328     5.8156  H       1  <O>11       0.0670
  44 H17       0.8534   -11.7731     8.0386  H       1  <O>11       0.0650
  45 H18       1.5380   -10.0182     9.8269  H       1  <O>11       0.1030
  46 H19       2.2828    -4.0458     6.3122  H       1  <O>11       0.0639
@<TRIPOS>BOND
     1     1     2    2
     2     2     3   ar
     3     3     4   ar
     4     4     5   ar
     5     5     6    1
     6     6     7    1
     7     7     8   ar
     8     8     9   ar
     9     9    10   ar
    10    10    11   ar
    11    11    12    1
    12    12    13    1
    13    13    14    2
    14    13    15    2
    15    13    16    1
    16    16    17   ar
    17    17    18   ar
    18    18    19   ar
    19    19    20   ar
    20    16    20   ar
    21    11    21   ar
    22     7    21   ar
    23     5    22   ar
    24    22    23   ar
    25     2    23   ar
    26    23    24    1
    27    24    25    1
    28    25    26    1
    29    26    27    1
    30    22    27    1
    31     3    28    1
    32     6    29    1
    33     6    30    1
    34    12    31    1
    35    24    32    1
    36    24    33    1
    37    25    34    1
    38    25    35    1
    39    26    36    1
    40    26    37    1
    41    27    38    1
    42    27    39    1
    43     8    40    1
    44     9    41    1
    45    10    42    1
    46    17    43    1
    47    18    44    1
    48    19    45    1
    49    21    46    1
@<TRIPOS>MOLECULE
mol86_1_17
 46 49 0 0 0
SMALL
USER_CHARGES
****
VDW energy = -55.66
@<TRIPOS>ATOM
   1 O1        6.9878     0.1985     2.5155  O.2     1  <O>11      -0.2661
   2 C1        5.8255    -0.2285     3.1857  C.ar    1  <O>11       0.2682
   3 N1        5.1910    -1.2820     2.6452  N.ar    1  <O>11      -0.2427
   4 N2        4.0648    -1.7438     3.2451  N.ar    1  <O>11      -0.1753
   5 C2        3.6029    -1.1357     4.3580  C.ar    1  <O>11       0.0693
   6 C3        2.3840    -1.7110     4.9590  C.3     1  <O>11       0.0168
   7 C4        2.1704    -3.0832     4.4280  C.ar    1  <O>11      -0.0397
   8 C5        1.9953    -3.2892     3.0482  C.ar    1  <O>11      -0.0581
   9 C6        1.7823    -4.5805     2.5509  C.ar    1  <O>11      -0.0597
  10 C7        1.7466    -5.6730     3.4214  C.ar    1  <O>11      -0.0393
  11 C8        1.9283    -5.4671     4.7933  C.ar    1  <O>11       0.0484
  12 N3        1.8914    -6.5968     5.6858  N.pl3   1  <O>11      -0.2135
  13 S1        0.4868    -7.4442     5.8894  S.O2    1  <O>11       0.1056
  14 O2        0.0015    -8.0676     4.4290  O.2     1  <O>11      -0.1470
  15 O3       -0.6907    -6.4304     6.4773  O.2     1  <O>11      -0.1470
  16 C9        0.7545    -8.7653     7.0381  C.ar    1  <O>11       0.2610
  17 C10       0.0853    -8.8769     8.1788  C.ar    1  <O>11       0.0041
  18 C11       0.6025   -10.0448     8.7854  C.ar    1  <O>11      -0.0219
  19 C12       1.5582   -10.5584     7.9262  C.ar    1  <O>11       0.0943
  20 O4        1.6542    -9.7426     6.8276  O.2     1  <O>11      -0.4449
  21 C13       2.1435    -4.1848     5.2991  C.ar    1  <O>11      -0.0358
  22 C14       4.2202    -0.0251     4.9315  C.ar    1  <O>11      -0.0158
  23 C15       5.4039     0.4308     4.3283  C.ar    1  <O>11       0.0232
  24 C16       6.1641     1.6216     4.8468  C.3     1  <O>11      -0.0222
  25 C17       5.7865     1.9954     6.2785  C.3     1  <O>11      -0.0486
  26 C18       4.2731     2.0252     6.4337  C.3     1  <O>11      -0.0487
  27 C19       3.6796     0.6416     6.1699  C.3     1  <O>11      -0.0255
  28 H1        5.5438    -1.7235     1.8081  H       1  <O>11       0.1921
  29 H2        1.5259    -1.0873     4.7082  H       1  <O>11       0.0377
  30 H3        2.4978    -1.7545     6.0423  H       1  <O>11       0.0377
  31 H4        2.7327    -6.8760     6.1922  H       1  <O>11       0.1738
  32 H5        7.2294     1.3927     4.8175  H       1  <O>11       0.0315
  33 H6        5.9571     2.4739     4.1996  H       1  <O>11       0.0315
  34 H7        6.2039     1.2585     6.9646  H       1  <O>11       0.0269
  35 H8        6.1914     2.9801     6.5118  H       1  <O>11       0.0269
  36 H9        4.0229     2.3350     7.4484  H       1  <O>11       0.0268
  37 H10       3.8538     2.7366     5.7222  H       1  <O>11       0.0268
  38 H11       3.8988     0.0045     7.0267  H       1  <O>11       0.0314
  39 H12       2.6001     0.7458     6.0607  H       1  <O>11       0.0314
  40 H13       2.0238    -2.4864     2.4004  H       1  <O>11       0.0620
  41 H14       1.6512    -4.7259     1.5377  H       1  <O>11       0.0618
  42 H15       1.5873    -6.6245     3.0551  H       1  <O>11       0.0636
  43 H16      -0.6495    -8.2502     8.5425  H       1  <O>11       0.0670
  44 H17       0.3207   -10.4395     9.6964  H       1  <O>11       0.0650
  45 H18       2.1093   -11.4162     8.0861  H       1  <O>11       0.1030
  46 H19       2.2828    -4.0458     6.3122  H       1  <O>11       0.0639
@<TRIPOS>BOND
     1     1     2    2
     2     2     3   ar
     3     3     4   ar
     4     4     5   ar
     5     5     6    1
     6     6     7    1
     7     7     8   ar
     8     8     9   ar
     9     9    10   ar
    10    10    11   ar
    11    11    12    1
    12    12    13    1
    13    13    14    2
    14    13    15    2
    15    13    16    1
    16    16    17   ar
    17    17    18   ar
    18    18    19   ar
    19    19    20   ar
    20    16    20   ar
    21    11    21   ar
    22     7    21   ar
    23     5    22   ar
    24    22    23   ar
    25     2    23   ar
    26    23    24    1
    27    24    25    1
    28    25    26    1
    29    26    27    1
    30    22    27    1
    31     3    28    1
    32     6    29    1
    33     6    30    1
    34    12    31    1
    35    24    32    1
    36    24    33    1
    37    25    34    1
    38    25    35    1
    39    26    36    1
    40    26    37    1
    41    27    38    1
    42    27    39    1
    43     8    40    1
    44     9    41    1
    45    10    42    1
    46    17    43    1
    47    18    44    1
    48    19    45    1
    49    21    46    1
@<TRIPOS>MOLECULE
mol86_1_18
 46 49 0 0 0
SMALL
USER_CHARGES
****
VDW energy = -51.20
@<TRIPOS>ATOM
   1 O1        6.9878     0.1985     2.5155  O.2     1  <O>11      -0.2661
   2 C1        5.8255    -0.2285     3.1857  C.ar    1  <O>11       0.2682
   3 N1        5.1910    -1.2820     2.6452  N.ar    1  <O>11      -0.2427
   4 N2        4.0648    -1.7438     3.2451  N.ar    1  <O>11      -0.1753
   5 C2        3.6029    -1.1357     4.3580  C.ar    1  <O>11       0.0693
   6 C3        2.3840    -1.7110     4.9590  C.3     1  <O>11       0.0168
   7 C4        2.1704    -3.0832     4.4280  C.ar    1  <O>11      -0.0397
   8 C5        1.9953    -3.2892     3.0482  C.ar    1  <O>11      -0.0581
   9 C6        1.7823    -4.5805     2.5509  C.ar    1  <O>11      -0.0597
  10 C7        1.7466    -5.6730     3.4214  C.ar    1  <O>11      -0.0393
  11 C8        1.9283    -5.4671     4.7933  C.ar    1  <O>11       0.0484
  12 N3        1.8914    -6.5968     5.6858  N.pl3   1  <O>11      -0.2135
  13 S1        2.1039    -6.3749     7.3100  S.O2    1  <O>11       0.1056
  14 O2        2.0099    -7.8407     8.0844  O.2     1  <O>11      -0.1470
  15 O3        0.9189    -5.3654     7.8902  O.2     1  <O>11      -0.1470
  16 C9        3.6925    -5.6498     7.6048  C.ar    1  <O>11       0.2610
  17 C10       3.8503    -4.4759     8.2037  C.ar    1  <O>11       0.0041
  18 C11       5.2493    -4.2723     8.2310  C.ar    1  <O>11      -0.0219
  19 C12       5.8316    -5.3800     7.6399  C.ar    1  <O>11       0.0943
  20 O4        4.8431    -6.2433     7.2408  O.2     1  <O>11      -0.4449
  21 C13       2.1435    -4.1848     5.2991  C.ar    1  <O>11      -0.0358
  22 C14       4.2202    -0.0251     4.9315  C.ar    1  <O>11      -0.0158
  23 C15       5.4039     0.4308     4.3283  C.ar    1  <O>11       0.0232
  24 C16       6.1641     1.6216     4.8468  C.3     1  <O>11      -0.0222
  25 C17       5.7865     1.9954     6.2785  C.3     1  <O>11      -0.0486
  26 C18       4.2731     2.0252     6.4337  C.3     1  <O>11      -0.0487
  27 C19       3.6796     0.6416     6.1699  C.3     1  <O>11      -0.0255
  28 H1        5.5438    -1.7235     1.8081  H       1  <O>11       0.1921
  29 H2        1.5259    -1.0873     4.7082  H       1  <O>11       0.0377
  30 H3        2.4978    -1.7545     6.0423  H       1  <O>11       0.0377
  31 H4        1.7325    -7.5352     5.3164  H       1  <O>11       0.1738
  32 H5        7.2294     1.3927     4.8175  H       1  <O>11       0.0315
  33 H6        5.9571     2.4739     4.1996  H       1  <O>11       0.0315
  34 H7        6.2039     1.2585     6.9646  H       1  <O>11       0.0269
  35 H8        6.1914     2.9801     6.5118  H       1  <O>11       0.0269
  36 H9        4.0229     2.3350     7.4484  H       1  <O>11       0.0268
  37 H10       3.8538     2.7366     5.7222  H       1  <O>11       0.0268
  38 H11       3.8988     0.0045     7.0267  H       1  <O>11       0.0314
  39 H12       2.6001     0.7458     6.0607  H       1  <O>11       0.0314
  40 H13       2.0238    -2.4864     2.4004  H       1  <O>11       0.0620
  41 H14       1.6512    -4.7259     1.5377  H       1  <O>11       0.0618
  42 H15       1.5873    -6.6245     3.0551  H       1  <O>11       0.0636
  43 H16       3.1150    -3.8504     8.5685  H       1  <O>11       0.0670
  44 H17       5.7429    -3.4528     8.6184  H       1  <O>11       0.0650
  45 H18       6.8452    -5.5319     7.5190  H       1  <O>11       0.1030
  46 H19       2.2828    -4.0458     6.3122  H       1  <O>11       0.0639
@<TRIPOS>BOND
     1     1     2    2
     2     2     3   ar
     3     3     4   ar
     4     4     5   ar
     5     5     6    1
     6     6     7    1
     7     7     8   ar
     8     8     9   ar
     9     9    10   ar
    10    10    11   ar
    11    11    12    1
    12    12    13    1
    13    13    14    2
    14    13    15    2
    15    13    16    1
    16    16    17   ar
    17    17    18   ar
    18    18    19   ar
    19    19    20   ar
    20    16    20   ar
    21    11    21   ar
    22     7    21   ar
    23     5    22   ar
    24    22    23   ar
    25     2    23   ar
    26    23    24    1
    27    24    25    1
    28    25    26    1
    29    26    27    1
    30    22    27    1
    31     3    28    1
    32     6    29    1
    33     6    30    1
    34    12    31    1
    35    24    32    1
    36    24    33    1
    37    25    34    1
    38    25    35    1
    39    26    36    1
    40    26    37    1
    41    27    38    1
    42    27    39    1
    43     8    40    1
    44     9    41    1
    45    10    42    1
    46    17    43    1
    47    18    44    1
    48    19    45    1
    49    21    46    1
@<TRIPOS>MOLECULE
mol86_1_19
 46 49 0 0 0
SMALL
USER_CHARGES
****
VDW energy = -51.09
@<TRIPOS>ATOM
   1 O1        6.9878     0.1985     2.5155  O.2     1  <O>11      -0.2661
   2 C1        5.8255    -0.2285     3.1857  C.ar    1  <O>11       0.2682
   3 N1        5.1910    -1.2820     2.6452  N.ar    1  <O>11      -0.2427
   4 N2        4.0648    -1.7438     3.2451  N.ar    1  <O>11      -0.1753
   5 C2        3.6029    -1.1357     4.3580  C.ar    1  <O>11       0.0693
   6 C3        2.3840    -1.7110     4.9590  C.3     1  <O>11       0.0168
   7 C4        2.1704    -3.0832     4.4280  C.ar    1  <O>11      -0.0397
   8 C5        1.4052    -3.2814     3.2653  C.ar    1  <O>11      -0.0581
   9 C6        1.1949    -4.5750     2.7731  C.ar    1  <O>11      -0.0597
  10 C7        1.7472    -5.6769     3.4313  C.ar    1  <O>11      -0.0393
  11 C8        2.5146    -5.4774     4.5842  C.ar    1  <O>11       0.0484
  12 N3        3.0821    -6.6166     5.2581  N.pl3   1  <O>11      -0.2135
  13 S1        3.9917    -6.4023     6.6216  S.O2    1  <O>11       0.1056
  14 O2        5.3063    -5.4528     6.2646  O.2     1  <O>11      -0.1470
  15 O3        4.5104    -7.8791     7.1784  O.2     1  <O>11      -0.1470
  16 C9        3.0119    -5.6134     7.8681  C.ar    1  <O>11       0.2610
  17 C10       2.7644    -6.1661     9.0491  C.ar    1  <O>11       0.0041
  18 C11       1.9556    -5.2230     9.7243  C.ar    1  <O>11      -0.0219
  19 C12       1.7912    -4.1458     8.8710  C.ar    1  <O>11       0.0943
  20 O4        2.4551    -4.4010     7.6981  O.2     1  <O>11      -0.4449
  21 C13       2.7322    -4.1923     5.0818  C.ar    1  <O>11      -0.0358
  22 C14       4.2202    -0.0251     4.9315  C.ar    1  <O>11      -0.0158
  23 C15       5.4039     0.4308     4.3283  C.ar    1  <O>11       0.0232
  24 C16       6.1641     1.6216     4.8468  C.3     1  <O>11      -0.0222
  25 C17       5.7865     1.9954     6.2785  C.3     1  <O>11      -0.0486
  26 C18       4.2731     2.0252     6.4337  C.3     1  <O>11      -0.0487
  27 C19       3.6796     0.6416     6.1699  C.3     1  <O>11      -0.0255
  28 H1        5.5438    -1.7235     1.8081  H       1  <O>11       0.1921
  29 H2        1.5259    -1.0873     4.7082  H       1  <O>11       0.0377
  30 H3        2.4978    -1.7545     6.0423  H       1  <O>11       0.0377
  31 H4        2.9219    -7.5574     4.8953  H       1  <O>11       0.1738
  32 H5        7.2294     1.3927     4.8175  H       1  <O>11       0.0315
  33 H6        5.9571     2.4739     4.1996  H       1  <O>11       0.0315
  34 H7        6.2039     1.2585     6.9646  H       1  <O>11       0.0269
  35 H8        6.1914     2.9801     6.5118  H       1  <O>11       0.0269
  36 H9        4.0229     2.3350     7.4484  H       1  <O>11       0.0268
  37 H10       3.8538     2.7366     5.7222  H       1  <O>11       0.0268
  38 H11       3.8988     0.0045     7.0267  H       1  <O>11       0.0314
  39 H12       2.6001     0.7458     6.0607  H       1  <O>11       0.0314
  40 H13       0.9975    -2.4710     2.7732  H       1  <O>11       0.0620
  41 H14       0.6298    -4.7153     1.9210  H       1  <O>11       0.0618
  42 H15       1.5903    -6.6307     3.0699  H       1  <O>11       0.0636
  43 H16       3.0901    -7.0813     9.3975  H       1  <O>11       0.0670
  44 H17       1.5623    -5.3196    10.6735  H       1  <O>11       0.0650
  45 H18       1.2557    -3.2894     9.0829  H       1  <O>11       0.1030
  46 H19       3.3053    -4.0567     5.9293  H       1  <O>11       0.0639
@<TRIPOS>BOND
     1     1     2    2
     2     2     3   ar
     3     3     4   ar
     4     4     5   ar
     5     5     6    1
     6     6     7    1
     7     7     8   ar
     8     8     9   ar
     9     9    10   ar
    10    10    11   ar
    11    11    12    1
    12    12    13    1
    13    13    14    2
    14    13    15    2
    15    13    16    1
    16    16    17   ar
    17    17    18   ar
    18    18    19   ar
    19    19    20   ar
    20    16    20   ar
    21    11    21   ar
    22     7    21   ar
    23     5    22   ar
    24    22    23   ar
    25     2    23   ar
    26    23    24    1
    27    24    25    1
    28    25    26    1
    29    26    27    1
    30    22    27    1
    31     3    28    1
    32     6    29    1
    33     6    30    1
    34    12    31    1
    35    24    32    1
    36    24    33    1
    37    25    34    1
    38    25    35    1
    39    26    36    1
    40    26    37    1
    41    27    38    1
    42    27    39    1
    43     8    40    1
    44     9    41    1
    45    10    42    1
    46    17    43    1
    47    18    44    1
    48    19    45    1
    49    21    46    1
@<TRIPOS>MOLECULE
mol86_1_20
 46 49 0 0 0
SMALL
USER_CHARGES
****
VDW energy = -49.90
@<TRIPOS>ATOM
   1 O1        6.9878     0.1985     2.5155  O.2     1  <O>11      -0.2661
   2 C1        5.8255    -0.2285     3.1857  C.ar    1  <O>11       0.2682
   3 N1        5.1910    -1.2820     2.6452  N.ar    1  <O>11      -0.2427
   4 N2        4.0648    -1.7438     3.2451  N.ar    1  <O>11      -0.1753
   5 C2        3.6029    -1.1357     4.3580  C.ar    1  <O>11       0.0693
   6 C3        2.3840    -1.7110     4.9590  C.3     1  <O>11       0.0168
   7 C4        2.1704    -3.0832     4.4280  C.ar    1  <O>11      -0.0397
   8 C5        3.1445    -4.0779     4.6242  C.ar    1  <O>11      -0.0581
   9 C6        2.9475    -5.3664     4.1132  C.ar    1  <O>11      -0.0597
  10 C7        1.7804    -5.6734     3.4090  C.ar    1  <O>11      -0.0393
  11 C8        0.8087    -4.6844     3.2210  C.ar    1  <O>11       0.0484
  12 N3       -0.3927    -5.0066     2.4950  N.pl3   1  <O>11      -0.2135
  13 S1       -1.5528    -3.8524     2.2620  S.O2    1  <O>11       0.1056
  14 O2       -2.1056    -3.3202     3.7345  O.2     1  <O>11      -0.1470
  15 O3       -2.8147    -4.5026     1.3991  O.2     1  <O>11      -0.1470
  16 C9       -0.8618    -2.4927     1.3619  C.ar    1  <O>11       0.2610
  17 C10      -1.3244    -2.0984     0.1820  C.ar    1  <O>11       0.0041
  18 C11      -0.5003    -1.0080    -0.1803  C.ar    1  <O>11      -0.0219
  19 C12       0.4067    -0.8261     0.8491  C.ar    1  <O>11       0.0943
  20 O4        0.1775    -1.7707     1.8171  O.2     1  <O>11      -0.4449
  21 C13       0.9940    -3.3979     3.7279  C.ar    1  <O>11      -0.0358
  22 C14       4.2202    -0.0251     4.9315  C.ar    1  <O>11      -0.0158
  23 C15       5.4039     0.4308     4.3283  C.ar    1  <O>11       0.0232
  24 C16       6.1641     1.6216     4.8468  C.3     1  <O>11      -0.0222
  25 C17       5.7865     1.9954     6.2785  C.3     1  <O>11      -0.0486
  26 C18       4.2731     2.0252     6.4337  C.3     1  <O>11      -0.0487
  27 C19       3.6796     0.6416     6.1699  C.3     1  <O>11      -0.0255
  28 H1        5.5438    -1.7235     1.8081  H       1  <O>11       0.1921
  29 H2        1.5259    -1.0873     4.7082  H       1  <O>11       0.0377
  30 H3        2.4978    -1.7545     6.0423  H       1  <O>11       0.0377
  31 H4       -0.5282    -5.9475     2.1226  H       1  <O>11       0.1738
  32 H5        7.2294     1.3927     4.8175  H       1  <O>11       0.0315
  33 H6        5.9571     2.4739     4.1996  H       1  <O>11       0.0315
  34 H7        6.2039     1.2585     6.9646  H       1  <O>11       0.0269
  35 H8        6.1914     2.9801     6.5118  H       1  <O>11       0.0269
  36 H9        4.0229     2.3350     7.4484  H       1  <O>11       0.0268
  37 H10       3.8538     2.7366     5.7222  H       1  <O>11       0.0268
  38 H11       3.8988     0.0045     7.0267  H       1  <O>11       0.0314
  39 H12       2.6001     0.7458     6.0607  H       1  <O>11       0.0314
  40 H13       4.0071    -3.8577     5.1462  H       1  <O>11       0.0620
  41 H14       3.6670    -6.0921     4.2573  H       1  <O>11       0.0618
  42 H15       1.6361    -6.6226     3.0304  H       1  <O>11       0.0636
  43 H16      -2.1112    -2.4988    -0.3524  H       1  <O>11       0.0670
  44 H17      -0.5632    -0.4529    -1.0480  H       1  <O>11       0.0650
  45 H18       1.1371    -0.0978     0.8830  H       1  <O>11       0.1030
  46 H19       0.2675    -2.6782     3.5886  H       1  <O>11       0.0639
@<TRIPOS>BOND
     1     1     2    2
     2     2     3   ar
     3     3     4   ar
     4     4     5   ar
     5     5     6    1
     6     6     7    1
     7     7     8   ar
     8     8     9   ar
     9     9    10   ar
    10    10    11   ar
    11    11    12    1
    12    12    13    1
    13    13    14    2
    14    13    15    2
    15    13    16    1
    16    16    17   ar
    17    17    18   ar
    18    18    19   ar
    19    19    20   ar
    20    16    20   ar
    21    11    21   ar
    22     7    21   ar
    23     5    22   ar
    24    22    23   ar
    25     2    23   ar
    26    23    24    1
    27    24    25    1
    28    25    26    1
    29    26    27    1
    30    22    27    1
    31     3    28    1
    32     6    29    1
    33     6    30    1
    34    12    31    1
    35    24    32    1
    36    24    33    1
    37    25    34    1
    38    25    35    1
    39    26    36    1
    40    26    37    1
    41    27    38    1
    42    27    39    1
    43     8    40    1
    44     9    41    1
    45    10    42    1
    46    17    43    1
    47    18    44    1
    48    19    45    1
    49    21    46    1
@<TRIPOS>MOLECULE
mol86_1_21
 46 49 0 0 0
SMALL
USER_CHARGES
****
VDW energy = -49.41
@<TRIPOS>ATOM
   1 O1        6.9878     0.1985     2.5155  O.2     1  <O>11      -0.2661
   2 C1        5.8255    -0.2285     3.1857  C.ar    1  <O>11       0.2682
   3 N1        5.1910    -1.2820     2.6452  N.ar    1  <O>11      -0.2427
   4 N2        4.0648    -1.7438     3.2451  N.ar    1  <O>11      -0.1753
   5 C2        3.6029    -1.1357     4.3580  C.ar    1  <O>11       0.0693
   6 C3        2.3840    -1.7110     4.9590  C.3     1  <O>11       0.0168
   7 C4        2.1704    -3.0832     4.4280  C.ar    1  <O>11      -0.0397
   8 C5        1.9953    -3.2892     3.0482  C.ar    1  <O>11      -0.0581
   9 C6        1.7823    -4.5805     2.5509  C.ar    1  <O>11      -0.0597
  10 C7        1.7466    -5.6730     3.4214  C.ar    1  <O>11      -0.0393
  11 C8        1.9283    -5.4671     4.7933  C.ar    1  <O>11       0.0484
  12 N3        1.8914    -6.5968     5.6858  N.pl3   1  <O>11      -0.2135
  13 S1        0.4868    -7.4442     5.8894  S.O2    1  <O>11       0.1056
  14 O2       -0.6891    -6.4305     6.4782  O.2     1  <O>11      -0.1470
  15 O3        0.7395    -8.6834     6.9667  O.2     1  <O>11      -0.1470
  16 C9       -0.0316    -8.1123     4.3334  C.ar    1  <O>11       0.2610
  17 C10      -0.1791    -9.4139     4.1197  C.ar    1  <O>11       0.0041
  18 C11      -0.5912    -9.5116     2.7706  C.ar    1  <O>11      -0.0219
  19 C12      -0.6709    -8.2212     2.2769  C.ar    1  <O>11       0.0943
  20 O4       -0.3102    -7.3424     3.2665  O.2     1  <O>11      -0.4449
  21 C13       2.1435    -4.1848     5.2991  C.ar    1  <O>11      -0.0358
  22 C14       4.2202    -0.0251     4.9315  C.ar    1  <O>11      -0.0158
  23 C15       5.4039     0.4308     4.3283  C.ar    1  <O>11       0.0232
  24 C16       6.1641     1.6216     4.8468  C.3     1  <O>11      -0.0222
  25 C17       5.7865     1.9954     6.2785  C.3     1  <O>11      -0.0486
  26 C18       4.2731     2.0252     6.4337  C.3     1  <O>11      -0.0487
  27 C19       3.6796     0.6416     6.1699  C.3     1  <O>11      -0.0255
  28 H1        5.5438    -1.7235     1.8081  H       1  <O>11       0.1921
  29 H2        1.5259    -1.0873     4.7082  H       1  <O>11       0.0377
  30 H3        2.4978    -1.7545     6.0423  H       1  <O>11       0.0377
  31 H4        2.7327    -6.8760     6.1922  H       1  <O>11       0.1738
  32 H5        7.2294     1.3927     4.8175  H       1  <O>11       0.0315
  33 H6        5.9571     2.4739     4.1996  H       1  <O>11       0.0315
  34 H7        6.2039     1.2585     6.9646  H       1  <O>11       0.0269
  35 H8        6.1914     2.9801     6.5118  H       1  <O>11       0.0269
  36 H9        4.0229     2.3350     7.4484  H       1  <O>11       0.0268
  37 H10       3.8538     2.7366     5.7222  H       1  <O>11       0.0268
  38 H11       3.8988     0.0045     7.0267  H       1  <O>11       0.0314
  39 H12       2.6001     0.7458     6.0607  H       1  <O>11       0.0314
  40 H13       2.0238    -2.4864     2.4004  H       1  <O>11       0.0620
  41 H14       1.6512    -4.7259     1.5377  H       1  <O>11       0.0618
  42 H15       1.5873    -6.6245     3.0551  H       1  <O>11       0.0636
  43 H16      -0.0268   -10.1839     4.7897  H       1  <O>11       0.0670
  44 H17      -0.7941   -10.3806     2.2522  H       1  <O>11       0.0650
  45 H18      -0.9557    -7.9620     1.3194  H       1  <O>11       0.1030
  46 H19       2.2828    -4.0458     6.3122  H       1  <O>11       0.0639
@<TRIPOS>BOND
     1     1     2    2
     2     2     3   ar
     3     3     4   ar
     4     4     5   ar
     5     5     6    1
     6     6     7    1
     7     7     8   ar
     8     8     9   ar
     9     9    10   ar
    10    10    11   ar
    11    11    12    1
    12    12    13    1
    13    13    14    2
    14    13    15    2
    15    13    16    1
    16    16    17   ar
    17    17    18   ar
    18    18    19   ar
    19    19    20   ar
    20    16    20   ar
    21    11    21   ar
    22     7    21   ar
    23     5    22   ar
    24    22    23   ar
    25     2    23   ar
    26    23    24    1
    27    24    25    1
    28    25    26    1
    29    26    27    1
    30    22    27    1
    31     3    28    1
    32     6    29    1
    33     6    30    1
    34    12    31    1
    35    24    32    1
    36    24    33    1
    37    25    34    1
    38    25    35    1
    39    26    36    1
    40    26    37    1
    41    27    38    1
    42    27    39    1
    43     8    40    1
    44     9    41    1
    45    10    42    1
    46    17    43    1
    47    18    44    1
    48    19    45    1
    49    21    46    1
@<TRIPOS>MOLECULE
mol86_1_22
 46 49 0 0 0
SMALL
USER_CHARGES
****
VDW energy = -44.02
@<TRIPOS>ATOM
   1 O1        6.9878     0.1985     2.5155  O.2     1  <O>11      -0.2661
   2 C1        5.8255    -0.2285     3.1857  C.ar    1  <O>11       0.2682
   3 N1        5.1910    -1.2820     2.6452  N.ar    1  <O>11      -0.2427
   4 N2        4.0648    -1.7438     3.2451  N.ar    1  <O>11      -0.1753
   5 C2        3.6029    -1.1357     4.3580  C.ar    1  <O>11       0.0693
   6 C3        2.3840    -1.7110     4.9590  C.3     1  <O>11       0.0168
   7 C4        2.1704    -3.0832     4.4280  C.ar    1  <O>11      -0.0397
   8 C5        1.9953    -3.2892     3.0482  C.ar    1  <O>11      -0.0581
   9 C6        1.7823    -4.5805     2.5509  C.ar    1  <O>11      -0.0597
  10 C7        1.7466    -5.6730     3.4214  C.ar    1  <O>11      -0.0393
  11 C8        1.9283    -5.4671     4.7933  C.ar    1  <O>11       0.0484
  12 N3        1.8914    -6.5968     5.6858  N.pl3   1  <O>11      -0.2135
  13 S1        2.1039    -6.3749     7.3100  S.O2    1  <O>11       0.1056
  14 O2        3.5946    -5.6971     7.5841  O.2     1  <O>11      -0.1470
  15 O3        2.0115    -7.8412     8.0855  O.2     1  <O>11      -0.1470
  16 C9        0.8409    -5.2994     7.9301  C.ar    1  <O>11       0.2610
  17 C10      -0.0195    -5.6645     8.8725  C.ar    1  <O>11       0.0041
  18 C11      -0.8440    -4.5317     9.0638  C.ar    1  <O>11      -0.0219
  19 C12      -0.3875    -3.5484     8.2035  C.ar    1  <O>11       0.0943
  20 O4        0.6725    -4.0413     7.4857  O.2     1  <O>11      -0.4449
  21 C13       2.1435    -4.1848     5.2991  C.ar    1  <O>11      -0.0358
  22 C14       4.2202    -0.0251     4.9315  C.ar    1  <O>11      -0.0158
  23 C15       5.4039     0.4308     4.3283  C.ar    1  <O>11       0.0232
  24 C16       6.1641     1.6216     4.8468  C.3     1  <O>11      -0.0222
  25 C17       5.7865     1.9954     6.2785  C.3     1  <O>11      -0.0486
  26 C18       4.2731     2.0252     6.4337  C.3     1  <O>11      -0.0487
  27 C19       3.6796     0.6416     6.1699  C.3     1  <O>11      -0.0255
  28 H1        5.5438    -1.7235     1.8081  H       1  <O>11       0.1921
  29 H2        1.5259    -1.0873     4.7082  H       1  <O>11       0.0377
  30 H3        2.4978    -1.7545     6.0423  H       1  <O>11       0.0377
  31 H4        1.7325    -7.5352     5.3164  H       1  <O>11       0.1738
  32 H5        7.2294     1.3927     4.8175  H       1  <O>11       0.0315
  33 H6        5.9571     2.4739     4.1996  H       1  <O>11       0.0315
  34 H7        6.2039     1.2585     6.9646  H       1  <O>11       0.0269
  35 H8        6.1914     2.9801     6.5118  H       1  <O>11       0.0269
  36 H9        4.0229     2.3350     7.4484  H       1  <O>11       0.0268
  37 H10       3.8538     2.7366     5.7222  H       1  <O>11       0.0268
  38 H11       3.8988     0.0045     7.0267  H       1  <O>11       0.0314
  39 H12       2.6001     0.7458     6.0607  H       1  <O>11       0.0314
  40 H13       2.0238    -2.4864     2.4004  H       1  <O>11       0.0620
  41 H14       1.6512    -4.7259     1.5377  H       1  <O>11       0.0618
  42 H15       1.5873    -6.6245     3.0551  H       1  <O>11       0.0636
  43 H16      -0.0746    -6.5734     9.3579  H       1  <O>11       0.0670
  44 H17      -1.6362    -4.4531     9.7206  H       1  <O>11       0.0650
  45 H18      -0.7808    -2.5983     8.1161  H       1  <O>11       0.1030
  46 H19       2.2828    -4.0458     6.3122  H       1  <O>11       0.0639
@<TRIPOS>BOND
     1     1     2    2
     2     2     3   ar
     3     3     4   ar
     4     4     5   ar
     5     5     6    1
     6     6     7    1
     7     7     8   ar
     8     8     9   ar
     9     9    10   ar
    10    10    11   ar
    11    11    12    1
    12    12    13    1
    13    13    14    2
    14    13    15    2
    15    13    16    1
    16    16    17   ar
    17    17    18   ar
    18    18    19   ar
    19    19    20   ar
    20    16    20   ar
    21    11    21   ar
    22     7    21   ar
    23     5    22   ar
    24    22    23   ar
    25     2    23   ar
    26    23    24    1
    27    24    25    1
    28    25    26    1
    29    26    27    1
    30    22    27    1
    31     3    28    1
    32     6    29    1
    33     6    30    1
    34    12    31    1
    35    24    32    1
    36    24    33    1
    37    25    34    1
    38    25    35    1
    39    26    36    1
    40    26    37    1
    41    27    38    1
    42    27    39    1
    43     8    40    1
    44     9    41    1
    45    10    42    1
    46    17    43    1
    47    18    44    1
    48    19    45    1
    49    21    46    1
@<TRIPOS>MOLECULE
mol86_1_23
 46 49 0 0 0
SMALL
USER_CHARGES
****
VDW energy = -42.52
@<TRIPOS>ATOM
   1 O1        6.9878     0.1985     2.5155  O.2     1  <O>11      -0.2661
   2 C1        5.8255    -0.2285     3.1857  C.ar    1  <O>11       0.2682
   3 N1        5.1910    -1.2820     2.6452  N.ar    1  <O>11      -0.2427
   4 N2        4.0648    -1.7438     3.2451  N.ar    1  <O>11      -0.1753
   5 C2        3.6029    -1.1357     4.3580  C.ar    1  <O>11       0.0693
   6 C3        2.3840    -1.7110     4.9590  C.3     1  <O>11       0.0168
   7 C4        1.1856    -1.0570     4.3702  C.ar    1  <O>11      -0.0397
   8 C5        1.0016     0.3310     4.4984  C.ar    1  <O>11      -0.0581
   9 C6       -0.1333     0.9437     3.9539  C.ar    1  <O>11      -0.0597
  10 C7       -1.0881     0.1811     3.2761  C.ar    1  <O>11      -0.0393
  11 C8       -0.8998    -1.1989     3.1431  C.ar    1  <O>11       0.0484
  12 N3       -1.8867    -1.9799     2.4429  N.pl3   1  <O>11      -0.2135
  13 S1       -3.4097    -2.1387     3.0656  S.O2    1  <O>11       0.1056
  14 O2       -4.3246    -3.0837     2.0523  O.2     1  <O>11      -0.1470
  15 O3       -4.1095    -0.6385     3.2052  O.2     1  <O>11      -0.1470
  16 C9       -3.3192    -2.8980     4.6630  C.ar    1  <O>11       0.2610
  17 C10      -4.2866    -3.6618     5.1551  C.ar    1  <O>11       0.0041
  18 C11      -3.8215    -4.0515     6.4323  C.ar    1  <O>11      -0.0219
  19 C12      -2.5712    -3.4821     6.5992  C.ar    1  <O>11       0.0943
  20 O4       -2.2623    -2.7497     5.4812  O.2     1  <O>11      -0.4449
  21 C13       0.2286    -1.8192     3.6800  C.ar    1  <O>11      -0.0358
  22 C14       4.2202    -0.0251     4.9315  C.ar    1  <O>11      -0.0158
  23 C15       5.4039     0.4308     4.3283  C.ar    1  <O>11       0.0232
  24 C16       6.1641     1.6216     4.8468  C.3     1  <O>11      -0.0222
  25 C17       5.7865     1.9954     6.2785  C.3     1  <O>11      -0.0486
  26 C18       4.2731     2.0252     6.4337  C.3     1  <O>11      -0.0487
  27 C19       3.6796     0.6416     6.1699  C.3     1  <O>11      -0.0255
  28 H1        5.5438    -1.7235     1.8081  H       1  <O>11       0.1921
  29 H2        2.3962    -1.5438     6.0361  H       1  <O>11       0.0377
  30 H3        2.3491    -2.7818     4.7574  H       1  <O>11       0.0377
  31 H4       -1.6470    -2.4348     1.5609  H       1  <O>11       0.1738
  32 H5        7.2294     1.3927     4.8175  H       1  <O>11       0.0315
  33 H6        5.9571     2.4739     4.1996  H       1  <O>11       0.0315
  34 H7        6.2039     1.2585     6.9646  H       1  <O>11       0.0269
  35 H8        6.1914     2.9801     6.5118  H       1  <O>11       0.0269
  36 H9        4.0229     2.3350     7.4484  H       1  <O>11       0.0268
  37 H10       3.8538     2.7366     5.7222  H       1  <O>11       0.0268
  38 H11       3.8988     0.0045     7.0267  H       1  <O>11       0.0314
  39 H12       2.6001     0.7458     6.0607  H       1  <O>11       0.0314
  40 H13       1.7051     0.8996     4.9952  H       1  <O>11       0.0620
  41 H14      -0.2652     1.9624     4.0534  H       1  <O>11       0.0618
  42 H15      -1.9258     0.6324     2.8766  H       1  <O>11       0.0636
  43 H16      -5.1802    -3.9151     4.7053  H       1  <O>11       0.0670
  44 H17      -4.3200    -4.6477     7.1114  H       1  <O>11       0.0650
  45 H18      -1.9688    -3.5910     7.4301  H       1  <O>11       0.1030
  46 H19       0.3601    -2.8369     3.5701  H       1  <O>11       0.0639
@<TRIPOS>BOND
     1     1     2    2
     2     2     3   ar
     3     3     4   ar
     4     4     5   ar
     5     5     6    1
     6     6     7    1
     7     7     8   ar
     8     8     9   ar
     9     9    10   ar
    10    10    11   ar
    11    11    12    1
    12    12    13    1
    13    13    14    2
    14    13    15    2
    15    13    16    1
    16    16    17   ar
    17    17    18   ar
    18    18    19   ar
    19    19    20   ar
    20    16    20   ar
    21    11    21   ar
    22     7    21   ar
    23     5    22   ar
    24    22    23   ar
    25     2    23   ar
    26    23    24    1
    27    24    25    1
    28    25    26    1
    29    26    27    1
    30    22    27    1
    31     3    28    1
    32     6    29    1
    33     6    30    1
    34    12    31    1
    35    24    32    1
    36    24    33    1
    37    25    34    1
    38    25    35    1
    39    26    36    1
    40    26    37    1
    41    27    38    1
    42    27    39    1
    43     8    40    1
    44     9    41    1
    45    10    42    1
    46    17    43    1
    47    18    44    1
    48    19    45    1
    49    21    46    1
@<TRIPOS>MOLECULE
mol86_1_24
 46 49 0 0 0
SMALL
USER_CHARGES
****
VDW energy = -40.30
@<TRIPOS>ATOM
   1 O1        6.9878     0.1985     2.5155  O.2     1  <O>11      -0.2661
   2 C1        5.8255    -0.2285     3.1857  C.ar    1  <O>11       0.2682
   3 N1        5.1910    -1.2820     2.6452  N.ar    1  <O>11      -0.2427
   4 N2        4.0648    -1.7438     3.2451  N.ar    1  <O>11      -0.1753
   5 C2        3.6029    -1.1357     4.3580  C.ar    1  <O>11       0.0693
   6 C3        2.3840    -1.7110     4.9590  C.3     1  <O>11       0.0168
   7 C4        1.1856    -1.0570     4.3702  C.ar    1  <O>11      -0.0397
   8 C5        1.0016     0.3310     4.4984  C.ar    1  <O>11      -0.0581
   9 C6       -0.1333     0.9437     3.9539  C.ar    1  <O>11      -0.0597
  10 C7       -1.0881     0.1811     3.2761  C.ar    1  <O>11      -0.0393
  11 C8       -0.8998    -1.1989     3.1431  C.ar    1  <O>11       0.0484
  12 N3       -1.8867    -1.9799     2.4429  N.pl3   1  <O>11      -0.2135
  13 S1       -3.4097    -2.1387     3.0656  S.O2    1  <O>11       0.1056
  14 O2       -4.1077    -0.6387     3.2063  O.2     1  <O>11      -0.1470
  15 O3       -3.3234    -2.8519     4.5635  O.2     1  <O>11      -0.1470
  16 C9       -4.3870    -3.1482     1.9875  C.ar    1  <O>11       0.2610
  17 C10      -4.9416    -4.2904     2.3739  C.ar    1  <O>11       0.0041
  18 C11      -5.6151    -4.7685     1.2261  C.ar    1  <O>11      -0.0219
  19 C12      -5.4124    -3.8391     0.2209  C.ar    1  <O>11       0.0943
  20 O4       -4.6309    -2.8214     0.7059  O.2     1  <O>11      -0.4449
  21 C13       0.2286    -1.8192     3.6800  C.ar    1  <O>11      -0.0358
  22 C14       4.2202    -0.0251     4.9315  C.ar    1  <O>11      -0.0158
  23 C15       5.4039     0.4308     4.3283  C.ar    1  <O>11       0.0232
  24 C16       6.1641     1.6216     4.8468  C.3     1  <O>11      -0.0222
  25 C17       5.7865     1.9954     6.2785  C.3     1  <O>11      -0.0486
  26 C18       4.2731     2.0252     6.4337  C.3     1  <O>11      -0.0487
  27 C19       3.6796     0.6416     6.1699  C.3     1  <O>11      -0.0255
  28 H1        5.5438    -1.7235     1.8081  H       1  <O>11       0.1921
  29 H2        2.3962    -1.5438     6.0361  H       1  <O>11       0.0377
  30 H3        2.3491    -2.7818     4.7574  H       1  <O>11       0.0377
  31 H4       -1.6470    -2.4348     1.5609  H       1  <O>11       0.1738
  32 H5        7.2294     1.3927     4.8175  H       1  <O>11       0.0315
  33 H6        5.9571     2.4739     4.1996  H       1  <O>11       0.0315
  34 H7        6.2039     1.2585     6.9646  H       1  <O>11       0.0269
  35 H8        6.1914     2.9801     6.5118  H       1  <O>11       0.0269
  36 H9        4.0229     2.3350     7.4484  H       1  <O>11       0.0268
  37 H10       3.8538     2.7366     5.7222  H       1  <O>11       0.0268
  38 H11       3.8988     0.0045     7.0267  H       1  <O>11       0.0314
  39 H12       2.6001     0.7458     6.0607  H       1  <O>11       0.0314
  40 H13       1.7051     0.8996     4.9952  H       1  <O>11       0.0620
  41 H14      -0.2652     1.9624     4.0534  H       1  <O>11       0.0618
  42 H15      -1.9258     0.6324     2.8766  H       1  <O>11       0.0636
  43 H16      -4.8923    -4.7317     3.3054  H       1  <O>11       0.0670
  44 H17      -6.1553    -5.6447     1.1520  H       1  <O>11       0.0650
  45 H18      -5.7884    -3.9015    -0.7381  H       1  <O>11       0.1030
  46 H19       0.3601    -2.8369     3.5701  H       1  <O>11       0.0639
@<TRIPOS>BOND
     1     1     2    2
     2     2     3   ar
     3     3     4   ar
     4     4     5   ar
     5     5     6    1
     6     6     7    1
     7     7     8   ar
     8     8     9   ar
     9     9    10   ar
    10    10    11   ar
    11    11    12    1
    12    12    13    1
    13    13    14    2
    14    13    15    2
    15    13    16    1
    16    16    17   ar
    17    17    18   ar
    18    18    19   ar
    19    19    20   ar
    20    16    20   ar
    21    11    21   ar
    22     7    21   ar
    23     5    22   ar
    24    22    23   ar
    25     2    23   ar
    26    23    24    1
    27    24    25    1
    28    25    26    1
    29    26    27    1
    30    22    27    1
    31     3    28    1
    32     6    29    1
    33     6    30    1
    34    12    31    1
    35    24    32    1
    36    24    33    1
    37    25    34    1
    38    25    35    1
    39    26    36    1
    40    26    37    1
    41    27    38    1
    42    27    39    1
    43     8    40    1
    44     9    41    1
    45    10    42    1
    46    17    43    1
    47    18    44    1
    48    19    45    1
    49    21    46    1
@<TRIPOS>MOLECULE
mol86_1_25
 46 49 0 0 0
SMALL
USER_CHARGES
****
VDW energy = -37.37
@<TRIPOS>ATOM
   1 O1        6.9878     0.1985     2.5155  O.2     1  <O>11      -0.2661
   2 C1        5.8255    -0.2285     3.1857  C.ar    1  <O>11       0.2682
   3 N1        5.1910    -1.2820     2.6452  N.ar    1  <O>11      -0.2427
   4 N2        4.0648    -1.7438     3.2451  N.ar    1  <O>11      -0.1753
   5 C2        3.6029    -1.1357     4.3580  C.ar    1  <O>11       0.0693
   6 C3        2.3840    -1.7110     4.9590  C.3     1  <O>11       0.0168
   7 C4        1.1856    -1.0570     4.3702  C.ar    1  <O>11      -0.0397
   8 C5        0.9464    -1.1312     2.9867  C.ar    1  <O>11      -0.0581
   9 C6       -0.1760    -0.5048     2.4320  C.ar    1  <O>11      -0.0597
  10 C7       -1.0678     0.1944     3.2495  C.ar    1  <O>11      -0.0393
  11 C8       -0.8322     0.2611     4.6271  C.ar    1  <O>11       0.0484
  12 N3       -1.7550     0.9825     5.4651  N.pl3   1  <O>11      -0.2135
  13 S1       -1.9124     2.6200     5.3035  S.O2    1  <O>11       0.1056
  14 O2       -3.0392     3.1760     6.3889  O.2     1  <O>11      -0.1470
  15 O3       -2.4077     2.9785     3.7588  O.2     1  <O>11      -0.1470
  16 C9       -0.3527     3.3978     5.6179  C.ar    1  <O>11       0.2610
  17 C10      -0.2444     4.6192     6.1257  C.ar    1  <O>11       0.0041
  18 C11       1.1480     4.8519     6.2069  C.ar    1  <O>11      -0.0219
  19 C12       1.7772     3.7116     5.7389  C.ar    1  <O>11       0.0943
  20 O4        0.8244     2.7994     5.3624  O.2     1  <O>11      -0.4449
  21 C13       0.2820    -0.3614     5.1904  C.ar    1  <O>11      -0.0358
  22 C14       4.2202    -0.0251     4.9315  C.ar    1  <O>11      -0.0158
  23 C15       5.4039     0.4308     4.3283  C.ar    1  <O>11       0.0232
  24 C16       6.1641     1.6216     4.8468  C.3     1  <O>11      -0.0222
  25 C17       5.7865     1.9954     6.2785  C.3     1  <O>11      -0.0486
  26 C18       4.2731     2.0252     6.4337  C.3     1  <O>11      -0.0487
  27 C19       3.6796     0.6416     6.1699  C.3     1  <O>11      -0.0255
  28 H1        5.5438    -1.7235     1.8081  H       1  <O>11       0.1921
  29 H2        2.3962    -1.5438     6.0361  H       1  <O>11       0.0377
  30 H3        2.3491    -2.7818     4.7574  H       1  <O>11       0.0377
  31 H4       -2.3136     0.4830     6.1585  H       1  <O>11       0.1738
  32 H5        7.2294     1.3927     4.8175  H       1  <O>11       0.0315
  33 H6        5.9571     2.4739     4.1996  H       1  <O>11       0.0315
  34 H7        6.2039     1.2585     6.9646  H       1  <O>11       0.0269
  35 H8        6.1914     2.9801     6.5118  H       1  <O>11       0.0269
  36 H9        4.0229     2.3350     7.4484  H       1  <O>11       0.0268
  37 H10       3.8538     2.7366     5.7222  H       1  <O>11       0.0268
  38 H11       3.8988     0.0045     7.0267  H       1  <O>11       0.0314
  39 H12       2.6001     0.7458     6.0607  H       1  <O>11       0.0314
  40 H13       1.5999    -1.6489     2.3785  H       1  <O>11       0.0620
  41 H14      -0.3454    -0.5597     1.4154  H       1  <O>11       0.0618
  42 H15      -1.8940     0.6581     2.8403  H       1  <O>11       0.0636
  43 H16      -1.0073     5.2576     6.4003  H       1  <O>11       0.0670
  44 H17       1.6079     5.7096     6.5503  H       1  <O>11       0.0650
  45 H18       2.7980     3.5704     5.6823  H       1  <O>11       0.1030
  46 H19       0.4421    -0.3110     6.2087  H       1  <O>11       0.0639
@<TRIPOS>BOND
     1     1     2    2
     2     2     3   ar
     3     3     4   ar
     4     4     5   ar
     5     5     6    1
     6     6     7    1
     7     7     8   ar
     8     8     9   ar
     9     9    10   ar
    10    10    11   ar
    11    11    12    1
    12    12    13    1
    13    13    14    2
    14    13    15    2
    15    13    16    1
    16    16    17   ar
    17    17    18   ar
    18    18    19   ar
    19    19    20   ar
    20    16    20   ar
    21    11    21   ar
    22     7    21   ar
    23     5    22   ar
    24    22    23   ar
    25     2    23   ar
    26    23    24    1
    27    24    25    1
    28    25    26    1
    29    26    27    1
    30    22    27    1
    31     3    28    1
    32     6    29    1
    33     6    30    1
    34    12    31    1
    35    24    32    1
    36    24    33    1
    37    25    34    1
    38    25    35    1
    39    26    36    1
    40    26    37    1
    41    27    38    1
    42    27    39    1
    43     8    40    1
    44     9    41    1
    45    10    42    1
    46    17    43    1
    47    18    44    1
    48    19    45    1
    49    21    46    1
@<TRIPOS>MOLECULE
mol86_1_26
 46 49 0 0 0
SMALL
USER_CHARGES
****
VDW energy = -33.65
@<TRIPOS>ATOM
   1 O1        6.9878     0.1985     2.5155  O.2     1  <O>11      -0.2661
   2 C1        5.8255    -0.2285     3.1857  C.ar    1  <O>11       0.2682
   3 N1        5.1910    -1.2820     2.6452  N.ar    1  <O>11      -0.2427
   4 N2        4.0648    -1.7438     3.2451  N.ar    1  <O>11      -0.1753
   5 C2        3.6029    -1.1357     4.3580  C.ar    1  <O>11       0.0693
   6 C3        2.3840    -1.7110     4.9590  C.3     1  <O>11       0.0168
   7 C4        2.7646    -2.7510     5.9510  C.ar    1  <O>11      -0.0397
   8 C5        3.5051    -3.8763     5.5484  C.ar    1  <O>11      -0.0581
   9 C6        3.8525    -4.8607     6.4813  C.ar    1  <O>11      -0.0597
  10 C7        3.4695    -4.7296     7.8187  C.ar    1  <O>11      -0.0393
  11 C8        2.7389    -3.6055     8.2190  C.ar    1  <O>11       0.0484
  12 N3        2.3474    -3.4751     9.5989  N.pl3   1  <O>11      -0.2135
  13 S1        3.4975    -3.2785    10.7698  S.O2    1  <O>11       0.1056
  14 O2        2.7603    -3.1544    12.2524  O.2     1  <O>11      -0.1470
  15 O3        4.3656    -1.8950    10.4658  O.2     1  <O>11      -0.1470
  16 C9        4.5897    -4.6726    10.7659  C.ar    1  <O>11       0.2610
  17 C10       5.2067    -5.1094    11.8568  C.ar    1  <O>11       0.0041
  18 C11       5.9716    -6.2147    11.4180  C.ar    1  <O>11      -0.0219
  19 C12       5.7324    -6.3606    10.0627  C.ar    1  <O>11       0.0943
  20 O4        4.8640    -5.3799     9.6554  O.2     1  <O>11      -0.4449
  21 C13       2.3894    -2.6176     7.2981  C.ar    1  <O>11      -0.0358
  22 C14       4.2202    -0.0251     4.9315  C.ar    1  <O>11      -0.0158
  23 C15       5.4039     0.4308     4.3283  C.ar    1  <O>11       0.0232
  24 C16       6.1641     1.6216     4.8468  C.3     1  <O>11      -0.0222
  25 C17       5.7865     1.9954     6.2785  C.3     1  <O>11      -0.0486
  26 C18       4.2731     2.0252     6.4337  C.3     1  <O>11      -0.0487
  27 C19       3.6796     0.6416     6.1699  C.3     1  <O>11      -0.0255
  28 H1        5.5438    -1.7235     1.8081  H       1  <O>11       0.1921
  29 H2        1.7715    -2.1615     4.1779  H       1  <O>11       0.0377
  30 H3        1.8173    -0.9241     5.4572  H       1  <O>11       0.0377
  31 H4        1.3594    -3.5025     9.8548  H       1  <O>11       0.1738
  32 H5        7.2294     1.3927     4.8175  H       1  <O>11       0.0315
  33 H6        5.9571     2.4739     4.1996  H       1  <O>11       0.0315
  34 H7        6.2039     1.2585     6.9646  H       1  <O>11       0.0269
  35 H8        6.1914     2.9801     6.5118  H       1  <O>11       0.0269
  36 H9        4.0229     2.3350     7.4484  H       1  <O>11       0.0268
  37 H10       3.8538     2.7366     5.7222  H       1  <O>11       0.0268
  38 H11       3.8988     0.0045     7.0267  H       1  <O>11       0.0314
  39 H12       2.6001     0.7458     6.0607  H       1  <O>11       0.0314
  40 H13       3.7934    -3.9769     4.5626  H       1  <O>11       0.0620
  41 H14       4.3935    -5.6864     6.1800  H       1  <O>11       0.0618
  42 H15       3.7236    -5.4563     8.5059  H       1  <O>11       0.0636
  43 H16       5.1425    -4.7270    12.8131  H       1  <O>11       0.0670
  44 H17       6.5910    -6.8016    11.9985  H       1  <O>11       0.0650
  45 H18       6.1412    -7.0891     9.4567  H       1  <O>11       0.1030
  46 H19       1.8559    -1.7896     7.6062  H       1  <O>11       0.0639
@<TRIPOS>BOND
     1     1     2    2
     2     2     3   ar
     3     3     4   ar
     4     4     5   ar
     5     5     6    1
     6     6     7    1
     7     7     8   ar
     8     8     9   ar
     9     9    10   ar
    10    10    11   ar
    11    11    12    1
    12    12    13    1
    13    13    14    2
    14    13    15    2
    15    13    16    1
    16    16    17   ar
    17    17    18   ar
    18    18    19   ar
    19    19    20   ar
    20    16    20   ar
    21    11    21   ar
    22     7    21   ar
    23     5    22   ar
    24    22    23   ar
    25     2    23   ar
    26    23    24    1
    27    24    25    1
    28    25    26    1
    29    26    27    1
    30    22    27    1
    31     3    28    1
    32     6    29    1
    33     6    30    1
    34    12    31    1
    35    24    32    1
    36    24    33    1
    37    25    34    1
    38    25    35    1
    39    26    36    1
    40    26    37    1
    41    27    38    1
    42    27    39    1
    43     8    40    1
    44     9    41    1
    45    10    42    1
    46    17    43    1
    47    18    44    1
    48    19    45    1
    49    21    46    1
@<TRIPOS>MOLECULE
mol86_1_27
 46 49 0 0 0
SMALL
USER_CHARGES
****
VDW energy = -32.24
@<TRIPOS>ATOM
   1 O1        6.9878     0.1985     2.5155  O.2     1  <O>11      -0.2661
   2 C1        5.8255    -0.2285     3.1857  C.ar    1  <O>11       0.2682
   3 N1        5.1910    -1.2820     2.6452  N.ar    1  <O>11      -0.2427
   4 N2        4.0648    -1.7438     3.2451  N.ar    1  <O>11      -0.1753
   5 C2        3.6029    -1.1357     4.3580  C.ar    1  <O>11       0.0693
   6 C3        2.3840    -1.7110     4.9590  C.3     1  <O>11       0.0168
   7 C4        2.6772    -2.1503     6.3488  C.ar    1  <O>11      -0.0397
   8 C5        2.5025    -1.2615     7.4241  C.ar    1  <O>11      -0.0581
   9 C6        2.7904    -1.6727     8.7310  C.ar    1  <O>11      -0.0597
  10 C7        3.2491    -2.9697     8.9758  C.ar    1  <O>11      -0.0393
  11 C8        3.4155    -3.8552     7.9054  C.ar    1  <O>11       0.0484
  12 N3        3.8878    -5.1911     8.1636  N.pl3   1  <O>11      -0.2135
  13 S1        5.4186    -5.4301     8.7398  S.O2    1  <O>11       0.1056
  14 O2        5.6842    -7.0565     8.9432  O.2     1  <O>11      -0.1470
  15 O3        5.5876    -4.6549    10.1994  O.2     1  <O>11      -0.1470
  16 C9        6.5932    -4.7775     7.5862  C.ar    1  <O>11       0.2610
  17 C10       7.8131    -5.2784     7.4368  C.ar    1  <O>11       0.0041
  18 C11       8.4114    -4.4745     6.4391  C.ar    1  <O>11      -0.0219
  19 C12       7.4676    -3.5387     6.0532  C.ar    1  <O>11       0.0943
  20 O4        6.3238    -3.7310     6.7856  O.2     1  <O>11      -0.4449
  21 C13       3.1293    -3.4564     6.5995  C.ar    1  <O>11      -0.0358
  22 C14       4.2202    -0.0251     4.9315  C.ar    1  <O>11      -0.0158
  23 C15       5.4039     0.4308     4.3283  C.ar    1  <O>11       0.0232
  24 C16       6.1641     1.6216     4.8468  C.3     1  <O>11      -0.0222
  25 C17       5.7865     1.9954     6.2785  C.3     1  <O>11      -0.0486
  26 C18       4.2731     2.0252     6.4337  C.3     1  <O>11      -0.0487
  27 C19       3.6796     0.6416     6.1699  C.3     1  <O>11      -0.0255
  28 H1        5.5438    -1.7235     1.8081  H       1  <O>11       0.1921
  29 H2        2.0574    -2.5674     4.3691  H       1  <O>11       0.0377
  30 H3        1.5956    -0.9582     4.9749  H       1  <O>11       0.0377
  31 H4        3.2772    -5.9913     7.9924  H       1  <O>11       0.1738
  32 H5        7.2294     1.3927     4.8175  H       1  <O>11       0.0315
  33 H6        5.9571     2.4739     4.1996  H       1  <O>11       0.0315
  34 H7        6.2039     1.2585     6.9646  H       1  <O>11       0.0269
  35 H8        6.1914     2.9801     6.5118  H       1  <O>11       0.0269
  36 H9        4.0229     2.3350     7.4484  H       1  <O>11       0.0268
  37 H10       3.8538     2.7366     5.7222  H       1  <O>11       0.0268
  38 H11       3.8988     0.0045     7.0267  H       1  <O>11       0.0314
  39 H12       2.6001     0.7458     6.0607  H       1  <O>11       0.0314
  40 H13       2.1609    -0.3034     7.2495  H       1  <O>11       0.0620
  41 H14       2.6634    -1.0155     9.5165  H       1  <O>11       0.0618
  42 H15       3.4635    -3.2722     9.9389  H       1  <O>11       0.0636
  43 H16       8.2322    -6.0775     7.9377  H       1  <O>11       0.0670
  44 H17       9.3702    -4.5679     6.0689  H       1  <O>11       0.0650
  45 H18       7.6025    -2.8136     5.3313  H       1  <O>11       0.1030
  46 H19       3.2497    -4.1203     5.8185  H       1  <O>11       0.0639
@<TRIPOS>BOND
     1     1     2    2
     2     2     3   ar
     3     3     4   ar
     4     4     5   ar
     5     5     6    1
     6     6     7    1
     7     7     8   ar
     8     8     9   ar
     9     9    10   ar
    10    10    11   ar
    11    11    12    1
    12    12    13    1
    13    13    14    2
    14    13    15    2
    15    13    16    1
    16    16    17   ar
    17    17    18   ar
    18    18    19   ar
    19    19    20   ar
    20    16    20   ar
    21    11    21   ar
    22     7    21   ar
    23     5    22   ar
    24    22    23   ar
    25     2    23   ar
    26    23    24    1
    27    24    25    1
    28    25    26    1
    29    26    27    1
    30    22    27    1
    31     3    28    1
    32     6    29    1
    33     6    30    1
    34    12    31    1
    35    24    32    1
    36    24    33    1
    37    25    34    1
    38    25    35    1
    39    26    36    1
    40    26    37    1
    41    27    38    1
    42    27    39    1
    43     8    40    1
    44     9    41    1
    45    10    42    1
    46    17    43    1
    47    18    44    1
    48    19    45    1
    49    21    46    1
@<TRIPOS>MOLECULE
mol86_1_28
 46 49 0 0 0
SMALL
USER_CHARGES
****
VDW energy = -32.02
@<TRIPOS>ATOM
   1 O1        6.9878     0.1985     2.5155  O.2     1  <O>11      -0.2661
   2 C1        5.8255    -0.2285     3.1857  C.ar    1  <O>11       0.2682
   3 N1        5.1910    -1.2820     2.6452  N.ar    1  <O>11      -0.2427
   4 N2        4.0648    -1.7438     3.2451  N.ar    1  <O>11      -0.1753
   5 C2        3.6029    -1.1357     4.3580  C.ar    1  <O>11       0.0693
   6 C3        2.3840    -1.7110     4.9590  C.3     1  <O>11       0.0168
   7 C4        2.1704    -3.0832     4.4280  C.ar    1  <O>11      -0.0397
   8 C5        1.4052    -3.2814     3.2653  C.ar    1  <O>11      -0.0581
   9 C6        1.1949    -4.5750     2.7731  C.ar    1  <O>11      -0.0597
  10 C7        1.7472    -5.6769     3.4313  C.ar    1  <O>11      -0.0393
  11 C8        2.5146    -5.4774     4.5842  C.ar    1  <O>11       0.0484
  12 N3        3.0821    -6.6166     5.2581  N.pl3   1  <O>11      -0.2135
  13 S1        4.2439    -7.5250     4.5115  S.O2    1  <O>11       0.1056
  14 O2        4.7102    -8.7604     5.5181  O.2     1  <O>11      -0.1470
  15 O3        5.5568    -6.5678     4.1651  O.2     1  <O>11      -0.1470
  16 C9        3.5927    -8.1988     3.0087  C.ar    1  <O>11       0.2610
  17 C10       3.9979    -9.3563     2.5013  C.ar    1  <O>11       0.0041
  18 C11       3.2421    -9.5129     1.3166  C.ar    1  <O>11      -0.0219
  19 C12       2.4130    -8.4094     1.2161  C.ar    1  <O>11       0.0943
  20 O4        2.6435    -7.5800     2.2842  O.2     1  <O>11      -0.4449
  21 C13       2.7322    -4.1923     5.0818  C.ar    1  <O>11      -0.0358
  22 C14       4.2202    -0.0251     4.9315  C.ar    1  <O>11      -0.0158
  23 C15       5.4039     0.4308     4.3283  C.ar    1  <O>11       0.0232
  24 C16       6.1641     1.6216     4.8468  C.3     1  <O>11      -0.0222
  25 C17       5.7865     1.9954     6.2785  C.3     1  <O>11      -0.0486
  26 C18       4.2731     2.0252     6.4337  C.3     1  <O>11      -0.0487
  27 C19       3.6796     0.6416     6.1699  C.3     1  <O>11      -0.0255
  28 H1        5.5438    -1.7235     1.8081  H       1  <O>11       0.1921
  29 H2        1.5259    -1.0873     4.7082  H       1  <O>11       0.0377
  30 H3        2.4978    -1.7545     6.0423  H       1  <O>11       0.0377
  31 H4        2.7685    -6.8633     6.1979  H       1  <O>11       0.1738
  32 H5        7.2294     1.3927     4.8175  H       1  <O>11       0.0315
  33 H6        5.9571     2.4739     4.1996  H       1  <O>11       0.0315
  34 H7        6.2039     1.2585     6.9646  H       1  <O>11       0.0269
  35 H8        6.1914     2.9801     6.5118  H       1  <O>11       0.0269
  36 H9        4.0229     2.3350     7.4484  H       1  <O>11       0.0268
  37 H10       3.8538     2.7366     5.7222  H       1  <O>11       0.0268
  38 H11       3.8988     0.0045     7.0267  H       1  <O>11       0.0314
  39 H12       2.6001     0.7458     6.0607  H       1  <O>11       0.0314
  40 H13       0.9975    -2.4710     2.7732  H       1  <O>11       0.0620
  41 H14       0.6298    -4.7153     1.9210  H       1  <O>11       0.0618
  42 H15       1.5903    -6.6307     3.0699  H       1  <O>11       0.0636
  43 H16       4.7073    -9.9994     2.8862  H       1  <O>11       0.0670
  44 H17       3.2981   -10.3009     0.6525  H       1  <O>11       0.0650
  45 H18       1.7316    -8.2382     0.4601  H       1  <O>11       0.1030
  46 H19       3.3053    -4.0567     5.9293  H       1  <O>11       0.0639
@<TRIPOS>BOND
     1     1     2    2
     2     2     3   ar
     3     3     4   ar
     4     4     5   ar
     5     5     6    1
     6     6     7    1
     7     7     8   ar
     8     8     9   ar
     9     9    10   ar
    10    10    11   ar
    11    11    12    1
    12    12    13    1
    13    13    14    2
    14    13    15    2
    15    13    16    1
    16    16    17   ar
    17    17    18   ar
    18    18    19   ar
    19    19    20   ar
    20    16    20   ar
    21    11    21   ar
    22     7    21   ar
    23     5    22   ar
    24    22    23   ar
    25     2    23   ar
    26    23    24    1
    27    24    25    1
    28    25    26    1
    29    26    27    1
    30    22    27    1
    31     3    28    1
    32     6    29    1
    33     6    30    1
    34    12    31    1
    35    24    32    1
    36    24    33    1
    37    25    34    1
    38    25    35    1
    39    26    36    1
    40    26    37    1
    41    27    38    1
    42    27    39    1
    43     8    40    1
    44     9    41    1
    45    10    42    1
    46    17    43    1
    47    18    44    1
    48    19    45    1
    49    21    46    1
@<TRIPOS>MOLECULE
mol86_1_29
 46 49 0 0 0
SMALL
USER_CHARGES
****
VDW energy = -29.03
@<TRIPOS>ATOM
   1 O1        6.9878     0.1985     2.5155  O.2     1  <O>11      -0.2661
   2 C1        5.8255    -0.2285     3.1857  C.ar    1  <O>11       0.2682
   3 N1        5.1910    -1.2820     2.6452  N.ar    1  <O>11      -0.2427
   4 N2        4.0648    -1.7438     3.2451  N.ar    1  <O>11      -0.1753
   5 C2        3.6029    -1.1357     4.3580  C.ar    1  <O>11       0.0693
   6 C3        2.3840    -1.7110     4.9590  C.3     1  <O>11       0.0168
   7 C4        1.1856    -1.0570     4.3702  C.ar    1  <O>11      -0.0397
   8 C5        1.0016     0.3310     4.4984  C.ar    1  <O>11      -0.0581
   9 C6       -0.1333     0.9437     3.9539  C.ar    1  <O>11      -0.0597
  10 C7       -1.0881     0.1811     3.2761  C.ar    1  <O>11      -0.0393
  11 C8       -0.8998    -1.1989     3.1431  C.ar    1  <O>11       0.0484
  12 N3       -1.8867    -1.9799     2.4429  N.pl3   1  <O>11      -0.2135
  13 S1       -1.6830    -3.6117     2.2748  S.O2    1  <O>11       0.1056
  14 O2       -0.2753    -3.9098     1.4463  O.2     1  <O>11      -0.1470
  15 O3       -2.9664    -4.2455     1.4317  O.2     1  <O>11      -0.1470
  16 C9       -1.5994    -4.3651     3.8754  C.ar    1  <O>11       0.2610
  17 C10      -2.4587    -5.2907     4.2834  C.ar    1  <O>11       0.0041
  18 C11      -2.0440    -5.6112     5.5967  C.ar    1  <O>11      -0.0219
  19 C12      -0.9298    -4.8371     5.8700  C.ar    1  <O>11       0.0943
  20 O4       -0.6578    -4.0477     4.7817  O.2     1  <O>11      -0.4449
  21 C13       0.2286    -1.8192     3.6800  C.ar    1  <O>11      -0.0358
  22 C14       4.2202    -0.0251     4.9315  C.ar    1  <O>11      -0.0158
  23 C15       5.4039     0.4308     4.3283  C.ar    1  <O>11       0.0232
  24 C16       6.1641     1.6216     4.8468  C.3     1  <O>11      -0.0222
  25 C17       5.7865     1.9954     6.2785  C.3     1  <O>11      -0.0486
  26 C18       4.2731     2.0252     6.4337  C.3     1  <O>11      -0.0487
  27 C19       3.6796     0.6416     6.1699  C.3     1  <O>11      -0.0255
  28 H1        5.5438    -1.7235     1.8081  H       1  <O>11       0.1921
  29 H2        2.3962    -1.5438     6.0361  H       1  <O>11       0.0377
  30 H3        2.3491    -2.7818     4.7574  H       1  <O>11       0.0377
  31 H4       -2.7134    -1.5268     2.0511  H       1  <O>11       0.1738
  32 H5        7.2294     1.3927     4.8175  H       1  <O>11       0.0315
  33 H6        5.9571     2.4739     4.1996  H       1  <O>11       0.0315
  34 H7        6.2039     1.2585     6.9646  H       1  <O>11       0.0269
  35 H8        6.1914     2.9801     6.5118  H       1  <O>11       0.0269
  36 H9        4.0229     2.3350     7.4484  H       1  <O>11       0.0268
  37 H10       3.8538     2.7366     5.7222  H       1  <O>11       0.0268
  38 H11       3.8988     0.0045     7.0267  H       1  <O>11       0.0314
  39 H12       2.6001     0.7458     6.0607  H       1  <O>11       0.0314
  40 H13       1.7051     0.8996     4.9952  H       1  <O>11       0.0620
  41 H14      -0.2652     1.9624     4.0534  H       1  <O>11       0.0618
  42 H15      -1.9258     0.6324     2.8766  H       1  <O>11       0.0636
  43 H16      -3.2533    -5.6882     3.7585  H       1  <O>11       0.0670
  44 H17      -2.4881    -6.2933     6.2312  H       1  <O>11       0.0650
  45 H18      -0.3909    -4.8515     6.7500  H       1  <O>11       0.1030
  46 H19       0.3601    -2.8369     3.5701  H       1  <O>11       0.0639
@<TRIPOS>BOND
     1     1     2    2
     2     2     3   ar
     3     3     4   ar
     4     4     5   ar
     5     5     6    1
     6     6     7    1
     7     7     8   ar
     8     8     9   ar
     9     9    10   ar
    10    10    11   ar
    11    11    12    1
    12    12    13    1
    13    13    14    2
    14    13    15    2
    15    13    16    1
    16    16    17   ar
    17    17    18   ar
    18    18    19   ar
    19    19    20   ar
    20    16    20   ar
    21    11    21   ar
    22     7    21   ar
    23     5    22   ar
    24    22    23   ar
    25     2    23   ar
    26    23    24    1
    27    24    25    1
    28    25    26    1
    29    26    27    1
    30    22    27    1
    31     3    28    1
    32     6    29    1
    33     6    30    1
    34    12    31    1
    35    24    32    1
    36    24    33    1
    37    25    34    1
    38    25    35    1
    39    26    36    1
    40    26    37    1
    41    27    38    1
    42    27    39    1
    43     8    40    1
    44     9    41    1
    45    10    42    1
    46    17    43    1
    47    18    44    1
    48    19    45    1
    49    21    46    1
@<TRIPOS>MOLECULE
mol86_1_30
 46 49 0 0 0
SMALL
USER_CHARGES
****
VDW energy = -24.98
@<TRIPOS>ATOM
   1 O1        6.9878     0.1985     2.5155  O.2     1  <O>11      -0.2661
   2 C1        5.8255    -0.2285     3.1857  C.ar    1  <O>11       0.2682
   3 N1        5.1910    -1.2820     2.6452  N.ar    1  <O>11      -0.2427
   4 N2        4.0648    -1.7438     3.2451  N.ar    1  <O>11      -0.1753
   5 C2        3.6029    -1.1357     4.3580  C.ar    1  <O>11       0.0693
   6 C3        2.3840    -1.7110     4.9590  C.3     1  <O>11       0.0168
   7 C4        2.1704    -3.0832     4.4280  C.ar    1  <O>11      -0.0397
   8 C5        1.9953    -3.2892     3.0482  C.ar    1  <O>11      -0.0581
   9 C6        1.7823    -4.5805     2.5509  C.ar    1  <O>11      -0.0597
  10 C7        1.7466    -5.6730     3.4214  C.ar    1  <O>11      -0.0393
  11 C8        1.9283    -5.4671     4.7933  C.ar    1  <O>11       0.0484
  12 N3        1.8914    -6.5968     5.6858  N.pl3   1  <O>11      -0.2135
  13 S1        3.0618    -7.7606     5.5957  S.O2    1  <O>11       0.1056
  14 O2        2.7668    -8.9297     6.7372  O.2     1  <O>11      -0.1470
  15 O3        4.5479    -7.0737     5.8782  O.2     1  <O>11      -0.1470
  16 C9        3.0469    -8.4905     3.9822  C.ar    1  <O>11       0.2610
  17 C10       3.4023    -9.7491     3.7559  C.ar    1  <O>11       0.0041
  18 C11       3.2535    -9.9185     2.3600  C.ar    1  <O>11      -0.0219
  19 C12       2.7955    -8.7152     1.8524  C.ar    1  <O>11       0.0943
  20 O4        2.6731    -7.8155     2.8807  O.2     1  <O>11      -0.4449
  21 C13       2.1435    -4.1848     5.2991  C.ar    1  <O>11      -0.0358
  22 C14       4.2202    -0.0251     4.9315  C.ar    1  <O>11      -0.0158
  23 C15       5.4039     0.4308     4.3283  C.ar    1  <O>11       0.0232
  24 C16       6.1641     1.6216     4.8468  C.3     1  <O>11      -0.0222
  25 C17       5.7865     1.9954     6.2785  C.3     1  <O>11      -0.0486
  26 C18       4.2731     2.0252     6.4337  C.3     1  <O>11      -0.0487
  27 C19       3.6796     0.6416     6.1699  C.3     1  <O>11      -0.0255
  28 H1        5.5438    -1.7235     1.8081  H       1  <O>11       0.1921
  29 H2        1.5259    -1.0873     4.7082  H       1  <O>11       0.0377
  30 H3        2.4978    -1.7545     6.0423  H       1  <O>11       0.0377
  31 H4        1.1432    -6.6791     6.3757  H       1  <O>11       0.1738
  32 H5        7.2294     1.3927     4.8175  H       1  <O>11       0.0315
  33 H6        5.9571     2.4739     4.1996  H       1  <O>11       0.0315
  34 H7        6.2039     1.2585     6.9646  H       1  <O>11       0.0269
  35 H8        6.1914     2.9801     6.5118  H       1  <O>11       0.0269
  36 H9        4.0229     2.3350     7.4484  H       1  <O>11       0.0268
  37 H10       3.8538     2.7366     5.7222  H       1  <O>11       0.0268
  38 H11       3.8988     0.0045     7.0267  H       1  <O>11       0.0314
  39 H12       2.6001     0.7458     6.0607  H       1  <O>11       0.0314
  40 H13       2.0238    -2.4864     2.4004  H       1  <O>11       0.0620
  41 H14       1.6512    -4.7259     1.5377  H       1  <O>11       0.0618
  42 H15       1.5873    -6.6245     3.0551  H       1  <O>11       0.0636
  43 H16       3.7175   -10.4489     4.4458  H       1  <O>11       0.0670
  44 H17       3.4493   -10.7769     1.8216  H       1  <O>11       0.0650
  45 H18       2.5808    -8.5255     0.8610  H       1  <O>11       0.1030
  46 H19       2.2828    -4.0458     6.3122  H       1  <O>11       0.0639
@<TRIPOS>BOND
     1     1     2    2
     2     2     3   ar
     3     3     4   ar
     4     4     5   ar
     5     5     6    1
     6     6     7    1
     7     7     8   ar
     8     8     9   ar
     9     9    10   ar
    10    10    11   ar
    11    11    12    1
    12    12    13    1
    13    13    14    2
    14    13    15    2
    15    13    16    1
    16    16    17   ar
    17    17    18   ar
    18    18    19   ar
    19    19    20   ar
    20    16    20   ar
    21    11    21   ar
    22     7    21   ar
    23     5    22   ar
    24    22    23   ar
    25     2    23   ar
    26    23    24    1
    27    24    25    1
    28    25    26    1
    29    26    27    1
    30    22    27    1
    31     3    28    1
    32     6    29    1
    33     6    30    1
    34    12    31    1
    35    24    32    1
    36    24    33    1
    37    25    34    1
    38    25    35    1
    39    26    36    1
    40    26    37    1
    41    27    38    1
    42    27    39    1
    43     8    40    1
    44     9    41    1
    45    10    42    1
    46    17    43    1
    47    18    44    1
    48    19    45    1
    49    21    46    1
@<TRIPOS>MOLECULE
mol86_2_1
 46 49 0 0 0
SMALL
USER_CHARGES
****
VDW energy = -64.51
@<TRIPOS>ATOM
   1 O1        6.9878     0.1985     2.5155  O.2     1  <O>11      -0.2661
   2 C1        5.8255    -0.2285     3.1857  C.ar    1  <O>11       0.2682
   3 N1        5.1910    -1.2820     2.6452  N.ar    1  <O>11      -0.2427
   4 N2        4.0648    -1.7438     3.2451  N.ar    1  <O>11      -0.1753
   5 C2        3.6029    -1.1357     4.3580  C.ar    1  <O>11       0.0693
   6 C3        2.3840    -1.7110     4.9590  C.3     1  <O>11       0.0168
   7 C4        2.6772    -2.1503     6.3488  C.ar    1  <O>11      -0.0397
   8 C5        3.6634    -3.1228     6.5908  C.ar    1  <O>11      -0.0581
   9 C6        3.9301    -3.5442     7.8990  C.ar    1  <O>11      -0.0597
  10 C7        3.2214    -2.9987     8.9725  C.ar    1  <O>11      -0.0393
  11 C8        2.2454    -2.0257     8.7306  C.ar    1  <O>11       0.0484
  12 N3        1.5186    -1.4662     9.8409  N.pl3   1  <O>11      -0.2135
  13 S1        2.0901    -0.1205    10.6094  S.O2    1  <O>11       0.1056
  14 O2        2.0658     1.1687     9.5602  O.2     1  <O>11      -0.1470
  15 O3        3.6492    -0.3908    11.1175  O.2     1  <O>11      -0.1470
  16 C9        1.0668     0.2408    12.0109  C.ar    1  <O>11       0.2610
  17 C10       1.5448     0.3703    13.2398  C.ar    1  <O>11       0.0041
  18 C11       0.4100     0.6435    14.0414  C.ar    1  <O>11      -0.0219
  19 C12      -0.6831     0.6691    13.1938  C.ar    1  <O>11       0.0943
  20 O4       -0.2652     0.4072    11.9147  O.2     1  <O>11      -0.4449
  21 C13       1.9734    -1.5970     7.4312  C.ar    1  <O>11      -0.0358
  22 C14       4.2202    -0.0251     4.9315  C.ar    1  <O>11      -0.0158
  23 C15       5.4039     0.4308     4.3283  C.ar    1  <O>11       0.0232
  24 C16       6.1641     1.6216     4.8468  C.3     1  <O>11      -0.0222
  25 C17       5.7865     1.9954     6.2785  C.3     1  <O>11      -0.0486
  26 C18       4.2731     2.0252     6.4337  C.3     1  <O>11      -0.0487
  27 C19       3.6796     0.6416     6.1699  C.3     1  <O>11      -0.0255
  28 H1        5.5438    -1.7235     1.8081  H       1  <O>11       0.1921
  29 H2        2.0574    -2.5674     4.3691  H       1  <O>11       0.0377
  30 H3        1.5956    -0.9582     4.9749  H       1  <O>11       0.0377
  31 H4        0.6503    -1.9015    10.1540  H       1  <O>11       0.1738
  32 H5        7.2294     1.3927     4.8175  H       1  <O>11       0.0315
  33 H6        5.9571     2.4739     4.1996  H       1  <O>11       0.0315
  34 H7        6.2039     1.2585     6.9646  H       1  <O>11       0.0269
  35 H8        6.1914     2.9801     6.5118  H       1  <O>11       0.0269
  36 H9        4.0229     2.3350     7.4484  H       1  <O>11       0.0268
  37 H10       3.8538     2.7366     5.7222  H       1  <O>11       0.0268
  38 H11       3.8988     0.0045     7.0267  H       1  <O>11       0.0314
  39 H12       2.6001     0.7458     6.0607  H       1  <O>11       0.0314
  40 H13       4.1922    -3.5269     5.8020  H       1  <O>11       0.0620
  41 H14       4.6529    -4.2605     8.0710  H       1  <O>11       0.0618
  42 H15       3.4164    -3.3109     9.9366  H       1  <O>11       0.0636
  43 H16       2.5273     0.2898    13.5452  H       1  <O>11       0.0670
  44 H17       0.4003     0.7946    15.0622  H       1  <O>11       0.0650
  45 H18      -1.6573     0.8556    13.4789  H       1  <O>11       0.1030
  46 H19       1.2557    -0.8741     7.2653  H       1  <O>11       0.0639
@<TRIPOS>BOND
     1     1     2    2
     2     2     3   ar
     3     3     4   ar
     4     4     5   ar
     5     5     6    1
     6     6     7    1
     7     7     8   ar
     8     8     9   ar
     9     9    10   ar
    10    10    11   ar
    11    11    12    1
    12    12    13    1
    13    13    14    2
    14    13    15    2
    15    13    16    1
    16    16    17   ar
    17    17    18   ar
    18    18    19   ar
    19    19    20   ar
    20    16    20   ar
    21    11    21   ar
    22     7    21   ar
    23     5    22   ar
    24    22    23   ar
    25     2    23   ar
    26    23    24    1
    27    24    25    1
    28    25    26    1
    29    26    27    1
    30    22    27    1
    31     3    28    1
    32     6    29    1
    33     6    30    1
    34    12    31    1
    35    24    32    1
    36    24    33    1
    37    25    34    1
    38    25    35    1
    39    26    36    1
    40    26    37    1
    41    27    38    1
    42    27    39    1
    43     8    40    1
    44     9    41    1
    45    10    42    1
    46    17    43    1
    47    18    44    1
    48    19    45    1
    49    21    46    1
@<TRIPOS>MOLECULE
mol86_2_2
 46 49 0 0 0
SMALL
USER_CHARGES
****
VDW energy = -64.20
@<TRIPOS>ATOM
   1 O1        6.9878     0.1985     2.5155  O.2     1  <O>11      -0.2661
   2 C1        5.8255    -0.2285     3.1857  C.ar    1  <O>11       0.2682
   3 N1        5.1910    -1.2820     2.6452  N.ar    1  <O>11      -0.2427
   4 N2        4.0648    -1.7438     3.2451  N.ar    1  <O>11      -0.1753
   5 C2        3.6029    -1.1357     4.3580  C.ar    1  <O>11       0.0693
   6 C3        2.3840    -1.7110     4.9590  C.3     1  <O>11       0.0168
   7 C4        1.9380    -2.8780     4.1530  C.ar    1  <O>11      -0.0397
   8 C5        1.0416    -2.6996     3.0846  C.ar    1  <O>11      -0.0581
   9 C6        0.6131    -3.8010     2.3341  C.ar    1  <O>11      -0.0597
  10 C7        1.0764    -5.0836     2.6388  C.ar    1  <O>11      -0.0393
  11 C8        1.9741    -5.2584     3.6976  C.ar    1  <O>11       0.0484
  12 N3        2.4490    -6.5825     4.0068  N.pl3   1  <O>11      -0.2135
  13 S1        1.6252    -7.5258     5.0836  S.O2    1  <O>11       0.1056
  14 O2        0.1235    -7.8864     4.4684  O.2     1  <O>11      -0.1470
  15 O3        1.4526    -6.7082     6.5202  O.2     1  <O>11      -0.1470
  16 C9        2.5236    -9.0280     5.3636  C.ar    1  <O>11       0.2610
  17 C10       2.8833    -9.4400     6.5703  C.ar    1  <O>11       0.0041
  18 C11       3.5743   -10.6553     6.3455  C.ar    1  <O>11      -0.0219
  19 C12       3.5557   -10.8808     4.9807  C.ar    1  <O>11       0.0943
  20 O4        2.8981    -9.8478     4.3643  O.2     1  <O>11      -0.4449
  21 C13       2.4092    -4.1674     4.4505  C.ar    1  <O>11      -0.0358
  22 C14       4.2202    -0.0251     4.9315  C.ar    1  <O>11      -0.0158
  23 C15       5.4039     0.4308     4.3283  C.ar    1  <O>11       0.0232
  24 C16       6.1641     1.6216     4.8468  C.3     1  <O>11      -0.0222
  25 C17       5.7865     1.9954     6.2785  C.3     1  <O>11      -0.0486
  26 C18       4.2731     2.0252     6.4337  C.3     1  <O>11      -0.0487
  27 C19       3.6796     0.6416     6.1699  C.3     1  <O>11      -0.0255
  28 H1        5.5438    -1.7235     1.8081  H       1  <O>11       0.1921
  29 H2        1.5960    -0.9580     4.9740  H       1  <O>11       0.0377
  30 H3        2.5980    -2.0340     5.9780  H       1  <O>11       0.0377
  31 H4        3.2953    -6.9382     3.5612  H       1  <O>11       0.1738
  32 H5        7.2294     1.3927     4.8175  H       1  <O>11       0.0315
  33 H6        5.9571     2.4739     4.1996  H       1  <O>11       0.0315
  34 H7        6.2039     1.2585     6.9646  H       1  <O>11       0.0269
  35 H8        6.1914     2.9801     6.5118  H       1  <O>11       0.0269
  36 H9        4.0229     2.3350     7.4484  H       1  <O>11       0.0268
  37 H10       3.8538     2.7366     5.7222  H       1  <O>11       0.0268
  38 H11       3.8988     0.0045     7.0267  H       1  <O>11       0.0314
  39 H12       2.6001     0.7458     6.0607  H       1  <O>11       0.0314
  40 H13       0.6985    -1.7542     2.8531  H       1  <O>11       0.0620
  41 H14      -0.0474    -3.6651     1.5528  H       1  <O>11       0.0618
  42 H15       0.7588    -5.8958     2.0870  H       1  <O>11       0.0636
  43 H16       2.7002    -8.9773     7.4745  H       1  <O>11       0.0670
  44 H17       4.0085   -11.2574     7.0624  H       1  <O>11       0.0650
  45 H18       3.9705   -11.6962     4.5030  H       1  <O>11       0.1030
  46 H19       3.0765    -4.3076     5.2252  H       1  <O>11       0.0639
@<TRIPOS>BOND
     1     1     2    2
     2     2     3   ar
     3     3     4   ar
     4     4     5   ar
     5     5     6    1
     6     6     7    1
     7     7     8   ar
     8     8     9   ar
     9     9    10   ar
    10    10    11   ar
    11    11    12    1
    12    12    13    1
    13    13    14    2
    14    13    15    2
    15    13    16    1
    16    16    17   ar
    17    17    18   ar
    18    18    19   ar
    19    19    20   ar
    20    16    20   ar
    21    11    21   ar
    22     7    21   ar
    23     5    22   ar
    24    22    23   ar
    25     2    23   ar
    26    23    24    1
    27    24    25    1
    28    25    26    1
    29    26    27    1
    30    22    27    1
    31     3    28    1
    32     6    29    1
    33     6    30    1
    34    12    31    1
    35    24    32    1
    36    24    33    1
    37    25    34    1
    38    25    35    1
    39    26    36    1
    40    26    37    1
    41    27    38    1
    42    27    39    1
    43     8    40    1
    44     9    41    1
    45    10    42    1
    46    17    43    1
    47    18    44    1
    48    19    45    1
    49    21    46    1
@<TRIPOS>MOLECULE
mol86_2_3
 46 49 0 0 0
SMALL
USER_CHARGES
****
VDW energy = -61.18
@<TRIPOS>ATOM
   1 O1        6.9878     0.1985     2.5155  O.2     1  <O>11      -0.2661
   2 C1        5.8255    -0.2285     3.1857  C.ar    1  <O>11       0.2682
   3 N1        5.1910    -1.2820     2.6452  N.ar    1  <O>11      -0.2427
   4 N2        4.0648    -1.7438     3.2451  N.ar    1  <O>11      -0.1753
   5 C2        3.6029    -1.1357     4.3580  C.ar    1  <O>11       0.0693
   6 C3        2.3840    -1.7110     4.9590  C.3     1  <O>11       0.0168
   7 C4        2.7646    -2.7510     5.9510  C.ar    1  <O>11      -0.0397
   8 C5        2.9777    -2.4020     7.2963  C.ar    1  <O>11      -0.0581
   9 C6        3.3478    -3.3803     8.2269  C.ar    1  <O>11      -0.0597
  10 C7        3.5036    -4.7098     7.8263  C.ar    1  <O>11      -0.0393
  11 C8        3.2840    -5.0566     6.4887  C.ar    1  <O>11       0.0484
  12 N3        3.4452    -6.4286     6.0815  N.pl3   1  <O>11      -0.2135
  13 S1        4.9368    -7.1362     6.1321  S.O2    1  <O>11       0.1056
  14 O2        5.4502    -7.2339     7.7101  O.2     1  <O>11      -0.1470
  15 O3        6.0146    -6.2242     5.2552  O.2     1  <O>11      -0.1470
  16 C9        4.8431    -8.7658     5.4409  C.ar    1  <O>11       0.2610
  17 C10       5.6166    -9.1735     4.4454  C.ar    1  <O>11       0.0041
  18 C11       5.2159   -10.5093     4.2009  C.ar    1  <O>11      -0.0219
  19 C12       4.2144   -10.8006     5.1100  C.ar    1  <O>11       0.0943
  20 O4        3.9774    -9.6952     5.8855  O.2     1  <O>11      -0.4449
  21 C13       2.9127    -4.0901     5.5536  C.ar    1  <O>11      -0.0358
  22 C14       4.2202    -0.0251     4.9315  C.ar    1  <O>11      -0.0158
  23 C15       5.4039     0.4308     4.3283  C.ar    1  <O>11       0.0232
  24 C16       6.1641     1.6216     4.8468  C.3     1  <O>11      -0.0222
  25 C17       5.7865     1.9954     6.2785  C.3     1  <O>11      -0.0486
  26 C18       4.2731     2.0252     6.4337  C.3     1  <O>11      -0.0487
  27 C19       3.6796     0.6416     6.1699  C.3     1  <O>11      -0.0255
  28 H1        5.5438    -1.7235     1.8081  H       1  <O>11       0.1921
  29 H2        1.7715    -2.1615     4.1779  H       1  <O>11       0.0377
  30 H3        1.8173    -0.9241     5.4572  H       1  <O>11       0.0377
  31 H4        2.6380    -6.9641     5.7606  H       1  <O>11       0.1738
  32 H5        7.2294     1.3927     4.8175  H       1  <O>11       0.0315
  33 H6        5.9571     2.4739     4.1996  H       1  <O>11       0.0315
  34 H7        6.2039     1.2585     6.9646  H       1  <O>11       0.0269
  35 H8        6.1914     2.9801     6.5118  H       1  <O>11       0.0269
  36 H9        4.0229     2.3350     7.4484  H       1  <O>11       0.0268
  37 H10       3.8538     2.7366     5.7222  H       1  <O>11       0.0268
  38 H11       3.8988     0.0045     7.0267  H       1  <O>11       0.0314
  39 H12       2.6001     0.7458     6.0607  H       1  <O>11       0.0314
  40 H13       2.8610    -1.4222     7.5984  H       1  <O>11       0.0620
  41 H14       3.5060    -3.1184     9.2125  H       1  <O>11       0.0618
  42 H15       3.7785    -5.4305     8.5118  H       1  <O>11       0.0636
  43 H16       6.3494    -8.6360     3.9563  H       1  <O>11       0.0670
  44 H17       5.5976   -11.1441     3.4823  H       1  <O>11       0.0650
  45 H18       3.7244   -11.7051     5.1913  H       1  <O>11       0.1030
  46 H19       2.7471    -4.3587     4.5710  H       1  <O>11       0.0639
@<TRIPOS>BOND
     1     1     2    2
     2     2     3   ar
     3     3     4   ar
     4     4     5   ar
     5     5     6    1
     6     6     7    1
     7     7     8   ar
     8     8     9   ar
     9     9    10   ar
    10    10    11   ar
    11    11    12    1
    12    12    13    1
    13    13    14    2
    14    13    15    2
    15    13    16    1
    16    16    17   ar
    17    17    18   ar
    18    18    19   ar
    19    19    20   ar
    20    16    20   ar
    21    11    21   ar
    22     7    21   ar
    23     5    22   ar
    24    22    23   ar
    25     2    23   ar
    26    23    24    1
    27    24    25    1
    28    25    26    1
    29    26    27    1
    30    22    27    1
    31     3    28    1
    32     6    29    1
    33     6    30    1
    34    12    31    1
    35    24    32    1
    36    24    33    1
    37    25    34    1
    38    25    35    1
    39    26    36    1
    40    26    37    1
    41    27    38    1
    42    27    39    1
    43     8    40    1
    44     9    41    1
    45    10    42    1
    46    17    43    1
    47    18    44    1
    48    19    45    1
    49    21    46    1
@<TRIPOS>MOLECULE
mol86_2_4
 46 49 0 0 0
SMALL
USER_CHARGES
****
VDW energy = -60.73
@<TRIPOS>ATOM
   1 O1        6.9878     0.1985     2.5155  O.2     1  <O>11      -0.2661
   2 C1        5.8255    -0.2285     3.1857  C.ar    1  <O>11       0.2682
   3 N1        5.1910    -1.2820     2.6452  N.ar    1  <O>11      -0.2427
   4 N2        4.0648    -1.7438     3.2451  N.ar    1  <O>11      -0.1753
   5 C2        3.6029    -1.1357     4.3580  C.ar    1  <O>11       0.0693
   6 C3        2.3840    -1.7110     4.9590  C.3     1  <O>11       0.0168
   7 C4        2.7646    -2.7510     5.9510  C.ar    1  <O>11      -0.0397
   8 C5        1.7953    -3.2991     6.8095  C.ar    1  <O>11      -0.0581
   9 C6        2.1574    -4.2696     7.7513  C.ar    1  <O>11      -0.0597
  10 C7        3.4828    -4.7028     7.8416  C.ar    1  <O>11      -0.0393
  11 C8        4.4447    -4.1617     6.9816  C.ar    1  <O>11       0.0484
  12 N3        5.8091    -4.6124     7.0785  N.pl3   1  <O>11      -0.2135
  13 S1        6.3197    -5.9014     6.1809  S.O2    1  <O>11       0.1056
  14 O2        6.2503    -5.5140     4.5658  O.2     1  <O>11      -0.1470
  15 O3        5.3385    -7.2094     6.4785  O.2     1  <O>11      -0.1470
  16 C9        7.9894    -6.3043     6.6191  C.ar    1  <O>11       0.2610
  17 C10       8.3604    -7.5129     7.0152  C.ar    1  <O>11       0.0041
  18 C11       9.7489    -7.3992     7.2684  C.ar    1  <O>11      -0.0219
  19 C12      10.1039    -6.0937     6.9789  C.ar    1  <O>11       0.0943
  20 O4        8.9892    -5.4045     6.5766  O.2     1  <O>11      -0.4449
  21 C13       4.0942    -3.1957     6.0380  C.ar    1  <O>11      -0.0358
  22 C14       4.2202    -0.0251     4.9315  C.ar    1  <O>11      -0.0158
  23 C15       5.4039     0.4308     4.3283  C.ar    1  <O>11       0.0232
  24 C16       6.1641     1.6216     4.8468  C.3     1  <O>11      -0.0222
  25 C17       5.7865     1.9954     6.2785  C.3     1  <O>11      -0.0486
  26 C18       4.2731     2.0252     6.4337  C.3     1  <O>11      -0.0487
  27 C19       3.6796     0.6416     6.1699  C.3     1  <O>11      -0.0255
  28 H1        5.5438    -1.7235     1.8081  H       1  <O>11       0.1921
  29 H2        1.7715    -2.1615     4.1779  H       1  <O>11       0.0377
  30 H3        1.8173    -0.9241     5.4572  H       1  <O>11       0.0377
  31 H4        6.4610    -4.1360     7.7025  H       1  <O>11       0.1738
  32 H5        7.2294     1.3927     4.8175  H       1  <O>11       0.0315
  33 H6        5.9571     2.4739     4.1996  H       1  <O>11       0.0315
  34 H7        6.2039     1.2585     6.9646  H       1  <O>11       0.0269
  35 H8        6.1914     2.9801     6.5118  H       1  <O>11       0.0269
  36 H9        4.0229     2.3350     7.4484  H       1  <O>11       0.0268
  37 H10       3.8538     2.7366     5.7222  H       1  <O>11       0.0268
  38 H11       3.8988     0.0045     7.0267  H       1  <O>11       0.0314
  39 H12       2.6001     0.7458     6.0607  H       1  <O>11       0.0314
  40 H13       0.8143    -2.9852     6.7451  H       1  <O>11       0.0620
  41 H14       1.4428    -4.6665     8.3812  H       1  <O>11       0.0618
  42 H15       3.7502    -5.4166     8.5373  H       1  <O>11       0.0636
  43 H16       7.7681    -8.3519     7.1168  H       1  <O>11       0.0670
  44 H17      10.3759    -8.1468     7.6044  H       1  <O>11       0.0650
  45 H18      11.0555    -5.7016     7.0537  H       1  <O>11       0.1030
  46 H19       4.8110    -2.8083     5.4045  H       1  <O>11       0.0639
@<TRIPOS>BOND
     1     1     2    2
     2     2     3   ar
     3     3     4   ar
     4     4     5   ar
     5     5     6    1
     6     6     7    1
     7     7     8   ar
     8     8     9   ar
     9     9    10   ar
    10    10    11   ar
    11    11    12    1
    12    12    13    1
    13    13    14    2
    14    13    15    2
    15    13    16    1
    16    16    17   ar
    17    17    18   ar
    18    18    19   ar
    19    19    20   ar
    20    16    20   ar
    21    11    21   ar
    22     7    21   ar
    23     5    22   ar
    24    22    23   ar
    25     2    23   ar
    26    23    24    1
    27    24    25    1
    28    25    26    1
    29    26    27    1
    30    22    27    1
    31     3    28    1
    32     6    29    1
    33     6    30    1
    34    12    31    1
    35    24    32    1
    36    24    33    1
    37    25    34    1
    38    25    35    1
    39    26    36    1
    40    26    37    1
    41    27    38    1
    42    27    39    1
    43     8    40    1
    44     9    41    1
    45    10    42    1
    46    17    43    1
    47    18    44    1
    48    19    45    1
    49    21    46    1
@<TRIPOS>MOLECULE
mol86_2_5
 46 49 0 0 0
SMALL
USER_CHARGES
****
VDW energy = -60.33
@<TRIPOS>ATOM
   1 O1        6.9878     0.1985     2.5155  O.2     1  <O>11      -0.2661
   2 C1        5.8255    -0.2285     3.1857  C.ar    1  <O>11       0.2682
   3 N1        5.1910    -1.2820     2.6452  N.ar    1  <O>11      -0.2427
   4 N2        4.0648    -1.7438     3.2451  N.ar    1  <O>11      -0.1753
   5 C2        3.6029    -1.1357     4.3580  C.ar    1  <O>11       0.0693
   6 C3        2.3840    -1.7110     4.9590  C.3     1  <O>11       0.0168
   7 C4        1.1856    -1.0570     4.3702  C.ar    1  <O>11      -0.0397
   8 C5       -0.1034    -1.4364     4.7843  C.ar    1  <O>11      -0.0581
   9 C6       -1.2312    -0.8282     4.2203  C.ar    1  <O>11      -0.0597
  10 C7       -1.0835     0.1622     3.2458  C.ar    1  <O>11      -0.0393
  11 C8        0.2000     0.5438     2.8402  C.ar    1  <O>11       0.0484
  12 N3        0.3464     1.5657     1.8360  N.pl3   1  <O>11      -0.2135
  13 S1       -0.1293     3.1145     2.1570  S.O2    1  <O>11       0.1056
  14 O2        0.8227     3.7474     3.3639  O.2     1  <O>11      -0.1470
  15 O3       -1.7176     3.1179     2.6463  O.2     1  <O>11      -0.1470
  16 C9        0.0399     4.1014     0.6943  C.ar    1  <O>11       0.2610
  17 C10      -0.9587     4.8008     0.1757  C.ar    1  <O>11       0.0041
  18 C11      -0.4061     5.4243    -0.9692  C.ar    1  <O>11      -0.0219
  19 C12       0.9226     5.0436    -1.0314  C.ar    1  <O>11       0.0943
  20 O4        1.1978     4.2030     0.0161  O.2     1  <O>11      -0.4449
  21 C13       1.3307    -0.0542     3.3973  C.ar    1  <O>11      -0.0358
  22 C14       4.2202    -0.0251     4.9315  C.ar    1  <O>11      -0.0158
  23 C15       5.4039     0.4308     4.3283  C.ar    1  <O>11       0.0232
  24 C16       6.1641     1.6216     4.8468  C.3     1  <O>11      -0.0222
  25 C17       5.7865     1.9954     6.2785  C.3     1  <O>11      -0.0486
  26 C18       4.2731     2.0252     6.4337  C.3     1  <O>11      -0.0487
  27 C19       3.6796     0.6416     6.1699  C.3     1  <O>11      -0.0255
  28 H1        5.5438    -1.7235     1.8081  H       1  <O>11       0.1921
  29 H2        2.3962    -1.5438     6.0361  H       1  <O>11       0.0377
  30 H3        2.3491    -2.7818     4.7574  H       1  <O>11       0.0377
  31 H4        0.7435     1.3332     0.9251  H       1  <O>11       0.1738
  32 H5        7.2294     1.3927     4.8175  H       1  <O>11       0.0315
  33 H6        5.9571     2.4739     4.1996  H       1  <O>11       0.0315
  34 H7        6.2039     1.2585     6.9646  H       1  <O>11       0.0269
  35 H8        6.1914     2.9801     6.5118  H       1  <O>11       0.0269
  36 H9        4.0229     2.3350     7.4484  H       1  <O>11       0.0268
  37 H10       3.8538     2.7366     5.7222  H       1  <O>11       0.0268
  38 H11       3.8988     0.0045     7.0267  H       1  <O>11       0.0314
  39 H12       2.6001     0.7458     6.0607  H       1  <O>11       0.0314
  40 H13      -0.2184    -2.1652     5.5059  H       1  <O>11       0.0620
  41 H14      -2.1752    -1.1125     4.5255  H       1  <O>11       0.0618
  42 H15      -1.9149     0.6090     2.8285  H       1  <O>11       0.0636
  43 H16      -1.9257     4.8749     0.5284  H       1  <O>11       0.0670
  44 H17      -0.8997     6.0440    -1.6305  H       1  <O>11       0.0650
  45 H18       1.5983     5.3443    -1.7511  H       1  <O>11       0.1030
  46 H19       2.2726     0.2398     3.0950  H       1  <O>11       0.0639
@<TRIPOS>BOND
     1     1     2    2
     2     2     3   ar
     3     3     4   ar
     4     4     5   ar
     5     5     6    1
     6     6     7    1
     7     7     8   ar
     8     8     9   ar
     9     9    10   ar
    10    10    11   ar
    11    11    12    1
    12    12    13    1
    13    13    14    2
    14    13    15    2
    15    13    16    1
    16    16    17   ar
    17    17    18   ar
    18    18    19   ar
    19    19    20   ar
    20    16    20   ar
    21    11    21   ar
    22     7    21   ar
    23     5    22   ar
    24    22    23   ar
    25     2    23   ar
    26    23    24    1
    27    24    25    1
    28    25    26    1
    29    26    27    1
    30    22    27    1
    31     3    28    1
    32     6    29    1
    33     6    30    1
    34    12    31    1
    35    24    32    1
    36    24    33    1
    37    25    34    1
    38    25    35    1
    39    26    36    1
    40    26    37    1
    41    27    38    1
    42    27    39    1
    43     8    40    1
    44     9    41    1
    45    10    42    1
    46    17    43    1
    47    18    44    1
    48    19    45    1
    49    21    46    1
@<TRIPOS>MOLECULE
mol86_2_6
 46 49 0 0 0
SMALL
USER_CHARGES
****
VDW energy = -60.01
@<TRIPOS>ATOM
   1 O1        6.9878     0.1985     2.5155  O.2     1  <O>11      -0.2661
   2 C1        5.8255    -0.2285     3.1857  C.ar    1  <O>11       0.2682
   3 N1        5.1910    -1.2820     2.6452  N.ar    1  <O>11      -0.2427
   4 N2        4.0648    -1.7438     3.2451  N.ar    1  <O>11      -0.1753
   5 C2        3.6029    -1.1357     4.3580  C.ar    1  <O>11       0.0693
   6 C3        2.3840    -1.7110     4.9590  C.3     1  <O>11       0.0168
   7 C4        2.6772    -2.1503     6.3488  C.ar    1  <O>11      -0.0397
   8 C5        3.6634    -3.1228     6.5908  C.ar    1  <O>11      -0.0581
   9 C6        3.9301    -3.5442     7.8990  C.ar    1  <O>11      -0.0597
  10 C7        3.2214    -2.9987     8.9725  C.ar    1  <O>11      -0.0393
  11 C8        2.2454    -2.0257     8.7306  C.ar    1  <O>11       0.0484
  12 N3        1.5186    -1.4662     9.8409  N.pl3   1  <O>11      -0.2135
  13 S1        0.5023    -2.4191    10.7282  S.O2    1  <O>11       0.1056
  14 O2        1.3844    -3.5900    11.5121  O.2     1  <O>11      -0.1470
  15 O3       -0.6035    -3.1420     9.7198  O.2     1  <O>11      -0.1470
  16 C9       -0.3499    -1.4247    11.9227  C.ar    1  <O>11       0.2610
  17 C10      -0.6417    -0.1478    11.7231  C.ar    1  <O>11       0.0041
  18 C11      -1.3032     0.2604    12.9066  C.ar    1  <O>11      -0.0219
  19 C12      -1.3654    -0.8468    13.7338  C.ar    1  <O>11       0.0943
  20 O4       -0.7561    -1.9059    13.1120  O.2     1  <O>11      -0.4449
  21 C13       1.9734    -1.5970     7.4312  C.ar    1  <O>11      -0.0358
  22 C14       4.2202    -0.0251     4.9315  C.ar    1  <O>11      -0.0158
  23 C15       5.4039     0.4308     4.3283  C.ar    1  <O>11       0.0232
  24 C16       6.1641     1.6216     4.8468  C.3     1  <O>11      -0.0222
  25 C17       5.7865     1.9954     6.2785  C.3     1  <O>11      -0.0486
  26 C18       4.2731     2.0252     6.4337  C.3     1  <O>11      -0.0487
  27 C19       3.6796     0.6416     6.1699  C.3     1  <O>11      -0.0255
  28 H1        5.5438    -1.7235     1.8081  H       1  <O>11       0.1921
  29 H2        2.0574    -2.5674     4.3691  H       1  <O>11       0.0377
  30 H3        1.5956    -0.9582     4.9749  H       1  <O>11       0.0377
  31 H4        1.6305    -0.4804    10.0796  H       1  <O>11       0.1738
  32 H5        7.2294     1.3927     4.8175  H       1  <O>11       0.0315
  33 H6        5.9571     2.4739     4.1996  H       1  <O>11       0.0315
  34 H7        6.2039     1.2585     6.9646  H       1  <O>11       0.0269
  35 H8        6.1914     2.9801     6.5118  H       1  <O>11       0.0269
  36 H9        4.0229     2.3350     7.4484  H       1  <O>11       0.0268
  37 H10       3.8538     2.7366     5.7222  H       1  <O>11       0.0268
  38 H11       3.8988     0.0045     7.0267  H       1  <O>11       0.0314
  39 H12       2.6001     0.7458     6.0607  H       1  <O>11       0.0314
  40 H13       4.1922    -3.5269     5.8020  H       1  <O>11       0.0620
  41 H14       4.6529    -4.2605     8.0710  H       1  <O>11       0.0618
  42 H15       3.4164    -3.3109     9.9366  H       1  <O>11       0.0636
  43 H16      -0.4329     0.4231    10.8891  H       1  <O>11       0.0670
  44 H17      -1.6690     1.2032    13.1126  H       1  <O>11       0.0650
  45 H18      -1.8007    -0.8715    14.6691  H       1  <O>11       0.1030
  46 H19       1.2557    -0.8741     7.2653  H       1  <O>11       0.0639
@<TRIPOS>BOND
     1     1     2    2
     2     2     3   ar
     3     3     4   ar
     4     4     5   ar
     5     5     6    1
     6     6     7    1
     7     7     8   ar
     8     8     9   ar
     9     9    10   ar
    10    10    11   ar
    11    11    12    1
    12    12    13    1
    13    13    14    2
    14    13    15    2
    15    13    16    1
    16    16    17   ar
    17    17    18   ar
    18    18    19   ar
    19    19    20   ar
    20    16    20   ar
    21    11    21   ar
    22     7    21   ar
    23     5    22   ar
    24    22    23   ar
    25     2    23   ar
    26    23    24    1
    27    24    25    1
    28    25    26    1
    29    26    27    1
    30    22    27    1
    31     3    28    1
    32     6    29    1
    33     6    30    1
    34    12    31    1
    35    24    32    1
    36    24    33    1
    37    25    34    1
    38    25    35    1
    39    26    36    1
    40    26    37    1
    41    27    38    1
    42    27    39    1
    43     8    40    1
    44     9    41    1
    45    10    42    1
    46    17    43    1
    47    18    44    1
    48    19    45    1
    49    21    46    1
@<TRIPOS>MOLECULE
mol86_2_7
 46 49 0 0 0
SMALL
USER_CHARGES
****
VDW energy = -59.68
@<TRIPOS>ATOM
   1 O1        6.9878     0.1985     2.5155  O.2     1  <O>11      -0.2661
   2 C1        5.8255    -0.2285     3.1857  C.ar    1  <O>11       0.2682
   3 N1        5.1910    -1.2820     2.6452  N.ar    1  <O>11      -0.2427
   4 N2        4.0648    -1.7438     3.2451  N.ar    1  <O>11      -0.1753
   5 C2        3.6029    -1.1357     4.3580  C.ar    1  <O>11       0.0693
   6 C3        2.3840    -1.7110     4.9590  C.3     1  <O>11       0.0168
   7 C4        1.9380    -2.8780     4.1530  C.ar    1  <O>11      -0.0397
   8 C5        2.7856    -3.9869     3.9833  C.ar    1  <O>11      -0.0581
   9 C6        2.3691    -5.0800     3.2142  C.ar    1  <O>11      -0.0597
  10 C7        1.1073    -5.0782     2.6138  C.ar    1  <O>11      -0.0393
  11 C8        0.2622    -3.9770     2.7896  C.ar    1  <O>11       0.0484
  12 N3       -1.0375    -3.9808     2.1692  N.pl3   1  <O>11      -0.2135
  13 S1       -2.3388    -4.5954     2.9797  S.O2    1  <O>11       0.1056
  14 O2       -2.6520    -3.6581     4.3164  O.2     1  <O>11      -0.1470
  15 O3       -2.0095    -6.1519     3.4605  O.2     1  <O>11      -0.1470
  16 C9       -3.7552    -4.5940     1.9139  C.ar    1  <O>11       0.2610
  17 C10      -4.4692    -5.6809     1.6604  C.ar    1  <O>11       0.0041
  18 C11      -5.4841    -5.2471     0.7735  C.ar    1  <O>11      -0.0219
  19 C12      -5.2927    -3.8910     0.5772  C.ar    1  <O>11       0.0943
  20 O4       -4.1963    -3.4846     1.2929  O.2     1  <O>11      -0.4449
  21 C13       0.6665    -2.8836     3.5560  C.ar    1  <O>11      -0.0358
  22 C14       4.2202    -0.0251     4.9315  C.ar    1  <O>11      -0.0158
  23 C15       5.4039     0.4308     4.3283  C.ar    1  <O>11       0.0232
  24 C16       6.1641     1.6216     4.8468  C.3     1  <O>11      -0.0222
  25 C17       5.7865     1.9954     6.2785  C.3     1  <O>11      -0.0486
  26 C18       4.2731     2.0252     6.4337  C.3     1  <O>11      -0.0487
  27 C19       3.6796     0.6416     6.1699  C.3     1  <O>11      -0.0255
  28 H1        5.5438    -1.7235     1.8081  H       1  <O>11       0.1921
  29 H2        1.5960    -0.9580     4.9740  H       1  <O>11       0.0377
  30 H3        2.5980    -2.0340     5.9780  H       1  <O>11       0.0377
  31 H4       -1.1550    -3.6044     1.2280  H       1  <O>11       0.1738
  32 H5        7.2294     1.3927     4.8175  H       1  <O>11       0.0315
  33 H6        5.9571     2.4739     4.1996  H       1  <O>11       0.0315
  34 H7        6.2039     1.2585     6.9646  H       1  <O>11       0.0269
  35 H8        6.1914     2.9801     6.5118  H       1  <O>11       0.0269
  36 H9        4.0229     2.3350     7.4484  H       1  <O>11       0.0268
  37 H10       3.8538     2.7366     5.7222  H       1  <O>11       0.0268
  38 H11       3.8988     0.0045     7.0267  H       1  <O>11       0.0314
  39 H12       2.6001     0.7458     6.0607  H       1  <O>11       0.0314
  40 H13       3.7173    -3.9951     4.4271  H       1  <O>11       0.0620
  41 H14       2.9962    -5.8901     3.0902  H       1  <O>11       0.0618
  42 H15       0.8011    -5.8829     2.0450  H       1  <O>11       0.0636
  43 H16      -4.3189    -6.6333     2.0283  H       1  <O>11       0.0670
  44 H17      -6.2247    -5.8306     0.3538  H       1  <O>11       0.0650
  45 H18      -5.8812    -3.2827    -0.0134  H       1  <O>11       0.1030
  46 H19       0.0321    -2.0797     3.6841  H       1  <O>11       0.0639
@<TRIPOS>BOND
     1     1     2    2
     2     2     3   ar
     3     3     4   ar
     4     4     5   ar
     5     5     6    1
     6     6     7    1
     7     7     8   ar
     8     8     9   ar
     9     9    10   ar
    10    10    11   ar
    11    11    12    1
    12    12    13    1
    13    13    14    2
    14    13    15    2
    15    13    16    1
    16    16    17   ar
    17    17    18   ar
    18    18    19   ar
    19    19    20   ar
    20    16    20   ar
    21    11    21   ar
    22     7    21   ar
    23     5    22   ar
    24    22    23   ar
    25     2    23   ar
    26    23    24    1
    27    24    25    1
    28    25    26    1
    29    26    27    1
    30    22    27    1
    31     3    28    1
    32     6    29    1
    33     6    30    1
    34    12    31    1
    35    24    32    1
    36    24    33    1
    37    25    34    1
    38    25    35    1
    39    26    36    1
    40    26    37    1
    41    27    38    1
    42    27    39    1
    43     8    40    1
    44     9    41    1
    45    10    42    1
    46    17    43    1
    47    18    44    1
    48    19    45    1
    49    21    46    1
@<TRIPOS>MOLECULE
mol86_2_8
 46 49 0 0 0
SMALL
USER_CHARGES
****
VDW energy = -59.55
@<TRIPOS>ATOM
   1 O1        6.9878     0.1985     2.5155  O.2     1  <O>11      -0.2661
   2 C1        5.8255    -0.2285     3.1857  C.ar    1  <O>11       0.2682
   3 N1        5.1910    -1.2820     2.6452  N.ar    1  <O>11      -0.2427
   4 N2        4.0648    -1.7438     3.2451  N.ar    1  <O>11      -0.1753
   5 C2        3.6029    -1.1357     4.3580  C.ar    1  <O>11       0.0693
   6 C3        2.3840    -1.7110     4.9590  C.3     1  <O>11       0.0168
   7 C4        1.9380    -2.8780     4.1530  C.ar    1  <O>11      -0.0397
   8 C5        1.0416    -2.6996     3.0846  C.ar    1  <O>11      -0.0581
   9 C6        0.6131    -3.8010     2.3341  C.ar    1  <O>11      -0.0597
  10 C7        1.0764    -5.0836     2.6388  C.ar    1  <O>11      -0.0393
  11 C8        1.9741    -5.2584     3.6976  C.ar    1  <O>11       0.0484
  12 N3        2.4490    -6.5825     4.0068  N.pl3   1  <O>11      -0.2135
  13 S1        3.5094    -6.8106     5.2524  S.O2    1  <O>11       0.1056
  14 O2        3.8809    -8.4263     5.3747  O.2     1  <O>11      -0.1470
  15 O3        2.8182    -6.2930     6.6725  O.2     1  <O>11      -0.1470
  16 C9        4.9908    -5.8868     4.9460  C.ar    1  <O>11       0.2610
  17 C10       5.4836    -5.0067     5.8050  C.ar    1  <O>11       0.0041
  18 C11       6.6473    -4.5013     5.1760  C.ar    1  <O>11      -0.0219
  19 C12       6.7625    -5.1539     3.9616  C.ar    1  <O>11       0.0943
  20 O4        5.7112    -6.0219     3.8173  O.2     1  <O>11      -0.4449
  21 C13       2.4092    -4.1674     4.4505  C.ar    1  <O>11      -0.0358
  22 C14       4.2202    -0.0251     4.9315  C.ar    1  <O>11      -0.0158
  23 C15       5.4039     0.4308     4.3283  C.ar    1  <O>11       0.0232
  24 C16       6.1641     1.6216     4.8468  C.3     1  <O>11      -0.0222
  25 C17       5.7865     1.9954     6.2785  C.3     1  <O>11      -0.0486
  26 C18       4.2731     2.0252     6.4337  C.3     1  <O>11      -0.0487
  27 C19       3.6796     0.6416     6.1699  C.3     1  <O>11      -0.0255
  28 H1        5.5438    -1.7235     1.8081  H       1  <O>11       0.1921
  29 H2        1.5960    -0.9580     4.9740  H       1  <O>11       0.0377
  30 H3        2.5980    -2.0340     5.9780  H       1  <O>11       0.0377
  31 H4        2.1311    -7.3804     3.4558  H       1  <O>11       0.1738
  32 H5        7.2294     1.3927     4.8175  H       1  <O>11       0.0315
  33 H6        5.9571     2.4739     4.1996  H       1  <O>11       0.0315
  34 H7        6.2039     1.2585     6.9646  H       1  <O>11       0.0269
  35 H8        6.1914     2.9801     6.5118  H       1  <O>11       0.0269
  36 H9        4.0229     2.3350     7.4484  H       1  <O>11       0.0268
  37 H10       3.8538     2.7366     5.7222  H       1  <O>11       0.0268
  38 H11       3.8988     0.0045     7.0267  H       1  <O>11       0.0314
  39 H12       2.6001     0.7458     6.0607  H       1  <O>11       0.0314
  40 H13       0.6985    -1.7542     2.8531  H       1  <O>11       0.0620
  41 H14      -0.0474    -3.6651     1.5528  H       1  <O>11       0.0618
  42 H15       0.7588    -5.8958     2.0870  H       1  <O>11       0.0636
  43 H16       5.1034    -4.7469     6.7285  H       1  <O>11       0.0670
  44 H17       7.2868    -3.7836     5.5516  H       1  <O>11       0.0650
  45 H18       7.5189    -5.0103     3.2744  H       1  <O>11       0.1030
  46 H19       3.0765    -4.3076     5.2252  H       1  <O>11       0.0639
@<TRIPOS>BOND
     1     1     2    2
     2     2     3   ar
     3     3     4   ar
     4     4     5   ar
     5     5     6    1
     6     6     7    1
     7     7     8   ar
     8     8     9   ar
     9     9    10   ar
    10    10    11   ar
    11    11    12    1
    12    12    13    1
    13    13    14    2
    14    13    15    2
    15    13    16    1
    16    16    17   ar
    17    17    18   ar
    18    18    19   ar
    19    19    20   ar
    20    16    20   ar
    21    11    21   ar
    22     7    21   ar
    23     5    22   ar
    24    22    23   ar
    25     2    23   ar
    26    23    24    1
    27    24    25    1
    28    25    26    1
    29    26    27    1
    30    22    27    1
    31     3    28    1
    32     6    29    1
    33     6    30    1
    34    12    31    1
    35    24    32    1
    36    24    33    1
    37    25    34    1
    38    25    35    1
    39    26    36    1
    40    26    37    1
    41    27    38    1
    42    27    39    1
    43     8    40    1
    44     9    41    1
    45    10    42    1
    46    17    43    1
    47    18    44    1
    48    19    45    1
    49    21    46    1
@<TRIPOS>MOLECULE
mol86_2_9
 46 49 0 0 0
SMALL
USER_CHARGES
****
VDW energy = -59.47
@<TRIPOS>ATOM
   1 O1        6.9878     0.1985     2.5155  O.2     1  <O>11      -0.2661
   2 C1        5.8255    -0.2285     3.1857  C.ar    1  <O>11       0.2682
   3 N1        5.1910    -1.2820     2.6452  N.ar    1  <O>11      -0.2427
   4 N2        4.0648    -1.7438     3.2451  N.ar    1  <O>11      -0.1753
   5 C2        3.6029    -1.1357     4.3580  C.ar    1  <O>11       0.0693
   6 C3        2.3840    -1.7110     4.9590  C.3     1  <O>11       0.0168
   7 C4        1.9380    -2.8780     4.1530  C.ar    1  <O>11      -0.0397
   8 C5        1.6008    -2.7153     2.7977  C.ar    1  <O>11      -0.0581
   9 C6        1.1695    -3.8127     2.0431  C.ar    1  <O>11      -0.0597
  10 C7        1.0753    -5.0772     2.6302  C.ar    1  <O>11      -0.0393
  11 C8        1.4182    -5.2389     3.9770  C.ar    1  <O>11       0.0484
  12 N3        1.3199    -6.5446     4.5768  N.pl3   1  <O>11      -0.2135
  13 S1        2.6150    -7.5691     4.5440  S.O2    1  <O>11       0.1056
  14 O2        3.8550    -6.9232     5.4432  O.2     1  <O>11      -0.1470
  15 O3        3.1199    -7.7764     2.9742  O.2     1  <O>11      -0.1470
  16 C9        2.1473    -9.1371     5.2256  C.ar    1  <O>11       0.2610
  17 C10       2.3003   -10.2815     4.5757  C.ar    1  <O>11       0.0041
  18 C11       1.8010   -11.2682     5.4601  C.ar    1  <O>11      -0.0219
  19 C12       1.3921   -10.6098     6.6062  C.ar    1  <O>11       0.0943
  20 O4        1.6057    -9.2645     6.4510  O.2     1  <O>11      -0.4449
  21 C13       1.8513    -4.1524     4.7375  C.ar    1  <O>11      -0.0358
  22 C14       4.2202    -0.0251     4.9315  C.ar    1  <O>11      -0.0158
  23 C15       5.4039     0.4308     4.3283  C.ar    1  <O>11       0.0232
  24 C16       6.1641     1.6216     4.8468  C.3     1  <O>11      -0.0222
  25 C17       5.7865     1.9954     6.2785  C.3     1  <O>11      -0.0486
  26 C18       4.2731     2.0252     6.4337  C.3     1  <O>11      -0.0487
  27 C19       3.6796     0.6416     6.1699  C.3     1  <O>11      -0.0255
  28 H1        5.5438    -1.7235     1.8081  H       1  <O>11       0.1921
  29 H2        1.5960    -0.9580     4.9740  H       1  <O>11       0.0377
  30 H3        2.5980    -2.0340     5.9780  H       1  <O>11       0.0377
  31 H4        0.4496    -6.8378     5.0217  H       1  <O>11       0.1738
  32 H5        7.2294     1.3927     4.8175  H       1  <O>11       0.0315
  33 H6        5.9571     2.4739     4.1996  H       1  <O>11       0.0315
  34 H7        6.2039     1.2585     6.9646  H       1  <O>11       0.0269
  35 H8        6.1914     2.9801     6.5118  H       1  <O>11       0.0269
  36 H9        4.0229     2.3350     7.4484  H       1  <O>11       0.0268
  37 H10       3.8538     2.7366     5.7222  H       1  <O>11       0.0268
  38 H11       3.8988     0.0045     7.0267  H       1  <O>11       0.0314
  39 H12       2.6001     0.7458     6.0607  H       1  <O>11       0.0314
  40 H13       1.6716    -1.7842     2.3581  H       1  <O>11       0.0620
  41 H14       0.9203    -3.6874     1.0495  H       1  <O>11       0.0618
  42 H15       0.7552    -5.8858     2.0745  H       1  <O>11       0.0636
  43 H16       2.6960   -10.4226     3.6331  H       1  <O>11       0.0670
  44 H17       1.7515   -12.2838     5.2836  H       1  <O>11       0.0650
  45 H18       0.9907   -11.0594     7.4438  H       1  <O>11       0.1030
  46 H19       2.1077    -4.2848     5.7283  H       1  <O>11       0.0639
@<TRIPOS>BOND
     1     1     2    2
     2     2     3   ar
     3     3     4   ar
     4     4     5   ar
     5     5     6    1
     6     6     7    1
     7     7     8   ar
     8     8     9   ar
     9     9    10   ar
    10    10    11   ar
    11    11    12    1
    12    12    13    1
    13    13    14    2
    14    13    15    2
    15    13    16    1
    16    16    17   ar
    17    17    18   ar
    18    18    19   ar
    19    19    20   ar
    20    16    20   ar
    21    11    21   ar
    22     7    21   ar
    23     5    22   ar
    24    22    23   ar
    25     2    23   ar
    26    23    24    1
    27    24    25    1
    28    25    26    1
    29    26    27    1
    30    22    27    1
    31     3    28    1
    32     6    29    1
    33     6    30    1
    34    12    31    1
    35    24    32    1
    36    24    33    1
    37    25    34    1
    38    25    35    1
    39    26    36    1
    40    26    37    1
    41    27    38    1
    42    27    39    1
    43     8    40    1
    44     9    41    1
    45    10    42    1
    46    17    43    1
    47    18    44    1
    48    19    45    1
    49    21    46    1
@<TRIPOS>MOLECULE
mol86_2_10
 46 49 0 0 0
SMALL
USER_CHARGES
****
VDW energy = -57.91
@<TRIPOS>ATOM
   1 O1        6.9878     0.1985     2.5155  O.2     1  <O>11      -0.2661
   2 C1        5.8255    -0.2285     3.1857  C.ar    1  <O>11       0.2682
   3 N1        5.1910    -1.2820     2.6452  N.ar    1  <O>11      -0.2427
   4 N2        4.0648    -1.7438     3.2451  N.ar    1  <O>11      -0.1753
   5 C2        3.6029    -1.1357     4.3580  C.ar    1  <O>11       0.0693
   6 C3        2.3840    -1.7110     4.9590  C.3     1  <O>11       0.0168
   7 C4        2.6772    -2.1503     6.3488  C.ar    1  <O>11      -0.0397
   8 C5        3.6634    -3.1228     6.5908  C.ar    1  <O>11      -0.0581
   9 C6        3.9301    -3.5442     7.8990  C.ar    1  <O>11      -0.0597
  10 C7        3.2214    -2.9987     8.9725  C.ar    1  <O>11      -0.0393
  11 C8        2.2454    -2.0257     8.7306  C.ar    1  <O>11       0.0484
  12 N3        1.5186    -1.4662     9.8409  N.pl3   1  <O>11      -0.2135
  13 S1        0.3627    -0.3163     9.5772  S.O2    1  <O>11       0.1056
  14 O2       -0.8896    -0.9789     8.7077  O.2     1  <O>11      -0.1470
  15 O3        1.0213     0.9479     8.7225  O.2     1  <O>11      -0.1470
  16 C9       -0.2483     0.2770    11.1318  C.ar    1  <O>11       0.2610
  17 C10      -0.2522     1.5595    11.4641  C.ar    1  <O>11       0.0041
  18 C11      -0.8061     1.5930    12.7668  C.ar    1  <O>11      -0.0219
  19 C12      -1.1092     0.2868    13.1076  C.ar    1  <O>11       0.0943
  20 O4       -0.7488    -0.5410    12.0759  O.2     1  <O>11      -0.4449
  21 C13       1.9734    -1.5970     7.4312  C.ar    1  <O>11      -0.0358
  22 C14       4.2202    -0.0251     4.9315  C.ar    1  <O>11      -0.0158
  23 C15       5.4039     0.4308     4.3283  C.ar    1  <O>11       0.0232
  24 C16       6.1641     1.6216     4.8468  C.3     1  <O>11      -0.0222
  25 C17       5.7865     1.9954     6.2785  C.3     1  <O>11      -0.0486
  26 C18       4.2731     2.0252     6.4337  C.3     1  <O>11      -0.0487
  27 C19       3.6796     0.6416     6.1699  C.3     1  <O>11      -0.0255
  28 H1        5.5438    -1.7235     1.8081  H       1  <O>11       0.1921
  29 H2        2.0574    -2.5674     4.3691  H       1  <O>11       0.0377
  30 H3        1.5956    -0.9582     4.9749  H       1  <O>11       0.0377
  31 H4        1.7179    -1.7795    10.7914  H       1  <O>11       0.1738
  32 H5        7.2294     1.3927     4.8175  H       1  <O>11       0.0315
  33 H6        5.9571     2.4739     4.1996  H       1  <O>11       0.0315
  34 H7        6.2039     1.2585     6.9646  H       1  <O>11       0.0269
  35 H8        6.1914     2.9801     6.5118  H       1  <O>11       0.0269
  36 H9        4.0229     2.3350     7.4484  H       1  <O>11       0.0268
  37 H10       3.8538     2.7366     5.7222  H       1  <O>11       0.0268
  38 H11       3.8988     0.0045     7.0267  H       1  <O>11       0.0314
  39 H12       2.6001     0.7458     6.0607  H       1  <O>11       0.0314
  40 H13       4.1922    -3.5269     5.8020  H       1  <O>11       0.0620
  41 H14       4.6529    -4.2605     8.0710  H       1  <O>11       0.0618
  42 H15       3.4164    -3.3109     9.9366  H       1  <O>11       0.0636
  43 H16       0.0759     2.3579    10.8983  H       1  <O>11       0.0670
  44 H17      -0.9552     2.4311    13.3502  H       1  <O>11       0.0650
  45 H18      -1.5380    -0.0158    13.9961  H       1  <O>11       0.1030
  46 H19       1.2557    -0.8741     7.2653  H       1  <O>11       0.0639
@<TRIPOS>BOND
     1     1     2    2
     2     2     3   ar
     3     3     4   ar
     4     4     5   ar
     5     5     6    1
     6     6     7    1
     7     7     8   ar
     8     8     9   ar
     9     9    10   ar
    10    10    11   ar
    11    11    12    1
    12    12    13    1
    13    13    14    2
    14    13    15    2
    15    13    16    1
    16    16    17   ar
    17    17    18   ar
    18    18    19   ar
    19    19    20   ar
    20    16    20   ar
    21    11    21   ar
    22     7    21   ar
    23     5    22   ar
    24    22    23   ar
    25     2    23   ar
    26    23    24    1
    27    24    25    1
    28    25    26    1
    29    26    27    1
    30    22    27    1
    31     3    28    1
    32     6    29    1
    33     6    30    1
    34    12    31    1
    35    24    32    1
    36    24    33    1
    37    25    34    1
    38    25    35    1
    39    26    36    1
    40    26    37    1
    41    27    38    1
    42    27    39    1
    43     8    40    1
    44     9    41    1
    45    10    42    1
    46    17    43    1
    47    18    44    1
    48    19    45    1
    49    21    46    1
@<TRIPOS>MOLECULE
mol86_2_11
 46 49 0 0 0
SMALL
USER_CHARGES
****
VDW energy = -57.48
@<TRIPOS>ATOM
   1 O1        6.9878     0.1985     2.5155  O.2     1  <O>11      -0.2661
   2 C1        5.8255    -0.2285     3.1857  C.ar    1  <O>11       0.2682
   3 N1        5.1910    -1.2820     2.6452  N.ar    1  <O>11      -0.2427
   4 N2        4.0648    -1.7438     3.2451  N.ar    1  <O>11      -0.1753
   5 C2        3.6029    -1.1357     4.3580  C.ar    1  <O>11       0.0693
   6 C3        2.3840    -1.7110     4.9590  C.3     1  <O>11       0.0168
   7 C4        1.9380    -2.8780     4.1530  C.ar    1  <O>11      -0.0397
   8 C5        1.0416    -2.6996     3.0846  C.ar    1  <O>11      -0.0581
   9 C6        0.6131    -3.8010     2.3341  C.ar    1  <O>11      -0.0597
  10 C7        1.0764    -5.0836     2.6388  C.ar    1  <O>11      -0.0393
  11 C8        1.9741    -5.2584     3.6976  C.ar    1  <O>11       0.0484
  12 N3        2.4490    -6.5825     4.0068  N.pl3   1  <O>11      -0.2135
  13 S1        3.5094    -6.8106     5.2524  S.O2    1  <O>11       0.1056
  14 O2        2.7694    -6.4190     6.6886  O.2     1  <O>11      -0.1470
  15 O3        4.8407    -5.8401     5.0337  O.2     1  <O>11      -0.1470
  16 C9        4.0171    -8.5084     5.2947  C.ar    1  <O>11       0.2610
  17 C10       5.2874    -8.8832     5.2620  C.ar    1  <O>11       0.0041
  18 C11       5.2474   -10.2979     5.3060  C.ar    1  <O>11      -0.0219
  19 C12       3.9140   -10.6595     5.3782  C.ar    1  <O>11       0.0943
  20 O4        3.1408    -9.5275     5.3634  O.2     1  <O>11      -0.4449
  21 C13       2.4092    -4.1674     4.4505  C.ar    1  <O>11      -0.0358
  22 C14       4.2202    -0.0251     4.9315  C.ar    1  <O>11      -0.0158
  23 C15       5.4039     0.4308     4.3283  C.ar    1  <O>11       0.0232
  24 C16       6.1641     1.6216     4.8468  C.3     1  <O>11      -0.0222
  25 C17       5.7865     1.9954     6.2785  C.3     1  <O>11      -0.0486
  26 C18       4.2731     2.0252     6.4337  C.3     1  <O>11      -0.0487
  27 C19       3.6796     0.6416     6.1699  C.3     1  <O>11      -0.0255
  28 H1        5.5438    -1.7235     1.8081  H       1  <O>11       0.1921
  29 H2        1.5960    -0.9580     4.9740  H       1  <O>11       0.0377
  30 H3        2.5980    -2.0340     5.9780  H       1  <O>11       0.0377
  31 H4        2.1311    -7.3804     3.4558  H       1  <O>11       0.1738
  32 H5        7.2294     1.3927     4.8175  H       1  <O>11       0.0315
  33 H6        5.9571     2.4739     4.1996  H       1  <O>11       0.0315
  34 H7        6.2039     1.2585     6.9646  H       1  <O>11       0.0269
  35 H8        6.1914     2.9801     6.5118  H       1  <O>11       0.0269
  36 H9        4.0229     2.3350     7.4484  H       1  <O>11       0.0268
  37 H10       3.8538     2.7366     5.7222  H       1  <O>11       0.0268
  38 H11       3.8988     0.0045     7.0267  H       1  <O>11       0.0314
  39 H12       2.6001     0.7458     6.0607  H       1  <O>11       0.0314
  40 H13       0.6985    -1.7542     2.8531  H       1  <O>11       0.0620
  41 H14      -0.0474    -3.6651     1.5528  H       1  <O>11       0.0618
  42 H15       0.7588    -5.8958     2.0870  H       1  <O>11       0.0636
  43 H16       6.1218    -8.2777     5.2148  H       1  <O>11       0.0670
  44 H17       6.0577   -10.9368     5.2878  H       1  <O>11       0.0650
  45 H18       3.5583   -11.6267     5.4342  H       1  <O>11       0.1030
  46 H19       3.0765    -4.3076     5.2252  H       1  <O>11       0.0639
@<TRIPOS>BOND
     1     1     2    2
     2     2     3   ar
     3     3     4   ar
     4     4     5   ar
     5     5     6    1
     6     6     7    1
     7     7     8   ar
     8     8     9   ar
     9     9    10   ar
    10    10    11   ar
    11    11    12    1
    12    12    13    1
    13    13    14    2
    14    13    15    2
    15    13    16    1
    16    16    17   ar
    17    17    18   ar
    18    18    19   ar
    19    19    20   ar
    20    16    20   ar
    21    11    21   ar
    22     7    21   ar
    23     5    22   ar
    24    22    23   ar
    25     2    23   ar
    26    23    24    1
    27    24    25    1
    28    25    26    1
    29    26    27    1
    30    22    27    1
    31     3    28    1
    32     6    29    1
    33     6    30    1
    34    12    31    1
    35    24    32    1
    36    24    33    1
    37    25    34    1
    38    25    35    1
    39    26    36    1
    40    26    37    1
    41    27    38    1
    42    27    39    1
    43     8    40    1
    44     9    41    1
    45    10    42    1
    46    17    43    1
    47    18    44    1
    48    19    45    1
    49    21    46    1
@<TRIPOS>MOLECULE
mol86_2_12
 46 49 0 0 0
SMALL
USER_CHARGES
****
VDW energy = -57.45
@<TRIPOS>ATOM
   1 O1        6.9878     0.1985     2.5155  O.2     1  <O>11      -0.2661
   2 C1        5.8255    -0.2285     3.1857  C.ar    1  <O>11       0.2682
   3 N1        5.1910    -1.2820     2.6452  N.ar    1  <O>11      -0.2427
   4 N2        4.0648    -1.7438     3.2451  N.ar    1  <O>11      -0.1753
   5 C2        3.6029    -1.1357     4.3580  C.ar    1  <O>11       0.0693
   6 C3        2.3840    -1.7110     4.9590  C.3     1  <O>11       0.0168
   7 C4        1.9380    -2.8780     4.1530  C.ar    1  <O>11      -0.0397
   8 C5        2.4096    -4.1680     4.4536  C.ar    1  <O>11      -0.0581
   9 C6        1.9982    -5.2643     3.6863  C.ar    1  <O>11      -0.0597
  10 C7        1.1134    -5.0847     2.6198  C.ar    1  <O>11      -0.0393
  11 C8        0.6393    -3.8013     2.3266  C.ar    1  <O>11       0.0484
  12 N3       -0.2731    -3.6221     1.2268  N.pl3   1  <O>11      -0.2135
  13 S1       -0.8449    -2.1156     0.8640  S.O2    1  <O>11       0.1056
  14 O2        0.4134    -1.1509     0.3646  O.2     1  <O>11      -0.1470
  15 O3       -1.5508    -1.4494     2.2132  O.2     1  <O>11      -0.1470
  16 C9       -2.0471    -2.2348    -0.4332  C.ar    1  <O>11       0.2610
  17 C10      -3.2759    -1.7515    -0.3255  C.ar    1  <O>11       0.0041
  18 C11      -3.8951    -2.0614    -1.5606  C.ar    1  <O>11      -0.0219
  19 C12      -2.9484    -2.7119    -2.3318  C.ar    1  <O>11       0.0943
  20 O4       -1.7861    -2.8257    -1.6138  O.2     1  <O>11      -0.4449
  21 C13       1.0412    -2.7024     3.0862  C.ar    1  <O>11      -0.0358
  22 C14       4.2202    -0.0251     4.9315  C.ar    1  <O>11      -0.0158
  23 C15       5.4039     0.4308     4.3283  C.ar    1  <O>11       0.0232
  24 C16       6.1641     1.6216     4.8468  C.3     1  <O>11      -0.0222
  25 C17       5.7865     1.9954     6.2785  C.3     1  <O>11      -0.0486
  26 C18       4.2731     2.0252     6.4337  C.3     1  <O>11      -0.0487
  27 C19       3.6796     0.6416     6.1699  C.3     1  <O>11      -0.0255
  28 H1        5.5438    -1.7235     1.8081  H       1  <O>11       0.1921
  29 H2        1.5960    -0.9580     4.9740  H       1  <O>11       0.0377
  30 H3        2.5980    -2.0340     5.9780  H       1  <O>11       0.0377
  31 H4       -0.5674    -4.4260     0.6714  H       1  <O>11       0.1738
  32 H5        7.2294     1.3927     4.8175  H       1  <O>11       0.0315
  33 H6        5.9571     2.4739     4.1996  H       1  <O>11       0.0315
  34 H7        6.2039     1.2585     6.9646  H       1  <O>11       0.0269
  35 H8        6.1914     2.9801     6.5118  H       1  <O>11       0.0269
  36 H9        4.0229     2.3350     7.4484  H       1  <O>11       0.0268
  37 H10       3.8538     2.7366     5.7222  H       1  <O>11       0.0268
  38 H11       3.8988     0.0045     7.0267  H       1  <O>11       0.0314
  39 H12       2.6001     0.7458     6.0607  H       1  <O>11       0.0314
  40 H13       3.0608    -4.3070     5.2421  H       1  <O>11       0.0620
  41 H14       2.3497    -6.2087     3.9092  H       1  <O>11       0.0618
  42 H15       0.8118    -5.8925     2.0528  H       1  <O>11       0.0636
  43 H16      -3.6904    -1.2580     0.4806  H       1  <O>11       0.0670
  44 H17      -4.8663    -1.8437    -1.8333  H       1  <O>11       0.0650
  45 H18      -3.0939    -3.0563    -3.2937  H       1  <O>11       0.1030
  46 H19       0.6799    -1.7613     2.8647  H       1  <O>11       0.0639
@<TRIPOS>BOND
     1     1     2    2
     2     2     3   ar
     3     3     4   ar
     4     4     5   ar
     5     5     6    1
     6     6     7    1
     7     7     8   ar
     8     8     9   ar
     9     9    10   ar
    10    10    11   ar
    11    11    12    1
    12    12    13    1
    13    13    14    2
    14    13    15    2
    15    13    16    1
    16    16    17   ar
    17    17    18   ar
    18    18    19   ar
    19    19    20   ar
    20    16    20   ar
    21    11    21   ar
    22     7    21   ar
    23     5    22   ar
    24    22    23   ar
    25     2    23   ar
    26    23    24    1
    27    24    25    1
    28    25    26    1
    29    26    27    1
    30    22    27    1
    31     3    28    1
    32     6    29    1
    33     6    30    1
    34    12    31    1
    35    24    32    1
    36    24    33    1
    37    25    34    1
    38    25    35    1
    39    26    36    1
    40    26    37    1
    41    27    38    1
    42    27    39    1
    43     8    40    1
    44     9    41    1
    45    10    42    1
    46    17    43    1
    47    18    44    1
    48    19    45    1
    49    21    46    1
@<TRIPOS>MOLECULE
mol86_2_13
 46 49 0 0 0
SMALL
USER_CHARGES
****
VDW energy = -56.70
@<TRIPOS>ATOM
   1 O1        6.9878     0.1985     2.5155  O.2     1  <O>11      -0.2661
   2 C1        5.8255    -0.2285     3.1857  C.ar    1  <O>11       0.2682
   3 N1        5.1910    -1.2820     2.6452  N.ar    1  <O>11      -0.2427
   4 N2        4.0648    -1.7438     3.2451  N.ar    1  <O>11      -0.1753
   5 C2        3.6029    -1.1357     4.3580  C.ar    1  <O>11       0.0693
   6 C3        2.3840    -1.7110     4.9590  C.3     1  <O>11       0.0168
   7 C4        2.7646    -2.7510     5.9510  C.ar    1  <O>11      -0.0397
   8 C5        2.9777    -2.4020     7.2963  C.ar    1  <O>11      -0.0581
   9 C6        3.3478    -3.3803     8.2269  C.ar    1  <O>11      -0.0597
  10 C7        3.5036    -4.7098     7.8263  C.ar    1  <O>11      -0.0393
  11 C8        3.2840    -5.0566     6.4887  C.ar    1  <O>11       0.0484
  12 N3        3.4452    -6.4286     6.0815  N.pl3   1  <O>11      -0.2135
  13 S1        3.1908    -6.8592     4.5073  S.O2    1  <O>11       0.1056
  14 O2        4.3300    -6.1284     3.5421  O.2     1  <O>11      -0.1470
  15 O3        1.6729    -6.3728     4.0365  O.2     1  <O>11      -0.1470
  16 C9        3.3232    -8.6194     4.3458  C.ar    1  <O>11       0.2610
  17 C10       2.3657    -9.3704     3.8218  C.ar    1  <O>11       0.0041
  18 C11       2.8668   -10.6930     3.8896  C.ar    1  <O>11      -0.0219
  19 C12       4.1278   -10.6159     4.4535  C.ar    1  <O>11       0.0943
  20 O4        4.4087    -9.3064     4.7465  O.2     1  <O>11      -0.4449
  21 C13       2.9127    -4.0901     5.5536  C.ar    1  <O>11      -0.0358
  22 C14       4.2202    -0.0251     4.9315  C.ar    1  <O>11      -0.0158
  23 C15       5.4039     0.4308     4.3283  C.ar    1  <O>11       0.0232
  24 C16       6.1641     1.6216     4.8468  C.3     1  <O>11      -0.0222
  25 C17       5.7865     1.9954     6.2785  C.3     1  <O>11      -0.0486
  26 C18       4.2731     2.0252     6.4337  C.3     1  <O>11      -0.0487
  27 C19       3.6796     0.6416     6.1699  C.3     1  <O>11      -0.0255
  28 H1        5.5438    -1.7235     1.8081  H       1  <O>11       0.1921
  29 H2        1.7715    -2.1615     4.1779  H       1  <O>11       0.0377
  30 H3        1.8173    -0.9241     5.4572  H       1  <O>11       0.0377
  31 H4        3.7161    -7.1357     6.7656  H       1  <O>11       0.1738
  32 H5        7.2294     1.3927     4.8175  H       1  <O>11       0.0315
  33 H6        5.9571     2.4739     4.1996  H       1  <O>11       0.0315
  34 H7        6.2039     1.2585     6.9646  H       1  <O>11       0.0269
  35 H8        6.1914     2.9801     6.5118  H       1  <O>11       0.0269
  36 H9        4.0229     2.3350     7.4484  H       1  <O>11       0.0268
  37 H10       3.8538     2.7366     5.7222  H       1  <O>11       0.0268
  38 H11       3.8988     0.0045     7.0267  H       1  <O>11       0.0314
  39 H12       2.6001     0.7458     6.0607  H       1  <O>11       0.0314
  40 H13       2.8610    -1.4222     7.5984  H       1  <O>11       0.0620
  41 H14       3.5060    -3.1184     9.2125  H       1  <O>11       0.0618
  42 H15       3.7785    -5.4305     8.5118  H       1  <O>11       0.0636
  43 H16       1.4556    -9.0600     3.4470  H       1  <O>11       0.0670
  44 H17       2.3839   -11.5503     3.5782  H       1  <O>11       0.0650
  45 H18       4.7564   -11.4160     4.6258  H       1  <O>11       0.1030
  46 H19       2.7471    -4.3587     4.5710  H       1  <O>11       0.0639
@<TRIPOS>BOND
     1     1     2    2
     2     2     3   ar
     3     3     4   ar
     4     4     5   ar
     5     5     6    1
     6     6     7    1
     7     7     8   ar
     8     8     9   ar
     9     9    10   ar
    10    10    11   ar
    11    11    12    1
    12    12    13    1
    13    13    14    2
    14    13    15    2
    15    13    16    1
    16    16    17   ar
    17    17    18   ar
    18    18    19   ar
    19    19    20   ar
    20    16    20   ar
    21    11    21   ar
    22     7    21   ar
    23     5    22   ar
    24    22    23   ar
    25     2    23   ar
    26    23    24    1
    27    24    25    1
    28    25    26    1
    29    26    27    1
    30    22    27    1
    31     3    28    1
    32     6    29    1
    33     6    30    1
    34    12    31    1
    35    24    32    1
    36    24    33    1
    37    25    34    1
    38    25    35    1
    39    26    36    1
    40    26    37    1
    41    27    38    1
    42    27    39    1
    43     8    40    1
    44     9    41    1
    45    10    42    1
    46    17    43    1
    47    18    44    1
    48    19    45    1
    49    21    46    1
@<TRIPOS>MOLECULE
mol86_2_14
 46 49 0 0 0
SMALL
USER_CHARGES
****
VDW energy = -55.55
@<TRIPOS>ATOM
   1 O1        6.9878     0.1985     2.5155  O.2     1  <O>11      -0.2661
   2 C1        5.8255    -0.2285     3.1857  C.ar    1  <O>11       0.2682
   3 N1        5.1910    -1.2820     2.6452  N.ar    1  <O>11      -0.2427
   4 N2        4.0648    -1.7438     3.2451  N.ar    1  <O>11      -0.1753
   5 C2        3.6029    -1.1357     4.3580  C.ar    1  <O>11       0.0693
   6 C3        2.3840    -1.7110     4.9590  C.3     1  <O>11       0.0168
   7 C4        1.1856    -1.0570     4.3702  C.ar    1  <O>11      -0.0397
   8 C5        0.6468     0.0987     4.9626  C.ar    1  <O>11      -0.0581
   9 C6       -0.4889     0.7065     4.4141  C.ar    1  <O>11      -0.0597
  10 C7       -1.0915     0.1716     3.2725  C.ar    1  <O>11      -0.0393
  11 C8       -0.5497    -0.9743     2.6800  C.ar    1  <O>11       0.0484
  12 N3       -1.1745    -1.5209     1.5031  N.pl3   1  <O>11      -0.2135
  13 S1       -2.3666    -2.6545     1.6507  S.O2    1  <O>11       0.1056
  14 O2       -3.6871    -1.9754     2.3982  O.2     1  <O>11      -0.1470
  15 O3       -1.8113    -3.9298     2.5603  O.2     1  <O>11      -0.1470
  16 C9       -2.8339    -3.2356     0.0426  C.ar    1  <O>11       0.2610
  17 C10      -2.8242    -4.5173    -0.2929  C.ar    1  <O>11       0.0041
  18 C11      -3.2508    -4.5401    -1.6429  C.ar    1  <O>11      -0.0219
  19 C12      -3.5011    -3.2289    -2.0067  C.ar    1  <O>11       0.0943
  20 O4       -3.2296    -2.4085    -0.9424  O.2     1  <O>11      -0.4449
  21 C13       0.5829    -1.5866     3.2172  C.ar    1  <O>11      -0.0358
  22 C14       4.2202    -0.0251     4.9315  C.ar    1  <O>11      -0.0158
  23 C15       5.4039     0.4308     4.3283  C.ar    1  <O>11       0.0232
  24 C16       6.1641     1.6216     4.8468  C.3     1  <O>11      -0.0222
  25 C17       5.7865     1.9954     6.2785  C.3     1  <O>11      -0.0486
  26 C18       4.2731     2.0252     6.4337  C.3     1  <O>11      -0.0487
  27 C19       3.6796     0.6416     6.1699  C.3     1  <O>11      -0.0255
  28 H1        5.5438    -1.7235     1.8081  H       1  <O>11       0.1921
  29 H2        2.3962    -1.5438     6.0361  H       1  <O>11       0.0377
  30 H3        2.3491    -2.7818     4.7574  H       1  <O>11       0.0377
  31 H4       -0.8803    -1.2086     0.5772  H       1  <O>11       0.1738
  32 H5        7.2294     1.3927     4.8175  H       1  <O>11       0.0315
  33 H6        5.9571     2.4739     4.1996  H       1  <O>11       0.0315
  34 H7        6.2039     1.2585     6.9646  H       1  <O>11       0.0269
  35 H8        6.1914     2.9801     6.5118  H       1  <O>11       0.0269
  36 H9        4.0229     2.3350     7.4484  H       1  <O>11       0.0268
  37 H10       3.8538     2.7366     5.7222  H       1  <O>11       0.0268
  38 H11       3.8988     0.0045     7.0267  H       1  <O>11       0.0314
  39 H12       2.6001     0.7458     6.0607  H       1  <O>11       0.0314
  40 H13       1.0896     0.4999     5.8040  H       1  <O>11       0.0620
  41 H14      -0.8823     1.5529     4.8544  H       1  <O>11       0.0618
  42 H15      -1.9299     0.6184     2.8695  H       1  <O>11       0.0636
  43 H16      -2.5633    -5.3215     0.2990  H       1  <O>11       0.0670
  44 H17      -3.3551    -5.3747    -2.2408  H       1  <O>11       0.0650
  45 H18      -3.8382    -2.9182    -2.9313  H       1  <O>11       0.1030
  46 H19       0.9776    -2.4277     2.7678  H       1  <O>11       0.0639
@<TRIPOS>BOND
     1     1     2    2
     2     2     3   ar
     3     3     4   ar
     4     4     5   ar
     5     5     6    1
     6     6     7    1
     7     7     8   ar
     8     8     9   ar
     9     9    10   ar
    10    10    11   ar
    11    11    12    1
    12    12    13    1
    13    13    14    2
    14    13    15    2
    15    13    16    1
    16    16    17   ar
    17    17    18   ar
    18    18    19   ar
    19    19    20   ar
    20    16    20   ar
    21    11    21   ar
    22     7    21   ar
    23     5    22   ar
    24    22    23   ar
    25     2    23   ar
    26    23    24    1
    27    24    25    1
    28    25    26    1
    29    26    27    1
    30    22    27    1
    31     3    28    1
    32     6    29    1
    33     6    30    1
    34    12    31    1
    35    24    32    1
    36    24    33    1
    37    25    34    1
    38    25    35    1
    39    26    36    1
    40    26    37    1
    41    27    38    1
    42    27    39    1
    43     8    40    1
    44     9    41    1
    45    10    42    1
    46    17    43    1
    47    18    44    1
    48    19    45    1
    49    21    46    1
@<TRIPOS>MOLECULE
mol86_2_15
 46 49 0 0 0
SMALL
USER_CHARGES
****
VDW energy = -54.68
@<TRIPOS>ATOM
   1 O1        6.9878     0.1985     2.5155  O.2     1  <O>11      -0.2661
   2 C1        5.8255    -0.2285     3.1857  C.ar    1  <O>11       0.2682
   3 N1        5.1910    -1.2820     2.6452  N.ar    1  <O>11      -0.2427
   4 N2        4.0648    -1.7438     3.2451  N.ar    1  <O>11      -0.1753
   5 C2        3.6029    -1.1357     4.3580  C.ar    1  <O>11       0.0693
   6 C3        2.3840    -1.7110     4.9590  C.3     1  <O>11       0.0168
   7 C4        1.1856    -1.0570     4.3702  C.ar    1  <O>11      -0.0397
   8 C5        0.5830    -1.5898     3.2170  C.ar    1  <O>11      -0.0581
   9 C6       -0.5382    -0.9661     2.6567  C.ar    1  <O>11      -0.0597
  10 C7       -1.0681     0.1869     3.2418  C.ar    1  <O>11      -0.0393
  11 C8       -0.4716     0.7116     4.3935  C.ar    1  <O>11       0.0484
  12 N3       -1.0224     1.8997     4.9929  N.pl3   1  <O>11      -0.2135
  13 S1       -2.5326     1.8650     5.6607  S.O2    1  <O>11       0.1056
  14 O2       -2.5348     0.8438     6.9725  O.2     1  <O>11      -0.1470
  15 O3       -3.6261     1.3201     4.5339  O.2     1  <O>11      -0.1470
  16 C9       -2.9869     3.4967     6.1833  C.ar    1  <O>11       0.2610
  17 C10      -4.0981     4.0990     5.7859  C.ar    1  <O>11       0.0041
  18 C11      -4.0689     5.3648     6.4197  C.ar    1  <O>11      -0.0219
  19 C12      -2.9125     5.4072     7.1779  C.ar    1  <O>11       0.0943
  20 O4       -2.2291     4.2293     7.0200  O.2     1  <O>11      -0.4449
  21 C13       0.6446     0.0967     4.9613  C.ar    1  <O>11      -0.0358
  22 C14       4.2202    -0.0251     4.9315  C.ar    1  <O>11      -0.0158
  23 C15       5.4039     0.4308     4.3283  C.ar    1  <O>11       0.0232
  24 C16       6.1641     1.6216     4.8468  C.3     1  <O>11      -0.0222
  25 C17       5.7865     1.9954     6.2785  C.3     1  <O>11      -0.0486
  26 C18       4.2731     2.0252     6.4337  C.3     1  <O>11      -0.0487
  27 C19       3.6796     0.6416     6.1699  C.3     1  <O>11      -0.0255
  28 H1        5.5438    -1.7235     1.8081  H       1  <O>11       0.1921
  29 H2        2.3962    -1.5438     6.0361  H       1  <O>11       0.0377
  30 H3        2.3491    -2.7818     4.7574  H       1  <O>11       0.0377
  31 H4       -0.4800     2.7641     5.0045  H       1  <O>11       0.1738
  32 H5        7.2294     1.3927     4.8175  H       1  <O>11       0.0315
  33 H6        5.9571     2.4739     4.1996  H       1  <O>11       0.0315
  34 H7        6.2039     1.2585     6.9646  H       1  <O>11       0.0269
  35 H8        6.1914     2.9801     6.5118  H       1  <O>11       0.0269
  36 H9        4.0229     2.3350     7.4484  H       1  <O>11       0.0268
  37 H10       3.8538     2.7366     5.7222  H       1  <O>11       0.0268
  38 H11       3.8988     0.0045     7.0267  H       1  <O>11       0.0314
  39 H12       2.6001     0.7458     6.0607  H       1  <O>11       0.0314
  40 H13       0.9682    -2.4429     2.7824  H       1  <O>11       0.0620
  41 H14      -0.9749    -1.3594     1.8084  H       1  <O>11       0.0618
  42 H15      -1.8932     0.6480     2.8275  H       1  <O>11       0.0636
  43 H16      -4.8245     3.7275     5.1539  H       1  <O>11       0.0670
  44 H17      -4.7750     6.1125     6.3328  H       1  <O>11       0.0650
  45 H18      -2.6123     6.1989     7.7680  H       1  <O>11       0.1030
  46 H19       1.0723     0.4890     5.8147  H       1  <O>11       0.0639
@<TRIPOS>BOND
     1     1     2    2
     2     2     3   ar
     3     3     4   ar
     4     4     5   ar
     5     5     6    1
     6     6     7    1
     7     7     8   ar
     8     8     9   ar
     9     9    10   ar
    10    10    11   ar
    11    11    12    1
    12    12    13    1
    13    13    14    2
    14    13    15    2
    15    13    16    1
    16    16    17   ar
    17    17    18   ar
    18    18    19   ar
    19    19    20   ar
    20    16    20   ar
    21    11    21   ar
    22     7    21   ar
    23     5    22   ar
    24    22    23   ar
    25     2    23   ar
    26    23    24    1
    27    24    25    1
    28    25    26    1
    29    26    27    1
    30    22    27    1
    31     3    28    1
    32     6    29    1
    33     6    30    1
    34    12    31    1
    35    24    32    1
    36    24    33    1
    37    25    34    1
    38    25    35    1
    39    26    36    1
    40    26    37    1
    41    27    38    1
    42    27    39    1
    43     8    40    1
    44     9    41    1
    45    10    42    1
    46    17    43    1
    47    18    44    1
    48    19    45    1
    49    21    46    1
@<TRIPOS>MOLECULE
mol86_2_16
 46 49 0 0 0
SMALL
USER_CHARGES
****
VDW energy = -53.13
@<TRIPOS>ATOM
   1 O1        6.9878     0.1985     2.5155  O.2     1  <O>11      -0.2661
   2 C1        5.8255    -0.2285     3.1857  C.ar    1  <O>11       0.2682
   3 N1        5.1910    -1.2820     2.6452  N.ar    1  <O>11      -0.2427
   4 N2        4.0648    -1.7438     3.2451  N.ar    1  <O>11      -0.1753
   5 C2        3.6029    -1.1357     4.3580  C.ar    1  <O>11       0.0693
   6 C3        2.3840    -1.7110     4.9590  C.3     1  <O>11       0.0168
   7 C4        1.9380    -2.8780     4.1530  C.ar    1  <O>11      -0.0397
   8 C5        2.7856    -3.9869     3.9833  C.ar    1  <O>11      -0.0581
   9 C6        2.3691    -5.0800     3.2142  C.ar    1  <O>11      -0.0597
  10 C7        1.1073    -5.0782     2.6138  C.ar    1  <O>11      -0.0393
  11 C8        0.2622    -3.9770     2.7896  C.ar    1  <O>11       0.0484
  12 N3       -1.0375    -3.9808     2.1692  N.pl3   1  <O>11      -0.2135
  13 S1       -2.0507    -2.6912     2.3646  S.O2    1  <O>11       0.1056
  14 O2       -1.3837    -1.3489     1.6456  O.2     1  <O>11      -0.1470
  15 O3       -2.2712    -2.3983     3.9856  O.2     1  <O>11      -0.1470
  16 C9       -3.6151    -3.0473     1.6110  C.ar    1  <O>11       0.2610
  17 C10      -4.7653    -2.9708     2.2641  C.ar    1  <O>11       0.0041
  18 C11      -5.7464    -3.3372     1.3111  C.ar    1  <O>11      -0.0219
  19 C12      -5.0788    -3.5961     0.1273  C.ar    1  <O>11       0.0943
  20 O4       -3.7335    -3.4191     0.3230  O.2     1  <O>11      -0.4449
  21 C13       0.6665    -2.8836     3.5560  C.ar    1  <O>11      -0.0358
  22 C14       4.2202    -0.0251     4.9315  C.ar    1  <O>11      -0.0158
  23 C15       5.4039     0.4308     4.3283  C.ar    1  <O>11       0.0232
  24 C16       6.1641     1.6216     4.8468  C.3     1  <O>11      -0.0222
  25 C17       5.7865     1.9954     6.2785  C.3     1  <O>11      -0.0486
  26 C18       4.2731     2.0252     6.4337  C.3     1  <O>11      -0.0487
  27 C19       3.6796     0.6416     6.1699  C.3     1  <O>11      -0.0255
  28 H1        5.5438    -1.7235     1.8081  H       1  <O>11       0.1921
  29 H2        1.5960    -0.9580     4.9740  H       1  <O>11       0.0377
  30 H3        2.5980    -2.0340     5.9780  H       1  <O>11       0.0377
  31 H4       -1.3334    -4.7808     1.6090  H       1  <O>11       0.1738
  32 H5        7.2294     1.3927     4.8175  H       1  <O>11       0.0315
  33 H6        5.9571     2.4739     4.1996  H       1  <O>11       0.0315
  34 H7        6.2039     1.2585     6.9646  H       1  <O>11       0.0269
  35 H8        6.1914     2.9801     6.5118  H       1  <O>11       0.0269
  36 H9        4.0229     2.3350     7.4484  H       1  <O>11       0.0268
  37 H10       3.8538     2.7366     5.7222  H       1  <O>11       0.0268
  38 H11       3.8988     0.0045     7.0267  H       1  <O>11       0.0314
  39 H12       2.6001     0.7458     6.0607  H       1  <O>11       0.0314
  40 H13       3.7173    -3.9951     4.4271  H       1  <O>11       0.0620
  41 H14       2.9962    -5.8901     3.0902  H       1  <O>11       0.0618
  42 H15       0.8011    -5.8829     2.0450  H       1  <O>11       0.0636
  43 H16      -4.9134    -2.7031     3.2497  H       1  <O>11       0.0670
  44 H17      -6.7643    -3.3993     1.4693  H       1  <O>11       0.0650
  45 H18      -5.5226    -3.8775    -0.7609  H       1  <O>11       0.1030
  46 H19       0.0321    -2.0797     3.6841  H       1  <O>11       0.0639
@<TRIPOS>BOND
     1     1     2    2
     2     2     3   ar
     3     3     4   ar
     4     4     5   ar
     5     5     6    1
     6     6     7    1
     7     7     8   ar
     8     8     9   ar
     9     9    10   ar
    10    10    11   ar
    11    11    12    1
    12    12    13    1
    13    13    14    2
    14    13    15    2
    15    13    16    1
    16    16    17   ar
    17    17    18   ar
    18    18    19   ar
    19    19    20   ar
    20    16    20   ar
    21    11    21   ar
    22     7    21   ar
    23     5    22   ar
    24    22    23   ar
    25     2    23   ar
    26    23    24    1
    27    24    25    1
    28    25    26    1
    29    26    27    1
    30    22    27    1
    31     3    28    1
    32     6    29    1
    33     6    30    1
    34    12    31    1
    35    24    32    1
    36    24    33    1
    37    25    34    1
    38    25    35    1
    39    26    36    1
    40    26    37    1
    41    27    38    1
    42    27    39    1
    43     8    40    1
    44     9    41    1
    45    10    42    1
    46    17    43    1
    47    18    44    1
    48    19    45    1
    49    21    46    1
@<TRIPOS>MOLECULE
mol86_2_17
 46 49 0 0 0
SMALL
USER_CHARGES
****
VDW energy = -50.84
@<TRIPOS>ATOM
   1 O1        6.9878     0.1985     2.5155  O.2     1  <O>11      -0.2661
   2 C1        5.8255    -0.2285     3.1857  C.ar    1  <O>11       0.2682
   3 N1        5.1910    -1.2820     2.6452  N.ar    1  <O>11      -0.2427
   4 N2        4.0648    -1.7438     3.2451  N.ar    1  <O>11      -0.1753
   5 C2        3.6029    -1.1357     4.3580  C.ar    1  <O>11       0.0693
   6 C3        2.3840    -1.7110     4.9590  C.3     1  <O>11       0.0168
   7 C4        1.9380    -2.8780     4.1530  C.ar    1  <O>11      -0.0397
   8 C5        1.0416    -2.6996     3.0846  C.ar    1  <O>11      -0.0581
   9 C6        0.6131    -3.8010     2.3341  C.ar    1  <O>11      -0.0597
  10 C7        1.0764    -5.0836     2.6388  C.ar    1  <O>11      -0.0393
  11 C8        1.9741    -5.2584     3.6976  C.ar    1  <O>11       0.0484
  12 N3        2.4490    -6.5825     4.0068  N.pl3   1  <O>11      -0.2135
  13 S1        3.5094    -6.8106     5.2524  S.O2    1  <O>11       0.1056
  14 O2        4.8976    -5.9429     4.9640  O.2     1  <O>11      -0.1470
  15 O3        3.8822    -8.4255     5.3761  O.2     1  <O>11      -0.1470
  16 C9        2.7724    -6.2573     6.7666  C.ar    1  <O>11       0.2610
  17 C10       2.6599    -7.0277     7.8386  C.ar    1  <O>11       0.0041
  18 C11       2.0187    -6.2128     8.8029  C.ar    1  <O>11      -0.0219
  19 C12       1.8087    -4.9802     8.2106  C.ar    1  <O>11       0.0943
  20 O4        2.2791    -5.0151     6.9234  O.2     1  <O>11      -0.4449
  21 C13       2.4092    -4.1674     4.4505  C.ar    1  <O>11      -0.0358
  22 C14       4.2202    -0.0251     4.9315  C.ar    1  <O>11      -0.0158
  23 C15       5.4039     0.4308     4.3283  C.ar    1  <O>11       0.0232
  24 C16       6.1641     1.6216     4.8468  C.3     1  <O>11      -0.0222
  25 C17       5.7865     1.9954     6.2785  C.3     1  <O>11      -0.0486
  26 C18       4.2731     2.0252     6.4337  C.3     1  <O>11      -0.0487
  27 C19       3.6796     0.6416     6.1699  C.3     1  <O>11      -0.0255
  28 H1        5.5438    -1.7235     1.8081  H       1  <O>11       0.1921
  29 H2        1.5960    -0.9580     4.9740  H       1  <O>11       0.0377
  30 H3        2.5980    -2.0340     5.9780  H       1  <O>11       0.0377
  31 H4        2.1311    -7.3804     3.4558  H       1  <O>11       0.1738
  32 H5        7.2294     1.3927     4.8175  H       1  <O>11       0.0315
  33 H6        5.9571     2.4739     4.1996  H       1  <O>11       0.0315
  34 H7        6.2039     1.2585     6.9646  H       1  <O>11       0.0269
  35 H8        6.1914     2.9801     6.5118  H       1  <O>11       0.0269
  36 H9        4.0229     2.3350     7.4484  H       1  <O>11       0.0268
  37 H10       3.8538     2.7366     5.7222  H       1  <O>11       0.0268
  38 H11       3.8988     0.0045     7.0267  H       1  <O>11       0.0314
  39 H12       2.6001     0.7458     6.0607  H       1  <O>11       0.0314
  40 H13       0.6985    -1.7542     2.8531  H       1  <O>11       0.0620
  41 H14      -0.0474    -3.6651     1.5528  H       1  <O>11       0.0618
  42 H15       0.7588    -5.8958     2.0870  H       1  <O>11       0.0636
  43 H16       2.9710    -8.0057     7.9470  H       1  <O>11       0.0670
  44 H17       1.7580    -6.4859     9.7633  H       1  <O>11       0.0650
  45 H18       1.3683    -4.1650     8.6651  H       1  <O>11       0.1030
  46 H19       3.0765    -4.3076     5.2252  H       1  <O>11       0.0639
@<TRIPOS>BOND
     1     1     2    2
     2     2     3   ar
     3     3     4   ar
     4     4     5   ar
     5     5     6    1
     6     6     7    1
     7     7     8   ar
     8     8     9   ar
     9     9    10   ar
    10    10    11   ar
    11    11    12    1
    12    12    13    1
    13    13    14    2
    14    13    15    2
    15    13    16    1
    16    16    17   ar
    17    17    18   ar
    18    18    19   ar
    19    19    20   ar
    20    16    20   ar
    21    11    21   ar
    22     7    21   ar
    23     5    22   ar
    24    22    23   ar
    25     2    23   ar
    26    23    24    1
    27    24    25    1
    28    25    26    1
    29    26    27    1
    30    22    27    1
    31     3    28    1
    32     6    29    1
    33     6    30    1
    34    12    31    1
    35    24    32    1
    36    24    33    1
    37    25    34    1
    38    25    35    1
    39    26    36    1
    40    26    37    1
    41    27    38    1
    42    27    39    1
    43     8    40    1
    44     9    41    1
    45    10    42    1
    46    17    43    1
    47    18    44    1
    48    19    45    1
    49    21    46    1
@<TRIPOS>MOLECULE
mol86_2_18
 46 49 0 0 0
SMALL
USER_CHARGES
****
VDW energy = -50.43
@<TRIPOS>ATOM
   1 O1        6.9878     0.1985     2.5155  O.2     1  <O>11      -0.2661
   2 C1        5.8255    -0.2285     3.1857  C.ar    1  <O>11       0.2682
   3 N1        5.1910    -1.2820     2.6452  N.ar    1  <O>11      -0.2427
   4 N2        4.0648    -1.7438     3.2451  N.ar    1  <O>11      -0.1753
   5 C2        3.6029    -1.1357     4.3580  C.ar    1  <O>11       0.0693
   6 C3        2.3840    -1.7110     4.9590  C.3     1  <O>11       0.0168
   7 C4        2.6772    -2.1503     6.3488  C.ar    1  <O>11      -0.0397
   8 C5        1.6312    -2.5391     7.2041  C.ar    1  <O>11      -0.0581
   9 C6        1.9076    -2.9411     8.5163  C.ar    1  <O>11      -0.0597
  10 C7        3.2244    -2.9627     8.9833  C.ar    1  <O>11      -0.0393
  11 C8        4.2648    -2.5825     8.1285  C.ar    1  <O>11       0.0484
  12 N3        5.6203    -2.6074     8.6148  N.pl3   1  <O>11      -0.2135
  13 S1        6.5314    -3.9755     8.4538  S.O2    1  <O>11       0.1056
  14 O2        8.0406    -3.7153     9.1003  O.2     1  <O>11      -0.1470
  15 O3        6.6783    -4.3590     6.8433  O.2     1  <O>11      -0.1470
  16 C9        5.7463    -5.3144     9.3101  C.ar    1  <O>11       0.2610
  17 C10       5.4430    -6.4650     8.7276  C.ar    1  <O>11       0.0041
  18 C11       4.8336    -7.2359     9.7471  C.ar    1  <O>11      -0.0219
  19 C12       4.8376    -6.4606    10.8929  C.ar    1  <O>11       0.0943
  20 O4        5.4078    -5.2462    10.6108  O.2     1  <O>11      -0.4449
  21 C13       4.0007    -2.1824     6.8184  C.ar    1  <O>11      -0.0358
  22 C14       4.2202    -0.0251     4.9315  C.ar    1  <O>11      -0.0158
  23 C15       5.4039     0.4308     4.3283  C.ar    1  <O>11       0.0232
  24 C16       6.1641     1.6216     4.8468  C.3     1  <O>11      -0.0222
  25 C17       5.7865     1.9954     6.2785  C.3     1  <O>11      -0.0486
  26 C18       4.2731     2.0252     6.4337  C.3     1  <O>11      -0.0487
  27 C19       3.6796     0.6416     6.1699  C.3     1  <O>11      -0.0255
  28 H1        5.5438    -1.7235     1.8081  H       1  <O>11       0.1921
  29 H2        2.0574    -2.5674     4.3691  H       1  <O>11       0.0377
  30 H3        1.5956    -0.9582     4.9749  H       1  <O>11       0.0377
  31 H4        6.0182    -1.7798     9.0599  H       1  <O>11       0.1738
  32 H5        7.2294     1.3927     4.8175  H       1  <O>11       0.0315
  33 H6        5.9571     2.4739     4.1996  H       1  <O>11       0.0315
  34 H7        6.2039     1.2585     6.9646  H       1  <O>11       0.0269
  35 H8        6.1914     2.9801     6.5118  H       1  <O>11       0.0269
  36 H9        4.0229     2.3350     7.4484  H       1  <O>11       0.0268
  37 H10       3.8538     2.7366     5.7222  H       1  <O>11       0.0268
  38 H11       3.8988     0.0045     7.0267  H       1  <O>11       0.0314
  39 H12       2.6001     0.7458     6.0607  H       1  <O>11       0.0314
  40 H13       0.6570    -2.5281     6.8636  H       1  <O>11       0.0620
  41 H14       1.1359    -3.2225     9.1411  H       1  <O>11       0.0618
  42 H15       3.4280    -3.2568     9.9513  H       1  <O>11       0.0636
  43 H16       5.6133    -6.7390     7.7473  H       1  <O>11       0.0670
  44 H17       4.4583    -8.1927     9.6534  H       1  <O>11       0.0650
  45 H18       4.4703    -6.7501    11.8128  H       1  <O>11       0.1030
  46 H19       4.7768    -1.9103     6.1949  H       1  <O>11       0.0639
@<TRIPOS>BOND
     1     1     2    2
     2     2     3   ar
     3     3     4   ar
     4     4     5   ar
     5     5     6    1
     6     6     7    1
     7     7     8   ar
     8     8     9   ar
     9     9    10   ar
    10    10    11   ar
    11    11    12    1
    12    12    13    1
    13    13    14    2
    14    13    15    2
    15    13    16    1
    16    16    17   ar
    17    17    18   ar
    18    18    19   ar
    19    19    20   ar
    20    16    20   ar
    21    11    21   ar
    22     7    21   ar
    23     5    22   ar
    24    22    23   ar
    25     2    23   ar
    26    23    24    1
    27    24    25    1
    28    25    26    1
    29    26    27    1
    30    22    27    1
    31     3    28    1
    32     6    29    1
    33     6    30    1
    34    12    31    1
    35    24    32    1
    36    24    33    1
    37    25    34    1
    38    25    35    1
    39    26    36    1
    40    26    37    1
    41    27    38    1
    42    27    39    1
    43     8    40    1
    44     9    41    1
    45    10    42    1
    46    17    43    1
    47    18    44    1
    48    19    45    1
    49    21    46    1
@<TRIPOS>MOLECULE
mol86_2_19
 46 49 0 0 0
SMALL
USER_CHARGES
****
VDW energy = -49.14
@<TRIPOS>ATOM
   1 O1        6.9878     0.1985     2.5155  O.2     1  <O>11      -0.2661
   2 C1        5.8255    -0.2285     3.1857  C.ar    1  <O>11       0.2682
   3 N1        5.1910    -1.2820     2.6452  N.ar    1  <O>11      -0.2427
   4 N2        4.0648    -1.7438     3.2451  N.ar    1  <O>11      -0.1753
   5 C2        3.6029    -1.1357     4.3580  C.ar    1  <O>11       0.0693
   6 C3        2.3840    -1.7110     4.9590  C.3     1  <O>11       0.0168
   7 C4        2.6772    -2.1503     6.3488  C.ar    1  <O>11      -0.0397
   8 C5        1.6312    -2.5391     7.2041  C.ar    1  <O>11      -0.0581
   9 C6        1.9076    -2.9411     8.5163  C.ar    1  <O>11      -0.0597
  10 C7        3.2244    -2.9627     8.9833  C.ar    1  <O>11      -0.0393
  11 C8        4.2648    -2.5825     8.1285  C.ar    1  <O>11       0.0484
  12 N3        5.6203    -2.6074     8.6148  N.pl3   1  <O>11      -0.2135
  13 S1        6.5314    -3.9755     8.4538  S.O2    1  <O>11       0.1056
  14 O2        6.7904    -4.2818     6.8405  O.2     1  <O>11      -0.1470
  15 O3        5.7305    -5.2605     9.1391  O.2     1  <O>11      -0.1470
  16 C9        8.0895    -3.7489     9.2681  C.ar    1  <O>11       0.2610
  17 C10       8.5436    -4.5735    10.2004  C.ar    1  <O>11       0.0041
  18 C11       9.7940    -4.0310    10.5840  C.ar    1  <O>11      -0.0219
  19 C12       9.9938    -2.8996     9.8131  C.ar    1  <O>11       0.0943
  20 O4        8.9125    -2.7213     8.9895  O.2     1  <O>11      -0.4449
  21 C13       4.0007    -2.1824     6.8184  C.ar    1  <O>11      -0.0358
  22 C14       4.2202    -0.0251     4.9315  C.ar    1  <O>11      -0.0158
  23 C15       5.4039     0.4308     4.3283  C.ar    1  <O>11       0.0232
  24 C16       6.1641     1.6216     4.8468  C.3     1  <O>11      -0.0222
  25 C17       5.7865     1.9954     6.2785  C.3     1  <O>11      -0.0486
  26 C18       4.2731     2.0252     6.4337  C.3     1  <O>11      -0.0487
  27 C19       3.6796     0.6416     6.1699  C.3     1  <O>11      -0.0255
  28 H1        5.5438    -1.7235     1.8081  H       1  <O>11       0.1921
  29 H2        2.0574    -2.5674     4.3691  H       1  <O>11       0.0377
  30 H3        1.5956    -0.9582     4.9749  H       1  <O>11       0.0377
  31 H4        6.0182    -1.7798     9.0599  H       1  <O>11       0.1738
  32 H5        7.2294     1.3927     4.8175  H       1  <O>11       0.0315
  33 H6        5.9571     2.4739     4.1996  H       1  <O>11       0.0315
  34 H7        6.2039     1.2585     6.9646  H       1  <O>11       0.0269
  35 H8        6.1914     2.9801     6.5118  H       1  <O>11       0.0269
  36 H9        4.0229     2.3350     7.4484  H       1  <O>11       0.0268
  37 H10       3.8538     2.7366     5.7222  H       1  <O>11       0.0268
  38 H11       3.8988     0.0045     7.0267  H       1  <O>11       0.0314
  39 H12       2.6001     0.7458     6.0607  H       1  <O>11       0.0314
  40 H13       0.6570    -2.5281     6.8636  H       1  <O>11       0.0620
  41 H14       1.1359    -3.2225     9.1411  H       1  <O>11       0.0618
  42 H15       3.4280    -3.2568     9.9513  H       1  <O>11       0.0636
  43 H16       8.0868    -5.4236    10.5663  H       1  <O>11       0.0670
  44 H17      10.4336    -4.4073    11.3011  H       1  <O>11       0.0650
  45 H18      10.8240    -2.2879     9.8519  H       1  <O>11       0.1030
  46 H19       4.7768    -1.9103     6.1949  H       1  <O>11       0.0639
@<TRIPOS>BOND
     1     1     2    2
     2     2     3   ar
     3     3     4   ar
     4     4     5   ar
     5     5     6    1
     6     6     7    1
     7     7     8   ar
     8     8     9   ar
     9     9    10   ar
    10    10    11   ar
    11    11    12    1
    12    12    13    1
    13    13    14    2
    14    13    15    2
    15    13    16    1
    16    16    17   ar
    17    17    18   ar
    18    18    19   ar
    19    19    20   ar
    20    16    20   ar
    21    11    21   ar
    22     7    21   ar
    23     5    22   ar
    24    22    23   ar
    25     2    23   ar
    26    23    24    1
    27    24    25    1
    28    25    26    1
    29    26    27    1
    30    22    27    1
    31     3    28    1
    32     6    29    1
    33     6    30    1
    34    12    31    1
    35    24    32    1
    36    24    33    1
    37    25    34    1
    38    25    35    1
    39    26    36    1
    40    26    37    1
    41    27    38    1
    42    27    39    1
    43     8    40    1
    44     9    41    1
    45    10    42    1
    46    17    43    1
    47    18    44    1
    48    19    45    1
    49    21    46    1
@<TRIPOS>MOLECULE
mol86_2_20
 46 49 0 0 0
SMALL
USER_CHARGES
****
VDW energy = -48.19
@<TRIPOS>ATOM
   1 O1        6.9878     0.1985     2.5155  O.2     1  <O>11      -0.2661
   2 C1        5.8255    -0.2285     3.1857  C.ar    1  <O>11       0.2682
   3 N1        5.1910    -1.2820     2.6452  N.ar    1  <O>11      -0.2427
   4 N2        4.0648    -1.7438     3.2451  N.ar    1  <O>11      -0.1753
   5 C2        3.6029    -1.1357     4.3580  C.ar    1  <O>11       0.0693
   6 C3        2.3840    -1.7110     4.9590  C.3     1  <O>11       0.0168
   7 C4        2.6772    -2.1503     6.3488  C.ar    1  <O>11      -0.0397
   8 C5        1.6312    -2.5391     7.2041  C.ar    1  <O>11      -0.0581
   9 C6        1.9076    -2.9411     8.5163  C.ar    1  <O>11      -0.0597
  10 C7        3.2244    -2.9627     8.9833  C.ar    1  <O>11      -0.0393
  11 C8        4.2648    -2.5825     8.1285  C.ar    1  <O>11       0.0484
  12 N3        5.6203    -2.6074     8.6148  N.pl3   1  <O>11      -0.2135
  13 S1        6.0865    -1.5751     9.8169  S.O2    1  <O>11       0.1056
  14 O2        5.2643    -1.9441    11.2138  O.2     1  <O>11      -0.1470
  15 O3        5.7440    -0.0113     9.3703  O.2     1  <O>11      -0.1470
  16 C9        7.8289    -1.7407    10.0973  C.ar    1  <O>11       0.2610
  17 C10       8.6845    -2.0806     9.1445  C.ar    1  <O>11       0.0041
  18 C11       9.9469    -2.1052     9.7852  C.ar    1  <O>11      -0.0219
  19 C12       9.7335    -1.7524    11.1059  C.ar    1  <O>11       0.0943
  20 O4        8.3947    -1.5305    11.3001  O.2     1  <O>11      -0.4449
  21 C13       4.0007    -2.1824     6.8184  C.ar    1  <O>11      -0.0358
  22 C14       4.2202    -0.0251     4.9315  C.ar    1  <O>11      -0.0158
  23 C15       5.4039     0.4308     4.3283  C.ar    1  <O>11       0.0232
  24 C16       6.1641     1.6216     4.8468  C.3     1  <O>11      -0.0222
  25 C17       5.7865     1.9954     6.2785  C.3     1  <O>11      -0.0486
  26 C18       4.2731     2.0252     6.4337  C.3     1  <O>11      -0.0487
  27 C19       3.6796     0.6416     6.1699  C.3     1  <O>11      -0.0255
  28 H1        5.5438    -1.7235     1.8081  H       1  <O>11       0.1921
  29 H2        2.0574    -2.5674     4.3691  H       1  <O>11       0.0377
  30 H3        1.5956    -0.9582     4.9749  H       1  <O>11       0.0377
  31 H4        6.2936    -3.2625     8.2163  H       1  <O>11       0.1738
  32 H5        7.2294     1.3927     4.8175  H       1  <O>11       0.0315
  33 H6        5.9571     2.4739     4.1996  H       1  <O>11       0.0315
  34 H7        6.2039     1.2585     6.9646  H       1  <O>11       0.0269
  35 H8        6.1914     2.9801     6.5118  H       1  <O>11       0.0269
  36 H9        4.0229     2.3350     7.4484  H       1  <O>11       0.0268
  37 H10       3.8538     2.7366     5.7222  H       1  <O>11       0.0268
  38 H11       3.8988     0.0045     7.0267  H       1  <O>11       0.0314
  39 H12       2.6001     0.7458     6.0607  H       1  <O>11       0.0314
  40 H13       0.6570    -2.5281     6.8636  H       1  <O>11       0.0620
  41 H14       1.1359    -3.2225     9.1411  H       1  <O>11       0.0618
  42 H15       3.4280    -3.2568     9.9513  H       1  <O>11       0.0636
  43 H16       8.4766    -2.2828     8.1540  H       1  <O>11       0.0670
  44 H17      10.8527    -2.3411     9.3504  H       1  <O>11       0.0650
  45 H18      10.4651    -1.6696    11.8290  H       1  <O>11       0.1030
  46 H19       4.7768    -1.9103     6.1949  H       1  <O>11       0.0639
@<TRIPOS>BOND
     1     1     2    2
     2     2     3   ar
     3     3     4   ar
     4     4     5   ar
     5     5     6    1
     6     6     7    1
     7     7     8   ar
     8     8     9   ar
     9     9    10   ar
    10    10    11   ar
    11    11    12    1
    12    12    13    1
    13    13    14    2
    14    13    15    2
    15    13    16    1
    16    16    17   ar
    17    17    18   ar
    18    18    19   ar
    19    19    20   ar
    20    16    20   ar
    21    11    21   ar
    22     7    21   ar
    23     5    22   ar
    24    22    23   ar
    25     2    23   ar
    26    23    24    1
    27    24    25    1
    28    25    26    1
    29    26    27    1
    30    22    27    1
    31     3    28    1
    32     6    29    1
    33     6    30    1
    34    12    31    1
    35    24    32    1
    36    24    33    1
    37    25    34    1
    38    25    35    1
    39    26    36    1
    40    26    37    1
    41    27    38    1
    42    27    39    1
    43     8    40    1
    44     9    41    1
    45    10    42    1
    46    17    43    1
    47    18    44    1
    48    19    45    1
    49    21    46    1
@<TRIPOS>MOLECULE
mol86_2_21
 46 49 0 0 0
SMALL
USER_CHARGES
****
VDW energy = -47.21
@<TRIPOS>ATOM
   1 O1        6.9878     0.1985     2.5155  O.2     1  <O>11      -0.2661
   2 C1        5.8255    -0.2285     3.1857  C.ar    1  <O>11       0.2682
   3 N1        5.1910    -1.2820     2.6452  N.ar    1  <O>11      -0.2427
   4 N2        4.0648    -1.7438     3.2451  N.ar    1  <O>11      -0.1753
   5 C2        3.6029    -1.1357     4.3580  C.ar    1  <O>11       0.0693
   6 C3        2.3840    -1.7110     4.9590  C.3     1  <O>11       0.0168
   7 C4        2.6772    -2.1503     6.3488  C.ar    1  <O>11      -0.0397
   8 C5        1.6312    -2.5391     7.2041  C.ar    1  <O>11      -0.0581
   9 C6        1.9076    -2.9411     8.5163  C.ar    1  <O>11      -0.0597
  10 C7        3.2244    -2.9627     8.9833  C.ar    1  <O>11      -0.0393
  11 C8        4.2648    -2.5825     8.1285  C.ar    1  <O>11       0.0484
  12 N3        5.6203    -2.6074     8.6148  N.pl3   1  <O>11      -0.2135
  13 S1        6.5314    -3.9755     8.4538  S.O2    1  <O>11       0.1056
  14 O2        6.7904    -4.2818     6.8405  O.2     1  <O>11      -0.1470
  15 O3        5.7305    -5.2605     9.1391  O.2     1  <O>11      -0.1470
  16 C9        8.0895    -3.7489     9.2681  C.ar    1  <O>11       0.2610
  17 C10       8.2435    -2.9691    10.3281  C.ar    1  <O>11       0.0041
  18 C11       9.6190    -3.0656    10.6501  C.ar    1  <O>11      -0.0219
  19 C12      10.1855    -3.9342     9.7344  C.ar    1  <O>11       0.0943
  20 O4        9.2182    -4.3573     8.8598  O.2     1  <O>11      -0.4449
  21 C13       4.0007    -2.1824     6.8184  C.ar    1  <O>11      -0.0358
  22 C14       4.2202    -0.0251     4.9315  C.ar    1  <O>11      -0.0158
  23 C15       5.4039     0.4308     4.3283  C.ar    1  <O>11       0.0232
  24 C16       6.1641     1.6216     4.8468  C.3     1  <O>11      -0.0222
  25 C17       5.7865     1.9954     6.2785  C.3     1  <O>11      -0.0486
  26 C18       4.2731     2.0252     6.4337  C.3     1  <O>11      -0.0487
  27 C19       3.6796     0.6416     6.1699  C.3     1  <O>11      -0.0255
  28 H1        5.5438    -1.7235     1.8081  H       1  <O>11       0.1921
  29 H2        2.0574    -2.5674     4.3691  H       1  <O>11       0.0377
  30 H3        1.5956    -0.9582     4.9749  H       1  <O>11       0.0377
  31 H4        6.0182    -1.7798     9.0599  H       1  <O>11       0.1738
  32 H5        7.2294     1.3927     4.8175  H       1  <O>11       0.0315
  33 H6        5.9571     2.4739     4.1996  H       1  <O>11       0.0315
  34 H7        6.2039     1.2585     6.9646  H       1  <O>11       0.0269
  35 H8        6.1914     2.9801     6.5118  H       1  <O>11       0.0269
  36 H9        4.0229     2.3350     7.4484  H       1  <O>11       0.0268
  37 H10       3.8538     2.7366     5.7222  H       1  <O>11       0.0268
  38 H11       3.8988     0.0045     7.0267  H       1  <O>11       0.0314
  39 H12       2.6001     0.7458     6.0607  H       1  <O>11       0.0314
  40 H13       0.6570    -2.5281     6.8636  H       1  <O>11       0.0620
  41 H14       1.1359    -3.2225     9.1411  H       1  <O>11       0.0618
  42 H15       3.4280    -3.2568     9.9513  H       1  <O>11       0.0636
  43 H16       7.5206    -2.4139    10.8121  H       1  <O>11       0.0670
  44 H17      10.1057    -2.5808    11.4203  H       1  <O>11       0.0650
  45 H18      11.1774    -4.2183     9.7131  H       1  <O>11       0.1030
  46 H19       4.7768    -1.9103     6.1949  H       1  <O>11       0.0639
@<TRIPOS>BOND
     1     1     2    2
     2     2     3   ar
     3     3     4   ar
     4     4     5   ar
     5     5     6    1
     6     6     7    1
     7     7     8   ar
     8     8     9   ar
     9     9    10   ar
    10    10    11   ar
    11    11    12    1
    12    12    13    1
    13    13    14    2
    14    13    15    2
    15    13    16    1
    16    16    17   ar
    17    17    18   ar
    18    18    19   ar
    19    19    20   ar
    20    16    20   ar
    21    11    21   ar
    22     7    21   ar
    23     5    22   ar
    24    22    23   ar
    25     2    23   ar
    26    23    24    1
    27    24    25    1
    28    25    26    1
    29    26    27    1
    30    22    27    1
    31     3    28    1
    32     6    29    1
    33     6    30    1
    34    12    31    1
    35    24    32    1
    36    24    33    1
    37    25    34    1
    38    25    35    1
    39    26    36    1
    40    26    37    1
    41    27    38    1
    42    27    39    1
    43     8    40    1
    44     9    41    1
    45    10    42    1
    46    17    43    1
    47    18    44    1
    48    19    45    1
    49    21    46    1
@<TRIPOS>MOLECULE
mol86_2_22
 46 49 0 0 0
SMALL
USER_CHARGES
****
VDW energy = -41.94
@<TRIPOS>ATOM
   1 O1        6.9878     0.1985     2.5155  O.2     1  <O>11      -0.2661
   2 C1        5.8255    -0.2285     3.1857  C.ar    1  <O>11       0.2682
   3 N1        5.1910    -1.2820     2.6452  N.ar    1  <O>11      -0.2427
   4 N2        4.0648    -1.7438     3.2451  N.ar    1  <O>11      -0.1753
   5 C2        3.6029    -1.1357     4.3580  C.ar    1  <O>11       0.0693
   6 C3        2.3840    -1.7110     4.9590  C.3     1  <O>11       0.0168
   7 C4        1.1856    -1.0570     4.3702  C.ar    1  <O>11      -0.0397
   8 C5        1.0016     0.3310     4.4984  C.ar    1  <O>11      -0.0581
   9 C6       -0.1333     0.9437     3.9539  C.ar    1  <O>11      -0.0597
  10 C7       -1.0881     0.1811     3.2761  C.ar    1  <O>11      -0.0393
  11 C8       -0.8998    -1.1989     3.1431  C.ar    1  <O>11       0.0484
  12 N3       -1.8867    -1.9799     2.4429  N.pl3   1  <O>11      -0.2135
  13 S1       -3.1547    -2.6423     3.2683  S.O2    1  <O>11       0.1056
  14 O2       -4.1147    -1.4286     3.8758  O.2     1  <O>11      -0.1470
  15 O3       -2.5785    -3.5708     4.5205  O.2     1  <O>11      -0.1470
  16 C9       -4.1100    -3.6565     2.1724  C.ar    1  <O>11       0.2610
  17 C10      -4.3818    -4.9294     2.4196  C.ar    1  <O>11       0.0041
  18 C11      -5.1465    -5.3575     1.3074  C.ar    1  <O>11      -0.0219
  19 C12      -5.2832    -4.2648     0.4700  C.ar    1  <O>11       0.0943
  20 O4       -4.6214    -3.1956     1.0162  O.2     1  <O>11      -0.4449
  21 C13       0.2286    -1.8192     3.6800  C.ar    1  <O>11      -0.0358
  22 C14       4.2202    -0.0251     4.9315  C.ar    1  <O>11      -0.0158
  23 C15       5.4039     0.4308     4.3283  C.ar    1  <O>11       0.0232
  24 C16       6.1641     1.6216     4.8468  C.3     1  <O>11      -0.0222
  25 C17       5.7865     1.9954     6.2785  C.3     1  <O>11      -0.0486
  26 C18       4.2731     2.0252     6.4337  C.3     1  <O>11      -0.0487
  27 C19       3.6796     0.6416     6.1699  C.3     1  <O>11      -0.0255
  28 H1        5.5438    -1.7235     1.8081  H       1  <O>11       0.1921
  29 H2        2.3962    -1.5438     6.0361  H       1  <O>11       0.0377
  30 H3        2.3491    -2.7818     4.7574  H       1  <O>11       0.0377
  31 H4       -1.8026    -2.1251     1.4363  H       1  <O>11       0.1738
  32 H5        7.2294     1.3927     4.8175  H       1  <O>11       0.0315
  33 H6        5.9571     2.4739     4.1996  H       1  <O>11       0.0315
  34 H7        6.2039     1.2585     6.9646  H       1  <O>11       0.0269
  35 H8        6.1914     2.9801     6.5118  H       1  <O>11       0.0269
  36 H9        4.0229     2.3350     7.4484  H       1  <O>11       0.0268
  37 H10       3.8538     2.7366     5.7222  H       1  <O>11       0.0268
  38 H11       3.8988     0.0045     7.0267  H       1  <O>11       0.0314
  39 H12       2.6001     0.7458     6.0607  H       1  <O>11       0.0314
  40 H13       1.7051     0.8996     4.9952  H       1  <O>11       0.0620
  41 H14      -0.2652     1.9624     4.0534  H       1  <O>11       0.0618
  42 H15      -1.9258     0.6324     2.8766  H       1  <O>11       0.0636
  43 H16      -4.0987    -5.4860     3.2412  H       1  <O>11       0.0670
  44 H17      -5.5286    -6.3034     1.1513  H       1  <O>11       0.0650
  45 H18      -5.8006    -4.2559    -0.4229  H       1  <O>11       0.1030
  46 H19       0.3601    -2.8369     3.5701  H       1  <O>11       0.0639
@<TRIPOS>BOND
     1     1     2    2
     2     2     3   ar
     3     3     4   ar
     4     4     5   ar
     5     5     6    1
     6     6     7    1
     7     7     8   ar
     8     8     9   ar
     9     9    10   ar
    10    10    11   ar
    11    11    12    1
    12    12    13    1
    13    13    14    2
    14    13    15    2
    15    13    16    1
    16    16    17   ar
    17    17    18   ar
    18    18    19   ar
    19    19    20   ar
    20    16    20   ar
    21    11    21   ar
    22     7    21   ar
    23     5    22   ar
    24    22    23   ar
    25     2    23   ar
    26    23    24    1
    27    24    25    1
    28    25    26    1
    29    26    27    1
    30    22    27    1
    31     3    28    1
    32     6    29    1
    33     6    30    1
    34    12    31    1
    35    24    32    1
    36    24    33    1
    37    25    34    1
    38    25    35    1
    39    26    36    1
    40    26    37    1
    41    27    38    1
    42    27    39    1
    43     8    40    1
    44     9    41    1
    45    10    42    1
    46    17    43    1
    47    18    44    1
    48    19    45    1
    49    21    46    1
@<TRIPOS>MOLECULE
mol86_2_23
 46 49 0 0 0
SMALL
USER_CHARGES
****
VDW energy = -36.08
@<TRIPOS>ATOM
   1 O1        6.9878     0.1985     2.5155  O.2     1  <O>11      -0.2661
   2 C1        5.8255    -0.2285     3.1857  C.ar    1  <O>11       0.2682
   3 N1        5.1910    -1.2820     2.6452  N.ar    1  <O>11      -0.2427
   4 N2        4.0648    -1.7438     3.2451  N.ar    1  <O>11      -0.1753
   5 C2        3.6029    -1.1357     4.3580  C.ar    1  <O>11       0.0693
   6 C3        2.3840    -1.7110     4.9590  C.3     1  <O>11       0.0168
   7 C4        2.6772    -2.1503     6.3488  C.ar    1  <O>11      -0.0397
   8 C5        1.6312    -2.5391     7.2041  C.ar    1  <O>11      -0.0581
   9 C6        1.9076    -2.9411     8.5163  C.ar    1  <O>11      -0.0597
  10 C7        3.2244    -2.9627     8.9833  C.ar    1  <O>11      -0.0393
  11 C8        4.2648    -2.5825     8.1285  C.ar    1  <O>11       0.0484
  12 N3        5.6203    -2.6074     8.6148  N.pl3   1  <O>11      -0.2135
  13 S1        6.8631    -2.1629     7.6220  S.O2    1  <O>11       0.1056
  14 O2        6.7163    -0.5522     7.2379  O.2     1  <O>11      -0.1470
  15 O3        6.8143    -3.0700     6.2303  O.2     1  <O>11      -0.1470
  16 C9        8.4076    -2.4332     8.4489  C.ar    1  <O>11       0.2610
  17 C10       9.3817    -3.1706     7.9363  C.ar    1  <O>11       0.0041
  18 C11      10.4123    -3.1316     8.9065  C.ar    1  <O>11      -0.0219
  19 C12       9.9574    -2.3368     9.9434  C.ar    1  <O>11       0.0943
  20 O4        8.6892    -1.9042     9.6538  O.2     1  <O>11      -0.4449
  21 C13       4.0007    -2.1824     6.8184  C.ar    1  <O>11      -0.0358
  22 C14       4.2202    -0.0251     4.9315  C.ar    1  <O>11      -0.0158
  23 C15       5.4039     0.4308     4.3283  C.ar    1  <O>11       0.0232
  24 C16       6.1641     1.6216     4.8468  C.3     1  <O>11      -0.0222
  25 C17       5.7865     1.9954     6.2785  C.3     1  <O>11      -0.0486
  26 C18       4.2731     2.0252     6.4337  C.3     1  <O>11      -0.0487
  27 C19       3.6796     0.6416     6.1699  C.3     1  <O>11      -0.0255
  28 H1        5.5438    -1.7235     1.8081  H       1  <O>11       0.1921
  29 H2        2.0574    -2.5674     4.3691  H       1  <O>11       0.0377
  30 H3        1.5956    -0.9582     4.9749  H       1  <O>11       0.0377
  31 H4        5.8135    -2.9005     9.5730  H       1  <O>11       0.1738
  32 H5        7.2294     1.3927     4.8175  H       1  <O>11       0.0315
  33 H6        5.9571     2.4739     4.1996  H       1  <O>11       0.0315
  34 H7        6.2039     1.2585     6.9646  H       1  <O>11       0.0269
  35 H8        6.1914     2.9801     6.5118  H       1  <O>11       0.0269
  36 H9        4.0229     2.3350     7.4484  H       1  <O>11       0.0268
  37 H10       3.8538     2.7366     5.7222  H       1  <O>11       0.0268
  38 H11       3.8988     0.0045     7.0267  H       1  <O>11       0.0314
  39 H12       2.6001     0.7458     6.0607  H       1  <O>11       0.0314
  40 H13       0.6570    -2.5281     6.8636  H       1  <O>11       0.0620
  41 H14       1.1359    -3.2225     9.1411  H       1  <O>11       0.0618
  42 H15       3.4280    -3.2568     9.9513  H       1  <O>11       0.0636
  43 H16       9.3878    -3.6643     7.0301  H       1  <O>11       0.0670
  44 H17      11.3275    -3.6054     8.8507  H       1  <O>11       0.0650
  45 H18      10.4879    -2.1063    10.7981  H       1  <O>11       0.1030
  46 H19       4.7768    -1.9103     6.1949  H       1  <O>11       0.0639
@<TRIPOS>BOND
     1     1     2    2
     2     2     3   ar
     3     3     4   ar
     4     4     5   ar
     5     5     6    1
     6     6     7    1
     7     7     8   ar
     8     8     9   ar
     9     9    10   ar
    10    10    11   ar
    11    11    12    1
    12    12    13    1
    13    13    14    2
    14    13    15    2
    15    13    16    1
    16    16    17   ar
    17    17    18   ar
    18    18    19   ar
    19    19    20   ar
    20    16    20   ar
    21    11    21   ar
    22     7    21   ar
    23     5    22   ar
    24    22    23   ar
    25     2    23   ar
    26    23    24    1
    27    24    25    1
    28    25    26    1
    29    26    27    1
    30    22    27    1
    31     3    28    1
    32     6    29    1
    33     6    30    1
    34    12    31    1
    35    24    32    1
    36    24    33    1
    37    25    34    1
    38    25    35    1
    39    26    36    1
    40    26    37    1
    41    27    38    1
    42    27    39    1
    43     8    40    1
    44     9    41    1
    45    10    42    1
    46    17    43    1
    47    18    44    1
    48    19    45    1
    49    21    46    1
@<TRIPOS>MOLECULE
mol86_2_24
 46 49 0 0 0
SMALL
USER_CHARGES
****
VDW energy = -33.88
@<TRIPOS>ATOM
   1 O1        6.9878     0.1985     2.5155  O.2     1  <O>11      -0.2661
   2 C1        5.8255    -0.2285     3.1857  C.ar    1  <O>11       0.2682
   3 N1        5.1910    -1.2820     2.6452  N.ar    1  <O>11      -0.2427
   4 N2        4.0648    -1.7438     3.2451  N.ar    1  <O>11      -0.1753
   5 C2        3.6029    -1.1357     4.3580  C.ar    1  <O>11       0.0693
   6 C3        2.3840    -1.7110     4.9590  C.3     1  <O>11       0.0168
   7 C4        2.6772    -2.1503     6.3488  C.ar    1  <O>11      -0.0397
   8 C5        1.6312    -2.5391     7.2041  C.ar    1  <O>11      -0.0581
   9 C6        1.9076    -2.9411     8.5163  C.ar    1  <O>11      -0.0597
  10 C7        3.2244    -2.9627     8.9833  C.ar    1  <O>11      -0.0393
  11 C8        4.2648    -2.5825     8.1285  C.ar    1  <O>11       0.0484
  12 N3        5.6203    -2.6074     8.6148  N.pl3   1  <O>11      -0.2135
  13 S1        6.8631    -2.1625     7.6221  S.O2    1  <O>11       0.1056
  14 O2        6.7161    -0.5517     7.2385  O.2     1  <O>11      -0.1470
  15 O3        6.8144    -3.0692     6.2301  O.2     1  <O>11      -0.1470
  16 C9        8.4076    -2.4329     8.4490  C.ar    1  <O>11       0.2610
  17 C10       8.5864    -3.3868     9.3508  C.ar    1  <O>11       0.0041
  18 C11       9.9356    -3.2498     9.7581  C.ar    1  <O>11      -0.0219
  19 C12      10.4696    -2.2008     9.0311  C.ar    1  <O>11       0.0943
  20 O4        9.4999    -1.6836     8.2116  O.2     1  <O>11      -0.4449
  21 C13       4.0007    -2.1824     6.8184  C.ar    1  <O>11      -0.0358
  22 C14       4.2202    -0.0251     4.9315  C.ar    1  <O>11      -0.0158
  23 C15       5.4039     0.4308     4.3283  C.ar    1  <O>11       0.0232
  24 C16       6.1641     1.6216     4.8468  C.3     1  <O>11      -0.0222
  25 C17       5.7865     1.9954     6.2785  C.3     1  <O>11      -0.0486
  26 C18       4.2731     2.0252     6.4337  C.3     1  <O>11      -0.0487
  27 C19       3.6796     0.6416     6.1699  C.3     1  <O>11      -0.0255
  28 H1        5.5438    -1.7235     1.8081  H       1  <O>11       0.1921
  29 H2        2.0574    -2.5674     4.3691  H       1  <O>11       0.0377
  30 H3        1.5956    -0.9582     4.9749  H       1  <O>11       0.0377
  31 H4        5.8136    -2.9007     9.5729  H       1  <O>11       0.1738
  32 H5        7.2294     1.3927     4.8175  H       1  <O>11       0.0315
  33 H6        5.9571     2.4739     4.1996  H       1  <O>11       0.0315
  34 H7        6.2039     1.2585     6.9646  H       1  <O>11       0.0269
  35 H8        6.1914     2.9801     6.5118  H       1  <O>11       0.0269
  36 H9        4.0229     2.3350     7.4484  H       1  <O>11       0.0268
  37 H10       3.8538     2.7366     5.7222  H       1  <O>11       0.0268
  38 H11       3.8988     0.0045     7.0267  H       1  <O>11       0.0314
  39 H12       2.6001     0.7458     6.0607  H       1  <O>11       0.0314
  40 H13       0.6570    -2.5281     6.8636  H       1  <O>11       0.0620
  41 H14       1.1359    -3.2225     9.1411  H       1  <O>11       0.0618
  42 H15       3.4280    -3.2568     9.9513  H       1  <O>11       0.0636
  43 H16       7.8951    -4.0773     9.6830  H       1  <O>11       0.0670
  44 H17      10.4265    -3.8226    10.4624  H       1  <O>11       0.0650
  45 H18      11.4423    -1.8620     9.0953  H       1  <O>11       0.1030
  46 H19       4.7768    -1.9103     6.1949  H       1  <O>11       0.0639
@<TRIPOS>BOND
     1     1     2    2
     2     2     3   ar
     3     3     4   ar
     4     4     5   ar
     5     5     6    1
     6     6     7    1
     7     7     8   ar
     8     8     9   ar
     9     9    10   ar
    10    10    11   ar
    11    11    12    1
    12    12    13    1
    13    13    14    2
    14    13    15    2
    15    13    16    1
    16    16    17   ar
    17    17    18   ar
    18    18    19   ar
    19    19    20   ar
    20    16    20   ar
    21    11    21   ar
    22     7    21   ar
    23     5    22   ar
    24    22    23   ar
    25     2    23   ar
    26    23    24    1
    27    24    25    1
    28    25    26    1
    29    26    27    1
    30    22    27    1
    31     3    28    1
    32     6    29    1
    33     6    30    1
    34    12    31    1
    35    24    32    1
    36    24    33    1
    37    25    34    1
    38    25    35    1
    39    26    36    1
    40    26    37    1
    41    27    38    1
    42    27    39    1
    43     8    40    1
    44     9    41    1
    45    10    42    1
    46    17    43    1
    47    18    44    1
    48    19    45    1
    49    21    46    1
@<TRIPOS>MOLECULE
mol86_2_25
 46 49 0 0 0
SMALL
USER_CHARGES
****
VDW energy = -33.34
@<TRIPOS>ATOM
   1 O1        6.9878     0.1985     2.5155  O.2     1  <O>11      -0.2661
   2 C1        5.8255    -0.2285     3.1857  C.ar    1  <O>11       0.2682
   3 N1        5.1910    -1.2820     2.6452  N.ar    1  <O>11      -0.2427
   4 N2        4.0648    -1.7438     3.2451  N.ar    1  <O>11      -0.1753
   5 C2        3.6029    -1.1357     4.3580  C.ar    1  <O>11       0.0693
   6 C3        2.3840    -1.7110     4.9590  C.3     1  <O>11       0.0168
   7 C4        2.6772    -2.1503     6.3488  C.ar    1  <O>11      -0.0397
   8 C5        2.5025    -1.2615     7.4241  C.ar    1  <O>11      -0.0581
   9 C6        2.7904    -1.6727     8.7310  C.ar    1  <O>11      -0.0597
  10 C7        3.2491    -2.9697     8.9758  C.ar    1  <O>11      -0.0393
  11 C8        3.4155    -3.8552     7.9054  C.ar    1  <O>11       0.0484
  12 N3        3.8878    -5.1911     8.1636  N.pl3   1  <O>11      -0.2135
  13 S1        5.5080    -5.5118     8.1524  S.O2    1  <O>11       0.1056
  14 O2        5.7560    -7.1229     8.4785  O.2     1  <O>11      -0.1470
  15 O3        6.2648    -4.5904     9.3102  O.2     1  <O>11      -0.1470
  16 C9        6.1778    -5.1232     6.5579  C.ar    1  <O>11       0.2610
  17 C10       7.1991    -4.2971     6.3856  C.ar    1  <O>11       0.0041
  18 C11       7.4031    -4.2629     4.9848  C.ar    1  <O>11      -0.0219
  19 C12       6.4652    -5.1101     4.4220  C.ar    1  <O>11       0.0943
  20 O4        5.6894    -5.6451     5.4177  O.2     1  <O>11      -0.4449
  21 C13       3.1293    -3.4564     6.5995  C.ar    1  <O>11      -0.0358
  22 C14       4.2202    -0.0251     4.9315  C.ar    1  <O>11      -0.0158
  23 C15       5.4039     0.4308     4.3283  C.ar    1  <O>11       0.0232
  24 C16       6.1641     1.6216     4.8468  C.3     1  <O>11      -0.0222
  25 C17       5.7865     1.9954     6.2785  C.3     1  <O>11      -0.0486
  26 C18       4.2731     2.0252     6.4337  C.3     1  <O>11      -0.0487
  27 C19       3.6796     0.6416     6.1699  C.3     1  <O>11      -0.0255
  28 H1        5.5438    -1.7235     1.8081  H       1  <O>11       0.1921
  29 H2        2.0574    -2.5674     4.3691  H       1  <O>11       0.0377
  30 H3        1.5956    -0.9582     4.9749  H       1  <O>11       0.0377
  31 H4        3.2215    -5.9405     8.3529  H       1  <O>11       0.1738
  32 H5        7.2294     1.3927     4.8175  H       1  <O>11       0.0315
  33 H6        5.9571     2.4739     4.1996  H       1  <O>11       0.0315
  34 H7        6.2039     1.2585     6.9646  H       1  <O>11       0.0269
  35 H8        6.1914     2.9801     6.5118  H       1  <O>11       0.0269
  36 H9        4.0229     2.3350     7.4484  H       1  <O>11       0.0268
  37 H10       3.8538     2.7366     5.7222  H       1  <O>11       0.0268
  38 H11       3.8988     0.0045     7.0267  H       1  <O>11       0.0314
  39 H12       2.6001     0.7458     6.0607  H       1  <O>11       0.0314
  40 H13       2.1609    -0.3034     7.2495  H       1  <O>11       0.0620
  41 H14       2.6634    -1.0155     9.5165  H       1  <O>11       0.0618
  42 H15       3.4635    -3.2722     9.9389  H       1  <O>11       0.0636
  43 H16       7.7290    -3.7904     7.1119  H       1  <O>11       0.0670
  44 H17       8.1150    -3.7117     4.4804  H       1  <O>11       0.0650
  45 H18       6.3656    -5.3076     3.4140  H       1  <O>11       0.1030
  46 H19       3.2497    -4.1203     5.8185  H       1  <O>11       0.0639
@<TRIPOS>BOND
     1     1     2    2
     2     2     3   ar
     3     3     4   ar
     4     4     5   ar
     5     5     6    1
     6     6     7    1
     7     7     8   ar
     8     8     9   ar
     9     9    10   ar
    10    10    11   ar
    11    11    12    1
    12    12    13    1
    13    13    14    2
    14    13    15    2
    15    13    16    1
    16    16    17   ar
    17    17    18   ar
    18    18    19   ar
    19    19    20   ar
    20    16    20   ar
    21    11    21   ar
    22     7    21   ar
    23     5    22   ar
    24    22    23   ar
    25     2    23   ar
    26    23    24    1
    27    24    25    1
    28    25    26    1
    29    26    27    1
    30    22    27    1
    31     3    28    1
    32     6    29    1
    33     6    30    1
    34    12    31    1
    35    24    32    1
    36    24    33    1
    37    25    34    1
    38    25    35    1
    39    26    36    1
    40    26    37    1
    41    27    38    1
    42    27    39    1
    43     8    40    1
    44     9    41    1
    45    10    42    1
    46    17    43    1
    47    18    44    1
    48    19    45    1
    49    21    46    1
@<TRIPOS>MOLECULE
mol86_2_26
 46 49 0 0 0
SMALL
USER_CHARGES
****
VDW energy = -30.78
@<TRIPOS>ATOM
   1 O1        6.9878     0.1985     2.5155  O.2     1  <O>11      -0.2661
   2 C1        5.8255    -0.2285     3.1857  C.ar    1  <O>11       0.2682
   3 N1        5.1910    -1.2820     2.6452  N.ar    1  <O>11      -0.2427
   4 N2        4.0648    -1.7438     3.2451  N.ar    1  <O>11      -0.1753
   5 C2        3.6029    -1.1357     4.3580  C.ar    1  <O>11       0.0693
   6 C3        2.3840    -1.7110     4.9590  C.3     1  <O>11       0.0168
   7 C4        2.6772    -2.1503     6.3488  C.ar    1  <O>11      -0.0397
   8 C5        2.5025    -1.2615     7.4241  C.ar    1  <O>11      -0.0581
   9 C6        2.7904    -1.6727     8.7310  C.ar    1  <O>11      -0.0597
  10 C7        3.2491    -2.9697     8.9758  C.ar    1  <O>11      -0.0393
  11 C8        3.4155    -3.8552     7.9054  C.ar    1  <O>11       0.0484
  12 N3        3.8878    -5.1911     8.1636  N.pl3   1  <O>11      -0.2135
  13 S1        2.8099    -6.4041     8.4712  S.O2    1  <O>11       0.1056
  14 O2        1.8804    -6.6751     7.1199  O.2     1  <O>11      -0.1470
  15 O3        1.8282    -5.9669     9.7391  O.2     1  <O>11      -0.1470
  16 C9        3.6887    -7.8858     8.8889  C.ar    1  <O>11       0.2610
  17 C10       3.4760    -8.5599    10.0095  C.ar    1  <O>11       0.0041
  18 C11       4.3763    -9.6512     9.9504  C.ar    1  <O>11      -0.0219
  19 C12       5.0625    -9.5409     8.7542  C.ar    1  <O>11       0.0943
  20 O4        4.6307    -8.4214     8.0910  O.2     1  <O>11      -0.4449
  21 C13       3.1293    -3.4564     6.5995  C.ar    1  <O>11      -0.0358
  22 C14       4.2202    -0.0251     4.9315  C.ar    1  <O>11      -0.0158
  23 C15       5.4039     0.4308     4.3283  C.ar    1  <O>11       0.0232
  24 C16       6.1641     1.6216     4.8468  C.3     1  <O>11      -0.0222
  25 C17       5.7865     1.9954     6.2785  C.3     1  <O>11      -0.0486
  26 C18       4.2731     2.0252     6.4337  C.3     1  <O>11      -0.0487
  27 C19       3.6796     0.6416     6.1699  C.3     1  <O>11      -0.0255
  28 H1        5.5438    -1.7235     1.8081  H       1  <O>11       0.1921
  29 H2        2.0574    -2.5674     4.3691  H       1  <O>11       0.0377
  30 H3        1.5956    -0.9582     4.9749  H       1  <O>11       0.0377
  31 H4        4.8889    -5.3887     8.1574  H       1  <O>11       0.1738
  32 H5        7.2294     1.3927     4.8175  H       1  <O>11       0.0315
  33 H6        5.9571     2.4739     4.1996  H       1  <O>11       0.0315
  34 H7        6.2039     1.2585     6.9646  H       1  <O>11       0.0269
  35 H8        6.1914     2.9801     6.5118  H       1  <O>11       0.0269
  36 H9        4.0229     2.3350     7.4484  H       1  <O>11       0.0268
  37 H10       3.8538     2.7366     5.7222  H       1  <O>11       0.0268
  38 H11       3.8988     0.0045     7.0267  H       1  <O>11       0.0314
  39 H12       2.6001     0.7458     6.0607  H       1  <O>11       0.0314
  40 H13       2.1609    -0.3034     7.2495  H       1  <O>11       0.0620
  41 H14       2.6634    -1.0155     9.5165  H       1  <O>11       0.0618
  42 H15       3.4635    -3.2722     9.9389  H       1  <O>11       0.0636
  43 H16       2.8027    -8.3385    10.7597  H       1  <O>11       0.0670
  44 H17       4.4973   -10.3878    10.6631  H       1  <O>11       0.0650
  45 H18       5.7840   -10.1964     8.4154  H       1  <O>11       0.1030
  46 H19       3.2497    -4.1203     5.8185  H       1  <O>11       0.0639
@<TRIPOS>BOND
     1     1     2    2
     2     2     3   ar
     3     3     4   ar
     4     4     5   ar
     5     5     6    1
     6     6     7    1
     7     7     8   ar
     8     8     9   ar
     9     9    10   ar
    10    10    11   ar
    11    11    12    1
    12    12    13    1
    13    13    14    2
    14    13    15    2
    15    13    16    1
    16    16    17   ar
    17    17    18   ar
    18    18    19   ar
    19    19    20   ar
    20    16    20   ar
    21    11    21   ar
    22     7    21   ar
    23     5    22   ar
    24    22    23   ar
    25     2    23   ar
    26    23    24    1
    27    24    25    1
    28    25    26    1
    29    26    27    1
    30    22    27    1
    31     3    28    1
    32     6    29    1
    33     6    30    1
    34    12    31    1
    35    24    32    1
    36    24    33    1
    37    25    34    1
    38    25    35    1
    39    26    36    1
    40    26    37    1
    41    27    38    1
    42    27    39    1
    43     8    40    1
    44     9    41    1
    45    10    42    1
    46    17    43    1
    47    18    44    1
    48    19    45    1
    49    21    46    1
@<TRIPOS>MOLECULE
mol86_2_27
 46 49 0 0 0
SMALL
USER_CHARGES
****
VDW energy = -30.02
@<TRIPOS>ATOM
   1 O1        6.9878     0.1985     2.5155  O.2     1  <O>11      -0.2661
   2 C1        5.8255    -0.2285     3.1857  C.ar    1  <O>11       0.2682
   3 N1        5.1910    -1.2820     2.6452  N.ar    1  <O>11      -0.2427
   4 N2        4.0648    -1.7438     3.2451  N.ar    1  <O>11      -0.1753
   5 C2        3.6029    -1.1357     4.3580  C.ar    1  <O>11       0.0693
   6 C3        2.3840    -1.7110     4.9590  C.3     1  <O>11       0.0168
   7 C4        2.6772    -2.1503     6.3488  C.ar    1  <O>11      -0.0397
   8 C5        2.5025    -1.2615     7.4241  C.ar    1  <O>11      -0.0581
   9 C6        2.7904    -1.6727     8.7310  C.ar    1  <O>11      -0.0597
  10 C7        3.2491    -2.9697     8.9758  C.ar    1  <O>11      -0.0393
  11 C8        3.4155    -3.8552     7.9054  C.ar    1  <O>11       0.0484
  12 N3        3.8878    -5.1911     8.1636  N.pl3   1  <O>11      -0.2135
  13 S1        5.5080    -5.5118     8.1524  S.O2    1  <O>11       0.1056
  14 O2        6.2434    -4.6922     9.3978  O.2     1  <O>11      -0.1470
  15 O3        6.1616    -5.0211     6.7053  O.2     1  <O>11      -0.1470
  16 C9        5.7686    -7.2531     8.3577  C.ar    1  <O>11       0.2610
  17 C10       6.4775    -7.9821     7.5084  C.ar    1  <O>11       0.0041
  18 C11       6.4278    -9.2966     8.0325  C.ar    1  <O>11      -0.0219
  19 C12       5.6813    -9.2367     9.1958  C.ar    1  <O>11       0.0943
  20 O4        5.2613    -7.9468     9.3933  O.2     1  <O>11      -0.4449
  21 C13       3.1293    -3.4564     6.5995  C.ar    1  <O>11      -0.0358
  22 C14       4.2202    -0.0251     4.9315  C.ar    1  <O>11      -0.0158
  23 C15       5.4039     0.4308     4.3283  C.ar    1  <O>11       0.0232
  24 C16       6.1641     1.6216     4.8468  C.3     1  <O>11      -0.0222
  25 C17       5.7865     1.9954     6.2785  C.3     1  <O>11      -0.0486
  26 C18       4.2731     2.0252     6.4337  C.3     1  <O>11      -0.0487
  27 C19       3.6796     0.6416     6.1699  C.3     1  <O>11      -0.0255
  28 H1        5.5438    -1.7235     1.8081  H       1  <O>11       0.1921
  29 H2        2.0574    -2.5674     4.3691  H       1  <O>11       0.0377
  30 H3        1.5956    -0.9582     4.9749  H       1  <O>11       0.0377
  31 H4        3.2215    -5.9405     8.3529  H       1  <O>11       0.1738
  32 H5        7.2294     1.3927     4.8175  H       1  <O>11       0.0315
  33 H6        5.9571     2.4739     4.1996  H       1  <O>11       0.0315
  34 H7        6.2039     1.2585     6.9646  H       1  <O>11       0.0269
  35 H8        6.1914     2.9801     6.5118  H       1  <O>11       0.0269
  36 H9        4.0229     2.3350     7.4484  H       1  <O>11       0.0268
  37 H10       3.8538     2.7366     5.7222  H       1  <O>11       0.0268
  38 H11       3.8988     0.0045     7.0267  H       1  <O>11       0.0314
  39 H12       2.6001     0.7458     6.0607  H       1  <O>11       0.0314
  40 H13       2.1609    -0.3034     7.2495  H       1  <O>11       0.0620
  41 H14       2.6634    -1.0155     9.5165  H       1  <O>11       0.0618
  42 H15       3.4635    -3.2722     9.9389  H       1  <O>11       0.0636
  43 H16       6.9594    -7.6625     6.6536  H       1  <O>11       0.0670
  44 H17       6.8647   -10.1380     7.6248  H       1  <O>11       0.0650
  45 H18       5.4740   -10.0353     9.8157  H       1  <O>11       0.1030
  46 H19       3.2497    -4.1203     5.8185  H       1  <O>11       0.0639
@<TRIPOS>BOND
     1     1     2    2
     2     2     3   ar
     3     3     4   ar
     4     4     5   ar
     5     5     6    1
     6     6     7    1
     7     7     8   ar
     8     8     9   ar
     9     9    10   ar
    10    10    11   ar
    11    11    12    1
    12    12    13    1
    13    13    14    2
    14    13    15    2
    15    13    16    1
    16    16    17   ar
    17    17    18   ar
    18    18    19   ar
    19    19    20   ar
    20    16    20   ar
    21    11    21   ar
    22     7    21   ar
    23     5    22   ar
    24    22    23   ar
    25     2    23   ar
    26    23    24    1
    27    24    25    1
    28    25    26    1
    29    26    27    1
    30    22    27    1
    31     3    28    1
    32     6    29    1
    33     6    30    1
    34    12    31    1
    35    24    32    1
    36    24    33    1
    37    25    34    1
    38    25    35    1
    39    26    36    1
    40    26    37    1
    41    27    38    1
    42    27    39    1
    43     8    40    1
    44     9    41    1
    45    10    42    1
    46    17    43    1
    47    18    44    1
    48    19    45    1
    49    21    46    1
@<TRIPOS>MOLECULE
mol86_2_28
 46 49 0 0 0
SMALL
USER_CHARGES
****
VDW energy = -29.27
@<TRIPOS>ATOM
   1 O1        6.9878     0.1985     2.5155  O.2     1  <O>11      -0.2661
   2 C1        5.8255    -0.2285     3.1857  C.ar    1  <O>11       0.2682
   3 N1        5.1910    -1.2820     2.6452  N.ar    1  <O>11      -0.2427
   4 N2        4.0648    -1.7438     3.2451  N.ar    1  <O>11      -0.1753
   5 C2        3.6029    -1.1357     4.3580  C.ar    1  <O>11       0.0693
   6 C3        2.3840    -1.7110     4.9590  C.3     1  <O>11       0.0168
   7 C4        2.6772    -2.1503     6.3488  C.ar    1  <O>11      -0.0397
   8 C5        2.5025    -1.2615     7.4241  C.ar    1  <O>11      -0.0581
   9 C6        2.7904    -1.6727     8.7310  C.ar    1  <O>11      -0.0597
  10 C7        3.2491    -2.9697     8.9758  C.ar    1  <O>11      -0.0393
  11 C8        3.4155    -3.8552     7.9054  C.ar    1  <O>11       0.0484
  12 N3        3.8878    -5.1911     8.1636  N.pl3   1  <O>11      -0.2135
  13 S1        2.9562    -6.2443     9.0301  S.O2    1  <O>11       0.1056
  14 O2        1.5662    -6.5808     8.1827  O.2     1  <O>11      -0.1470
  15 O3        2.5606    -5.5622    10.4931  O.2     1  <O>11      -0.1470
  16 C9        3.8578    -7.7458     9.3035  C.ar    1  <O>11       0.2610
  17 C10       4.0621    -8.2561    10.5090  C.ar    1  <O>11       0.0041
  18 C11       4.8180    -9.4313    10.2800  C.ar    1  <O>11      -0.0219
  19 C12       4.9946    -9.5344     8.9117  C.ar    1  <O>11       0.0943
  20 O4        4.3934    -8.4649     8.3000  O.2     1  <O>11      -0.4449
  21 C13       3.1293    -3.4564     6.5995  C.ar    1  <O>11      -0.0358
  22 C14       4.2202    -0.0251     4.9315  C.ar    1  <O>11      -0.0158
  23 C15       5.4039     0.4308     4.3283  C.ar    1  <O>11       0.0232
  24 C16       6.1641     1.6216     4.8468  C.3     1  <O>11      -0.0222
  25 C17       5.7865     1.9954     6.2785  C.3     1  <O>11      -0.0486
  26 C18       4.2731     2.0252     6.4337  C.3     1  <O>11      -0.0487
  27 C19       3.6796     0.6416     6.1699  C.3     1  <O>11      -0.0255
  28 H1        5.5438    -1.7235     1.8081  H       1  <O>11       0.1921
  29 H2        2.0574    -2.5674     4.3691  H       1  <O>11       0.0377
  30 H3        1.5956    -0.9582     4.9749  H       1  <O>11       0.0377
  31 H4        4.7987    -5.4874     7.8119  H       1  <O>11       0.1738
  32 H5        7.2294     1.3927     4.8175  H       1  <O>11       0.0315
  33 H6        5.9571     2.4739     4.1996  H       1  <O>11       0.0315
  34 H7        6.2039     1.2585     6.9646  H       1  <O>11       0.0269
  35 H8        6.1914     2.9801     6.5118  H       1  <O>11       0.0269
  36 H9        4.0229     2.3350     7.4484  H       1  <O>11       0.0268
  37 H10       3.8538     2.7366     5.7222  H       1  <O>11       0.0268
  38 H11       3.8988     0.0045     7.0267  H       1  <O>11       0.0314
  39 H12       2.6001     0.7458     6.0607  H       1  <O>11       0.0314
  40 H13       2.1609    -0.3034     7.2495  H       1  <O>11       0.0620
  41 H14       2.6634    -1.0155     9.5165  H       1  <O>11       0.0618
  42 H15       3.4635    -3.2722     9.9389  H       1  <O>11       0.0636
  43 H16       3.7411    -7.8801    11.4149  H       1  <O>11       0.0670
  44 H17       5.1697   -10.0856    10.9964  H       1  <O>11       0.0650
  45 H18       5.4982   -10.2948     8.4288  H       1  <O>11       0.1030
  46 H19       3.2497    -4.1203     5.8185  H       1  <O>11       0.0639
@<TRIPOS>BOND
     1     1     2    2
     2     2     3   ar
     3     3     4   ar
     4     4     5   ar
     5     5     6    1
     6     6     7    1
     7     7     8   ar
     8     8     9   ar
     9     9    10   ar
    10    10    11   ar
    11    11    12    1
    12    12    13    1
    13    13    14    2
    14    13    15    2
    15    13    16    1
    16    16    17   ar
    17    17    18   ar
    18    18    19   ar
    19    19    20   ar
    20    16    20   ar
    21    11    21   ar
    22     7    21   ar
    23     5    22   ar
    24    22    23   ar
    25     2    23   ar
    26    23    24    1
    27    24    25    1
    28    25    26    1
    29    26    27    1
    30    22    27    1
    31     3    28    1
    32     6    29    1
    33     6    30    1
    34    12    31    1
    35    24    32    1
    36    24    33    1
    37    25    34    1
    38    25    35    1
    39    26    36    1
    40    26    37    1
    41    27    38    1
    42    27    39    1
    43     8    40    1
    44     9    41    1
    45    10    42    1
    46    17    43    1
    47    18    44    1
    48    19    45    1
    49    21    46    1
@<TRIPOS>MOLECULE
mol86_2_29
 46 49 0 0 0
SMALL
USER_CHARGES
****
VDW energy = -28.80
@<TRIPOS>ATOM
   1 O1        6.9878     0.1985     2.5155  O.2     1  <O>11      -0.2661
   2 C1        5.8255    -0.2285     3.1857  C.ar    1  <O>11       0.2682
   3 N1        5.1910    -1.2820     2.6452  N.ar    1  <O>11      -0.2427
   4 N2        4.0648    -1.7438     3.2451  N.ar    1  <O>11      -0.1753
   5 C2        3.6029    -1.1357     4.3580  C.ar    1  <O>11       0.0693
   6 C3        2.3840    -1.7110     4.9590  C.3     1  <O>11       0.0168
   7 C4        1.9380    -2.8780     4.1530  C.ar    1  <O>11      -0.0397
   8 C5        1.0416    -2.6996     3.0846  C.ar    1  <O>11      -0.0581
   9 C6        0.6131    -3.8010     2.3341  C.ar    1  <O>11      -0.0597
  10 C7        1.0764    -5.0836     2.6388  C.ar    1  <O>11      -0.0393
  11 C8        1.9741    -5.2584     3.6976  C.ar    1  <O>11       0.0484
  12 N3        2.4490    -6.5825     4.0068  N.pl3   1  <O>11      -0.2135
  13 S1        3.5094    -6.8106     5.2524  S.O2    1  <O>11       0.1056
  14 O2        3.8809    -8.4263     5.3747  O.2     1  <O>11      -0.1470
  15 O3        2.8182    -6.2930     6.6725  O.2     1  <O>11      -0.1470
  16 C9        4.9908    -5.8868     4.9460  C.ar    1  <O>11       0.2610
  17 C10       5.0062    -4.7537     4.2594  C.ar    1  <O>11       0.0041
  18 C11       6.3661    -4.3593     4.2445  C.ar    1  <O>11      -0.0219
  19 C12       7.0684    -5.3136     4.9588  C.ar    1  <O>11       0.0943
  20 O4        6.1978    -6.2794     5.3933  O.2     1  <O>11      -0.4449
  21 C13       2.4092    -4.1674     4.4505  C.ar    1  <O>11      -0.0358
  22 C14       4.2202    -0.0251     4.9315  C.ar    1  <O>11      -0.0158
  23 C15       5.4039     0.4308     4.3283  C.ar    1  <O>11       0.0232
  24 C16       6.1641     1.6216     4.8468  C.3     1  <O>11      -0.0222
  25 C17       5.7865     1.9954     6.2785  C.3     1  <O>11      -0.0486
  26 C18       4.2731     2.0252     6.4337  C.3     1  <O>11      -0.0487
  27 C19       3.6796     0.6416     6.1699  C.3     1  <O>11      -0.0255
  28 H1        5.5438    -1.7235     1.8081  H       1  <O>11       0.1921
  29 H2        1.5960    -0.9580     4.9740  H       1  <O>11       0.0377
  30 H3        2.5980    -2.0340     5.9780  H       1  <O>11       0.0377
  31 H4        2.1311    -7.3804     3.4558  H       1  <O>11       0.1738
  32 H5        7.2294     1.3927     4.8175  H       1  <O>11       0.0315
  33 H6        5.9571     2.4739     4.1996  H       1  <O>11       0.0315
  34 H7        6.2039     1.2585     6.9646  H       1  <O>11       0.0269
  35 H8        6.1914     2.9801     6.5118  H       1  <O>11       0.0269
  36 H9        4.0229     2.3350     7.4484  H       1  <O>11       0.0268
  37 H10       3.8538     2.7366     5.7222  H       1  <O>11       0.0268
  38 H11       3.8988     0.0045     7.0267  H       1  <O>11       0.0314
  39 H12       2.6001     0.7458     6.0607  H       1  <O>11       0.0314
  40 H13       0.6985    -1.7542     2.8531  H       1  <O>11       0.0620
  41 H14      -0.0474    -3.6651     1.5528  H       1  <O>11       0.0618
  42 H15       0.7588    -5.8958     2.0870  H       1  <O>11       0.0636
  43 H16       4.2041    -4.2662     3.8304  H       1  <O>11       0.0670
  44 H17       6.7581    -3.5208     3.7883  H       1  <O>11       0.0650
  45 H18       8.0849    -5.3005     5.1361  H       1  <O>11       0.1030
  46 H19       3.0765    -4.3076     5.2252  H       1  <O>11       0.0639
@<TRIPOS>BOND
     1     1     2    2
     2     2     3   ar
     3     3     4   ar
     4     4     5   ar
     5     5     6    1
     6     6     7    1
     7     7     8   ar
     8     8     9   ar
     9     9    10   ar
    10    10    11   ar
    11    11    12    1
    12    12    13    1
    13    13    14    2
    14    13    15    2
    15    13    16    1
    16    16    17   ar
    17    17    18   ar
    18    18    19   ar
    19    19    20   ar
    20    16    20   ar
    21    11    21   ar
    22     7    21   ar
    23     5    22   ar
    24    22    23   ar
    25     2    23   ar
    26    23    24    1
    27    24    25    1
    28    25    26    1
    29    26    27    1
    30    22    27    1
    31     3    28    1
    32     6    29    1
    33     6    30    1
    34    12    31    1
    35    24    32    1
    36    24    33    1
    37    25    34    1
    38    25    35    1
    39    26    36    1
    40    26    37    1
    41    27    38    1
    42    27    39    1
    43     8    40    1
    44     9    41    1
    45    10    42    1
    46    17    43    1
    47    18    44    1
    48    19    45    1
    49    21    46    1
@<TRIPOS>MOLECULE
mol86_2_30
 46 49 0 0 0
SMALL
USER_CHARGES
****
VDW energy = -23.94
@<TRIPOS>ATOM
   1 O1        6.9878     0.1985     2.5155  O.2     1  <O>11      -0.2661
   2 C1        5.8255    -0.2285     3.1857  C.ar    1  <O>11       0.2682
   3 N1        5.1910    -1.2820     2.6452  N.ar    1  <O>11      -0.2427
   4 N2        4.0648    -1.7438     3.2451  N.ar    1  <O>11      -0.1753
   5 C2        3.6029    -1.1357     4.3580  C.ar    1  <O>11       0.0693
   6 C3        2.3840    -1.7110     4.9590  C.3     1  <O>11       0.0168
   7 C4        2.6772    -2.1503     6.3488  C.ar    1  <O>11      -0.0397
   8 C5        2.5025    -1.2615     7.4241  C.ar    1  <O>11      -0.0581
   9 C6        2.7904    -1.6727     8.7310  C.ar    1  <O>11      -0.0597
  10 C7        3.2491    -2.9697     8.9758  C.ar    1  <O>11      -0.0393
  11 C8        3.4155    -3.8552     7.9054  C.ar    1  <O>11       0.0484
  12 N3        3.8878    -5.1911     8.1636  N.pl3   1  <O>11      -0.2135
  13 S1        4.0911    -6.2521     6.9142  S.O2    1  <O>11       0.1056
  14 O2        5.2961    -5.7013     5.9103  O.2     1  <O>11      -0.1470
  15 O3        2.6727    -6.3799     6.0574  O.2     1  <O>11      -0.1470
  16 C9        4.5390    -7.8430     7.5550  C.ar    1  <O>11       0.2610
  17 C10       3.8686    -8.9502     7.2722  C.ar    1  <O>11       0.0041
  18 C11       4.5443    -9.9723     7.9819  C.ar    1  <O>11      -0.0219
  19 C12       5.6040    -9.3719     8.6381  C.ar    1  <O>11       0.0943
  20 O4        5.5925    -8.0271     8.3719  O.2     1  <O>11      -0.4449
  21 C13       3.1293    -3.4564     6.5995  C.ar    1  <O>11      -0.0358
  22 C14       4.2202    -0.0251     4.9315  C.ar    1  <O>11      -0.0158
  23 C15       5.4039     0.4308     4.3283  C.ar    1  <O>11       0.0232
  24 C16       6.1641     1.6216     4.8468  C.3     1  <O>11      -0.0222
  25 C17       5.7865     1.9954     6.2785  C.3     1  <O>11      -0.0486
  26 C18       4.2731     2.0252     6.4337  C.3     1  <O>11      -0.0487
  27 C19       3.6796     0.6416     6.1699  C.3     1  <O>11      -0.0255
  28 H1        5.5438    -1.7235     1.8081  H       1  <O>11       0.1921
  29 H2        2.0574    -2.5674     4.3691  H       1  <O>11       0.0377
  30 H3        1.5956    -0.9582     4.9749  H       1  <O>11       0.0377
  31 H4        4.0964    -5.4830     9.1189  H       1  <O>11       0.1738
  32 H5        7.2294     1.3927     4.8175  H       1  <O>11       0.0315
  33 H6        5.9571     2.4739     4.1996  H       1  <O>11       0.0315
  34 H7        6.2039     1.2585     6.9646  H       1  <O>11       0.0269
  35 H8        6.1914     2.9801     6.5118  H       1  <O>11       0.0269
  36 H9        4.0229     2.3350     7.4484  H       1  <O>11       0.0268
  37 H10       3.8538     2.7366     5.7222  H       1  <O>11       0.0268
  38 H11       3.8988     0.0045     7.0267  H       1  <O>11       0.0314
  39 H12       2.6001     0.7458     6.0607  H       1  <O>11       0.0314
  40 H13       2.1609    -0.3034     7.2495  H       1  <O>11       0.0620
  41 H14       2.6634    -1.0155     9.5165  H       1  <O>11       0.0618
  42 H15       3.4635    -3.2722     9.9389  H       1  <O>11       0.0636
  43 H16       3.0374    -9.0464     6.6681  H       1  <O>11       0.0670
  44 H17       4.2943   -10.9733     8.0051  H       1  <O>11       0.0650
  45 H18       6.2928    -9.8584     9.2329  H       1  <O>11       0.1030
  46 H19       3.2497    -4.1203     5.8185  H       1  <O>11       0.0639
@<TRIPOS>BOND
     1     1     2    2
     2     2     3   ar
     3     3     4   ar
     4     4     5   ar
     5     5     6    1
     6     6     7    1
     7     7     8   ar
     8     8     9   ar
     9     9    10   ar
    10    10    11   ar
    11    11    12    1
    12    12    13    1
    13    13    14    2
    14    13    15    2
    15    13    16    1
    16    16    17   ar
    17    17    18   ar
    18    18    19   ar
    19    19    20   ar
    20    16    20   ar
    21    11    21   ar
    22     7    21   ar
    23     5    22   ar
    24    22    23   ar
    25     2    23   ar
    26    23    24    1
    27    24    25    1
    28    25    26    1
    29    26    27    1
    30    22    27    1
    31     3    28    1
    32     6    29    1
    33     6    30    1
    34    12    31    1
    35    24    32    1
    36    24    33    1
    37    25    34    1
    38    25    35    1
    39    26    36    1
    40    26    37    1
    41    27    38    1
    42    27    39    1
    43     8    40    1
    44     9    41    1
    45    10    42    1
    46    17    43    1
    47    18    44    1
    48    19    45    1
    49    21    46    1
