@<TRIPOS>MOLECULE
mol8_1_1
 41 43 0 0 0
SMALL
USER_CHARGES
****
VDW energy = -26.37
@<TRIPOS>ATOM
   1 N1        3.5126    -9.1101    -5.4025  N.am    1  <O>11      -0.3253
   2 C1        2.8552    -9.8129    -4.4288  C.2     1  <O>11       0.2415
   3 O1        3.4454   -10.1461    -3.4119  O.2     1  <O>11      -0.2704
   4 C2        1.4620   -10.1610    -4.6040  C.ar    1  <O>11       0.0368
   5 C3        1.1317   -11.3708    -5.2197  C.ar    1  <O>11      -0.0496
   6 C4       -0.2136   -11.7084    -5.4038  C.ar    1  <O>11      -0.0607
   7 C5       -1.2215   -10.8431    -4.9705  C.ar    1  <O>11      -0.0568
   8 C6       -0.8757    -9.6381    -4.3492  C.ar    1  <O>11      -0.0253
   9 C7       -1.9437    -8.7280    -3.8917  C.3     1  <O>11       0.0703
  10 N2       -2.3049    -9.0531    -2.5256  N.ar    1  <O>11      -0.2241
  11 N3       -1.5348    -9.9426    -1.7909  N.ar    1  <O>11      -0.1679
  12 C8       -1.8768   -10.2517    -0.5326  C.ar    1  <O>11       0.0921
  13 C9       -1.0388   -11.1702     0.1660  C.ar    1  <O>11       0.0021
  14 C10      -0.8449   -12.4712    -0.3284  C.ar    1  <O>11      -0.0525
  15 C11      -0.0332   -13.3752     0.3634  C.ar    1  <O>11      -0.0611
  16 C12       0.5958   -12.9895     1.5500  C.ar    1  <O>11      -0.0617
  17 C13       0.4081   -11.6924     2.0400  C.ar    1  <O>11      -0.0611
  18 C14      -0.3994   -10.7832     1.3549  C.ar    1  <O>11      -0.0525
  19 C15      -2.9889    -9.7133     0.0779  C.ar    1  <O>11      -0.0171
  20 C16      -3.7765    -8.8109    -0.6453  C.ar    1  <O>11       0.1225
  21 C17      -4.9810    -8.2097    -0.0404  C.3     1  <O>11       0.4225
  22 F1       -6.0758    -9.0103    -0.3007  F       1  <O>11      -0.1657
  23 F2       -5.1906    -6.9552    -0.5779  F       1  <O>11      -0.1657
  24 F3       -4.8054    -8.1010     1.3257  F       1  <O>11      -0.1657
  25 C18      -3.4146    -8.4830    -1.9465  C.ar    1  <O>11       0.2793
  26 O2       -4.1790    -7.5625    -2.6875  O.2     1  <O>11      -0.2656
  27 C19       0.4633    -9.2931    -4.1598  C.ar    1  <O>11      -0.0447
  28 H1        3.0200    -8.8319    -6.2513  H       1  <O>11       0.1453
  29 H2        4.4949    -8.8646    -5.2793  H       1  <O>11       0.1453
  30 H3       -2.8162    -8.8401    -4.5354  H       1  <O>11       0.0560
  31 H4       -1.5877    -7.6985    -3.9395  H       1  <O>11       0.0560
  32 H5        1.8757   -12.0117    -5.5369  H       1  <O>11       0.0625
  33 H6       -0.4623   -12.5995    -5.8611  H       1  <O>11       0.0618
  34 H7       -2.2138   -11.0910    -5.1078  H       1  <O>11       0.0621
  35 H8       -1.3038   -12.7607    -1.2062  H       1  <O>11       0.0624
  36 H9        0.1018   -14.3302    -0.0034  H       1  <O>11       0.0618
  37 H10       1.1945   -13.6566     2.0614  H       1  <O>11       0.0618
  38 H11       0.8711   -11.4052     2.9163  H       1  <O>11       0.0618
  39 H12      -0.5265    -9.8270     1.7218  H       1  <O>11       0.0624
  40 H13      -3.2352    -9.9700     1.0466  H       1  <O>11       0.0647
  41 H14       0.7123    -8.4055    -3.6961  H       1  <O>11       0.0628
@<TRIPOS>BOND
     1     1     2   am
     2     2     3    2
     3     2     4    1
     4     4     5   ar
     5     5     6   ar
     6     6     7   ar
     7     7     8   ar
     8     8     9    1
     9     9    10    1
    10    10    11   ar
    11    11    12   ar
    12    12    13    1
    13    13    14   ar
    14    14    15   ar
    15    15    16   ar
    16    16    17   ar
    17    17    18   ar
    18    13    18   ar
    19    12    19   ar
    20    19    20   ar
    21    20    21    1
    22    21    22    1
    23    21    23    1
    24    21    24    1
    25    20    25   ar
    26    10    25   ar
    27    25    26    2
    28     8    27   ar
    29     4    27   ar
    30     1    28    1
    31     1    29    1
    32     9    30    1
    33     9    31    1
    34     5    32    1
    35     6    33    1
    36     7    34    1
    37    14    35    1
    38    15    36    1
    39    16    37    1
    40    17    38    1
    41    18    39    1
    42    19    40    1
    43    27    41    1
@<TRIPOS>MOLECULE
mol8_1_2
 41 43 0 0 0
SMALL
USER_CHARGES
****
VDW energy = -25.27
@<TRIPOS>ATOM
   1 N1        3.5126    -9.1101    -5.4025  N.am    1  <O>11      -0.3253
   2 C1        2.8552    -9.8129    -4.4288  C.2     1  <O>11       0.2415
   3 O1        3.4454   -10.1461    -3.4119  O.2     1  <O>11      -0.2704
   4 C2        1.4620   -10.1610    -4.6040  C.ar    1  <O>11       0.0368
   5 C3        0.4753    -9.2803    -4.1539  C.ar    1  <O>11      -0.0496
   6 C4       -0.8742    -9.6160    -4.3087  C.ar    1  <O>11      -0.0607
   7 C5       -1.2337   -10.8229    -4.9139  C.ar    1  <O>11      -0.0568
   8 C6       -0.2346   -11.6920    -5.3661  C.ar    1  <O>11      -0.0253
   9 C7       -0.6192   -12.9650    -6.0063  C.3     1  <O>11       0.0703
  10 N2       -0.7600   -12.7652    -7.4356  N.ar    1  <O>11      -0.2241
  11 N3       -0.3425   -11.5791    -8.0208  N.ar    1  <O>11      -0.1679
  12 C8       -0.4846   -11.3909    -9.3401  C.ar    1  <O>11       0.0921
  13 C9       -0.0309   -10.1497    -9.8762  C.ar    1  <O>11       0.0021
  14 C10      -0.5834    -8.9383    -9.4270  C.ar    1  <O>11      -0.0525
  15 C11      -0.1471    -7.7225    -9.9618  C.ar    1  <O>11      -0.0611
  16 C12       0.8461    -7.7028   -10.9444  C.ar    1  <O>11      -0.0617
  17 C13       1.4010    -8.9082   -11.3882  C.ar    1  <O>11      -0.0611
  18 C14       0.9723   -10.1263   -10.8585  C.ar    1  <O>11      -0.0525
  19 C15      -1.0434   -12.3467   -10.1607  C.ar    1  <O>11      -0.0171
  20 C16      -1.4672   -13.5518    -9.5898  C.ar    1  <O>11       0.1225
  21 C17      -2.0771   -14.6064   -10.4228  C.3     1  <O>11       0.4225
  22 F1       -3.4448   -14.4211   -10.4723  F       1  <O>11      -0.1657
  23 F2       -1.8002   -15.8441    -9.8769  F       1  <O>11      -0.1657
  24 F3       -1.5580   -14.5415   -11.7016  F       1  <O>11      -0.1657
  25 C18      -1.3093   -13.7498    -8.2233  C.ar    1  <O>11       0.2793
  26 O2       -1.7090   -14.9612    -7.6286  O.2     1  <O>11      -0.2656
  27 C19       1.1140   -11.3653    -5.2175  C.ar    1  <O>11      -0.0447
  28 H1        3.0200    -8.8319    -6.2513  H       1  <O>11       0.1453
  29 H2        4.4949    -8.8646    -5.2793  H       1  <O>11       0.1453
  30 H3       -1.5672   -13.3076    -5.5915  H       1  <O>11       0.0560
  31 H4        0.1512   -13.7131    -5.8168  H       1  <O>11       0.0560
  32 H5        0.7403    -8.3872    -3.7098  H       1  <O>11       0.0625
  33 H6       -1.6064    -8.9700    -3.9748  H       1  <O>11       0.0618
  34 H7       -2.2289   -11.0716    -5.0266  H       1  <O>11       0.0621
  35 H8       -1.3147    -8.9461    -8.6988  H       1  <O>11       0.0624
  36 H9       -0.5599    -6.8368    -9.6299  H       1  <O>11       0.0618
  37 H10       1.1681    -6.8057   -11.3400  H       1  <O>11       0.0618
  38 H11       2.1344    -8.8964   -12.1141  H       1  <O>11       0.0618
  39 H12       1.3924   -11.0092   -11.1886  H       1  <O>11       0.0624
  40 H13      -1.1470   -12.1775   -11.1734  H       1  <O>11       0.0647
  41 H14       1.8465   -12.0078    -5.5578  H       1  <O>11       0.0628
@<TRIPOS>BOND
     1     1     2   am
     2     2     3    2
     3     2     4    1
     4     4     5   ar
     5     5     6   ar
     6     6     7   ar
     7     7     8   ar
     8     8     9    1
     9     9    10    1
    10    10    11   ar
    11    11    12   ar
    12    12    13    1
    13    13    14   ar
    14    14    15   ar
    15    15    16   ar
    16    16    17   ar
    17    17    18   ar
    18    13    18   ar
    19    12    19   ar
    20    19    20   ar
    21    20    21    1
    22    21    22    1
    23    21    23    1
    24    21    24    1
    25    20    25   ar
    26    10    25   ar
    27    25    26    2
    28     8    27   ar
    29     4    27   ar
    30     1    28    1
    31     1    29    1
    32     9    30    1
    33     9    31    1
    34     5    32    1
    35     6    33    1
    36     7    34    1
    37    14    35    1
    38    15    36    1
    39    16    37    1
    40    17    38    1
    41    18    39    1
    42    19    40    1
    43    27    41    1
@<TRIPOS>MOLECULE
mol8_1_3
 41 43 0 0 0
SMALL
USER_CHARGES
****
VDW energy = -24.95
@<TRIPOS>ATOM
   1 N1        3.5126    -9.1101    -5.4025  N.am    1  <O>11      -0.3253
   2 C1        2.8552    -9.8129    -4.4288  C.2     1  <O>11       0.2415
   3 O1        3.4454   -10.1461    -3.4119  O.2     1  <O>11      -0.2704
   4 C2        1.4620   -10.1610    -4.6040  C.ar    1  <O>11       0.0368
   5 C3        1.0119   -10.5678    -5.8624  C.ar    1  <O>11      -0.0496
   6 C4       -0.3368   -10.8940    -6.0423  C.ar    1  <O>11      -0.0607
   7 C5       -1.2280   -10.8179    -4.9689  C.ar    1  <O>11      -0.0568
   8 C6       -0.7615   -10.4156    -3.7126  C.ar    1  <O>11      -0.0253
   9 C7       -1.7062   -10.3383    -2.5813  C.3     1  <O>11       0.0703
  10 N2       -1.7443   -11.6146    -1.8941  N.ar    1  <O>11      -0.2241
  11 N3       -0.8190   -12.6017    -2.1995  N.ar    1  <O>11      -0.1679
  12 C8       -0.8632   -13.7853    -1.5725  C.ar    1  <O>11       0.0921
  13 C9        0.1204   -14.7532    -1.9326  C.ar    1  <O>11       0.0021
  14 C10       0.2091   -15.2161    -3.2564  C.ar    1  <O>11      -0.0525
  15 C11       1.1653   -16.1742    -3.6062  C.ar    1  <O>11      -0.0611
  16 C12       2.0438   -16.6752    -2.6421  C.ar    1  <O>11      -0.0617
  17 C13       1.9601   -16.2106    -1.3249  C.ar    1  <O>11      -0.0611
  18 C14       1.0095   -15.2532    -0.9674  C.ar    1  <O>11      -0.0525
  19 C15      -1.8125   -14.0728    -0.6156  C.ar    1  <O>11      -0.0171
  20 C16      -2.7524   -13.0885    -0.2907  C.ar    1  <O>11       0.1225
  21 C17      -3.7935   -13.3468     0.7230  C.3     1  <O>11       0.4225
  22 F1       -3.6682   -12.4368     1.7542  F       1  <O>11      -0.1657
  23 F2       -3.6475   -14.6271     1.2191  F       1  <O>11      -0.1657
  24 F3       -5.0417   -13.2174     0.1449  F       1  <O>11      -0.1657
  25 C18      -2.6987   -11.8578    -0.9340  C.ar    1  <O>11       0.2793
  26 O2       -3.6202   -10.8445    -0.6102  O.2     1  <O>11      -0.2656
  27 C19       0.5822   -10.0896    -3.5229  C.ar    1  <O>11      -0.0447
  28 H1        3.0200    -8.8319    -6.2513  H       1  <O>11       0.1453
  29 H2        4.4949    -8.8646    -5.2793  H       1  <O>11       0.1453
  30 H3       -2.7010   -10.0965    -2.9554  H       1  <O>11       0.0560
  31 H4       -1.3801    -9.5613    -1.8894  H       1  <O>11       0.0560
  32 H5        1.6704   -10.6273    -6.6548  H       1  <O>11       0.0625
  33 H6       -0.6744   -11.1918    -6.9709  H       1  <O>11       0.0618
  34 H7       -2.2232   -11.0568    -5.1017  H       1  <O>11       0.0621
  35 H8       -0.4345   -14.8471    -3.9737  H       1  <O>11       0.0624
  36 H9        1.2225   -16.5124    -4.5796  H       1  <O>11       0.0618
  37 H10       2.7495   -17.3829    -2.8996  H       1  <O>11       0.0618
  38 H11       2.6075   -16.5794    -0.6109  H       1  <O>11       0.0618
  39 H12       0.9601   -14.9130     0.0056  H       1  <O>11       0.0624
  40 H13      -1.8297   -14.9933    -0.1494  H       1  <O>11       0.0647
  41 H14       0.9217    -9.7986    -2.5928  H       1  <O>11       0.0628
@<TRIPOS>BOND
     1     1     2   am
     2     2     3    2
     3     2     4    1
     4     4     5   ar
     5     5     6   ar
     6     6     7   ar
     7     7     8   ar
     8     8     9    1
     9     9    10    1
    10    10    11   ar
    11    11    12   ar
    12    12    13    1
    13    13    14   ar
    14    14    15   ar
    15    15    16   ar
    16    16    17   ar
    17    17    18   ar
    18    13    18   ar
    19    12    19   ar
    20    19    20   ar
    21    20    21    1
    22    21    22    1
    23    21    23    1
    24    21    24    1
    25    20    25   ar
    26    10    25   ar
    27    25    26    2
    28     8    27   ar
    29     4    27   ar
    30     1    28    1
    31     1    29    1
    32     9    30    1
    33     9    31    1
    34     5    32    1
    35     6    33    1
    36     7    34    1
    37    14    35    1
    38    15    36    1
    39    16    37    1
    40    17    38    1
    41    18    39    1
    42    19    40    1
    43    27    41    1
@<TRIPOS>MOLECULE
mol8_1_4
 41 43 0 0 0
SMALL
USER_CHARGES
****
VDW energy = -24.94
@<TRIPOS>ATOM
   1 N1        3.5126    -9.1101    -5.4025  N.am    1  <O>11      -0.3253
   2 C1        2.8552    -9.8129    -4.4288  C.2     1  <O>11       0.2415
   3 O1        3.4454   -10.1461    -3.4119  O.2     1  <O>11      -0.2704
   4 C2        1.4620   -10.1610    -4.6040  C.ar    1  <O>11       0.0368
   5 C3        1.0119   -10.5678    -5.8624  C.ar    1  <O>11      -0.0496
   6 C4       -0.3368   -10.8940    -6.0423  C.ar    1  <O>11      -0.0607
   7 C5       -1.2280   -10.8179    -4.9689  C.ar    1  <O>11      -0.0568
   8 C6       -0.7615   -10.4156    -3.7126  C.ar    1  <O>11      -0.0253
   9 C7       -1.7062   -10.3383    -2.5813  C.3     1  <O>11       0.0703
  10 N2       -1.7443   -11.6146    -1.8941  N.ar    1  <O>11      -0.2241
  11 N3       -0.8190   -12.6017    -2.1995  N.ar    1  <O>11      -0.1679
  12 C8       -0.8632   -13.7853    -1.5725  C.ar    1  <O>11       0.0921
  13 C9        0.1204   -14.7532    -1.9326  C.ar    1  <O>11       0.0021
  14 C10       0.2091   -15.2161    -3.2564  C.ar    1  <O>11      -0.0525
  15 C11       1.1653   -16.1742    -3.6062  C.ar    1  <O>11      -0.0611
  16 C12       2.0438   -16.6752    -2.6421  C.ar    1  <O>11      -0.0617
  17 C13       1.9601   -16.2106    -1.3249  C.ar    1  <O>11      -0.0611
  18 C14       1.0095   -15.2532    -0.9674  C.ar    1  <O>11      -0.0525
  19 C15      -1.8125   -14.0728    -0.6156  C.ar    1  <O>11      -0.0171
  20 C16      -2.7524   -13.0885    -0.2907  C.ar    1  <O>11       0.1225
  21 C17      -3.7935   -13.3468     0.7230  C.3     1  <O>11       0.4225
  22 F1       -3.6459   -14.6272     1.2191  F       1  <O>11      -0.1657
  23 F2       -5.0415   -13.2181     0.1463  F       1  <O>11      -0.1657
  24 F3       -3.6679   -12.4366     1.7549  F       1  <O>11      -0.1657
  25 C18      -2.6987   -11.8578    -0.9340  C.ar    1  <O>11       0.2793
  26 O2       -3.6202   -10.8445    -0.6102  O.2     1  <O>11      -0.2656
  27 C19       0.5822   -10.0896    -3.5229  C.ar    1  <O>11      -0.0447
  28 H1        3.0200    -8.8319    -6.2513  H       1  <O>11       0.1453
  29 H2        4.4949    -8.8646    -5.2793  H       1  <O>11       0.1453
  30 H3       -2.7010   -10.0965    -2.9554  H       1  <O>11       0.0560
  31 H4       -1.3801    -9.5613    -1.8894  H       1  <O>11       0.0560
  32 H5        1.6704   -10.6273    -6.6548  H       1  <O>11       0.0625
  33 H6       -0.6744   -11.1918    -6.9709  H       1  <O>11       0.0618
  34 H7       -2.2232   -11.0568    -5.1017  H       1  <O>11       0.0621
  35 H8       -0.4345   -14.8471    -3.9737  H       1  <O>11       0.0624
  36 H9        1.2225   -16.5124    -4.5796  H       1  <O>11       0.0618
  37 H10       2.7495   -17.3829    -2.8996  H       1  <O>11       0.0618
  38 H11       2.6075   -16.5794    -0.6109  H       1  <O>11       0.0618
  39 H12       0.9601   -14.9130     0.0056  H       1  <O>11       0.0624
  40 H13      -1.8297   -14.9933    -0.1494  H       1  <O>11       0.0647
  41 H14       0.9217    -9.7986    -2.5928  H       1  <O>11       0.0628
@<TRIPOS>BOND
     1     1     2   am
     2     2     3    2
     3     2     4    1
     4     4     5   ar
     5     5     6   ar
     6     6     7   ar
     7     7     8   ar
     8     8     9    1
     9     9    10    1
    10    10    11   ar
    11    11    12   ar
    12    12    13    1
    13    13    14   ar
    14    14    15   ar
    15    15    16   ar
    16    16    17   ar
    17    17    18   ar
    18    13    18   ar
    19    12    19   ar
    20    19    20   ar
    21    20    21    1
    22    21    22    1
    23    21    23    1
    24    21    24    1
    25    20    25   ar
    26    10    25   ar
    27    25    26    2
    28     8    27   ar
    29     4    27   ar
    30     1    28    1
    31     1    29    1
    32     9    30    1
    33     9    31    1
    34     5    32    1
    35     6    33    1
    36     7    34    1
    37    14    35    1
    38    15    36    1
    39    16    37    1
    40    17    38    1
    41    18    39    1
    42    19    40    1
    43    27    41    1
@<TRIPOS>MOLECULE
mol8_1_5
 41 43 0 0 0
SMALL
USER_CHARGES
****
VDW energy = -24.18
@<TRIPOS>ATOM
   1 N1        3.5126    -9.1101    -5.4025  N.am    1  <O>11      -0.3253
   2 C1        2.8552    -9.8129    -4.4288  C.2     1  <O>11       0.2415
   3 O1        3.4454   -10.1461    -3.4119  O.2     1  <O>11      -0.2704
   4 C2        1.4620   -10.1610    -4.6040  C.ar    1  <O>11       0.0368
   5 C3        1.0119   -10.5678    -5.8624  C.ar    1  <O>11      -0.0496
   6 C4       -0.3368   -10.8940    -6.0423  C.ar    1  <O>11      -0.0607
   7 C5       -1.2280   -10.8179    -4.9689  C.ar    1  <O>11      -0.0568
   8 C6       -0.7615   -10.4156    -3.7126  C.ar    1  <O>11      -0.0253
   9 C7       -1.7062   -10.3383    -2.5813  C.3     1  <O>11       0.0703
  10 N2       -2.2880    -9.0113    -2.5260  N.ar    1  <O>11      -0.2241
  11 N3       -2.0894    -8.1161    -3.5667  N.ar    1  <O>11      -0.1679
  12 C8       -2.6174    -6.8858    -3.5085  C.ar    1  <O>11       0.0921
  13 C9       -2.3767    -6.0180    -4.6144  C.ar    1  <O>11       0.0021
  14 C10      -1.0627    -5.6699    -4.9705  C.ar    1  <O>11      -0.0525
  15 C11      -0.8279    -4.8092    -6.0469  C.ar    1  <O>11      -0.0611
  16 C12      -1.8991    -4.2924    -6.7804  C.ar    1  <O>11      -0.0617
  17 C13      -3.2076    -4.6431    -6.4302  C.ar    1  <O>11      -0.0611
  18 C14      -3.4509    -5.5029    -5.3580  C.ar    1  <O>11      -0.0525
  19 C15      -3.3655    -6.4594    -2.4325  C.ar    1  <O>11      -0.0171
  20 C16      -3.5806    -7.3492    -1.3743  C.ar    1  <O>11       0.1225
  21 C17      -4.3699    -6.9412    -0.1959  C.3     1  <O>11       0.4225
  22 F1       -4.7974    -5.6379    -0.3565  F       1  <O>11      -0.1657
  23 F2       -3.5874    -7.0322     0.9381  F       1  <O>11      -0.1657
  24 F3       -5.4664    -7.7718    -0.0655  F       1  <O>11      -0.1657
  25 C18      -3.0415    -8.6284    -1.4409  C.ar    1  <O>11       0.2793
  26 O2       -3.2607    -9.5484    -0.3985  O.2     1  <O>11      -0.2656
  27 C19       0.5822   -10.0896    -3.5229  C.ar    1  <O>11      -0.0447
  28 H1        3.0200    -8.8319    -6.2513  H       1  <O>11       0.1453
  29 H2        4.4949    -8.8646    -5.2793  H       1  <O>11       0.1453
  30 H3       -1.1756   -10.5422    -1.6512  H       1  <O>11       0.0560
  31 H4       -2.4961   -11.0774    -2.7177  H       1  <O>11       0.0560
  32 H5        1.6704   -10.6273    -6.6548  H       1  <O>11       0.0625
  33 H6       -0.6744   -11.1918    -6.9709  H       1  <O>11       0.0618
  34 H7       -2.2232   -11.0568    -5.1017  H       1  <O>11       0.0621
  35 H8       -0.2673    -6.0513    -4.4349  H       1  <O>11       0.0624
  36 H9        0.1395    -4.5548    -6.3007  H       1  <O>11       0.0618
  37 H10      -1.7264    -3.6565    -7.5747  H       1  <O>11       0.0618
  38 H11      -4.0005    -4.2625    -6.9700  H       1  <O>11       0.0618
  39 H12      -4.4196    -5.7598    -5.1118  H       1  <O>11       0.0624
  40 H13      -3.7582    -5.5054    -2.4078  H       1  <O>11       0.0647
  41 H14       0.9217    -9.7986    -2.5928  H       1  <O>11       0.0628
@<TRIPOS>BOND
     1     1     2   am
     2     2     3    2
     3     2     4    1
     4     4     5   ar
     5     5     6   ar
     6     6     7   ar
     7     7     8   ar
     8     8     9    1
     9     9    10    1
    10    10    11   ar
    11    11    12   ar
    12    12    13    1
    13    13    14   ar
    14    14    15   ar
    15    15    16   ar
    16    16    17   ar
    17    17    18   ar
    18    13    18   ar
    19    12    19   ar
    20    19    20   ar
    21    20    21    1
    22    21    22    1
    23    21    23    1
    24    21    24    1
    25    20    25   ar
    26    10    25   ar
    27    25    26    2
    28     8    27   ar
    29     4    27   ar
    30     1    28    1
    31     1    29    1
    32     9    30    1
    33     9    31    1
    34     5    32    1
    35     6    33    1
    36     7    34    1
    37    14    35    1
    38    15    36    1
    39    16    37    1
    40    17    38    1
    41    18    39    1
    42    19    40    1
    43    27    41    1
@<TRIPOS>MOLECULE
mol8_1_6
 41 43 0 0 0
SMALL
USER_CHARGES
****
VDW energy = -23.19
@<TRIPOS>ATOM
   1 N1        3.5126    -9.1101    -5.4025  N.am    1  <O>11      -0.3253
   2 C1        2.8552    -9.8129    -4.4288  C.2     1  <O>11       0.2415
   3 O1        3.4454   -10.1461    -3.4119  O.2     1  <O>11      -0.2704
   4 C2        1.4620   -10.1610    -4.6040  C.ar    1  <O>11       0.0368
   5 C3        1.0119   -10.5678    -5.8624  C.ar    1  <O>11      -0.0496
   6 C4       -0.3368   -10.8940    -6.0423  C.ar    1  <O>11      -0.0607
   7 C5       -1.2280   -10.8179    -4.9689  C.ar    1  <O>11      -0.0568
   8 C6       -0.7615   -10.4156    -3.7126  C.ar    1  <O>11      -0.0253
   9 C7       -1.7062   -10.3383    -2.5813  C.3     1  <O>11       0.0703
  10 N2       -1.7443   -11.6146    -1.8941  N.ar    1  <O>11      -0.2241
  11 N3       -0.8190   -12.6017    -2.1995  N.ar    1  <O>11      -0.1679
  12 C8       -0.8632   -13.7853    -1.5725  C.ar    1  <O>11       0.0921
  13 C9        0.1204   -14.7532    -1.9326  C.ar    1  <O>11       0.0021
  14 C10       0.2091   -15.2161    -3.2564  C.ar    1  <O>11      -0.0525
  15 C11       1.1653   -16.1742    -3.6062  C.ar    1  <O>11      -0.0611
  16 C12       2.0438   -16.6752    -2.6421  C.ar    1  <O>11      -0.0617
  17 C13       1.9601   -16.2106    -1.3249  C.ar    1  <O>11      -0.0611
  18 C14       1.0095   -15.2532    -0.9674  C.ar    1  <O>11      -0.0525
  19 C15      -1.8125   -14.0728    -0.6156  C.ar    1  <O>11      -0.0171
  20 C16      -2.7524   -13.0885    -0.2907  C.ar    1  <O>11       0.1225
  21 C17      -3.7935   -13.3468     0.7230  C.3     1  <O>11       0.4225
  22 F1       -4.9112   -13.8785     0.1103  F       1  <O>11      -0.1657
  23 F2       -4.1316   -12.1637     1.3496  F       1  <O>11      -0.1657
  24 F3       -3.3130   -14.2419     1.6594  F       1  <O>11      -0.1657
  25 C18      -2.6987   -11.8578    -0.9340  C.ar    1  <O>11       0.2793
  26 O2       -3.6202   -10.8445    -0.6102  O.2     1  <O>11      -0.2656
  27 C19       0.5822   -10.0896    -3.5229  C.ar    1  <O>11      -0.0447
  28 H1        3.0200    -8.8319    -6.2513  H       1  <O>11       0.1453
  29 H2        4.4949    -8.8646    -5.2793  H       1  <O>11       0.1453
  30 H3       -2.7010   -10.0965    -2.9554  H       1  <O>11       0.0560
  31 H4       -1.3801    -9.5613    -1.8894  H       1  <O>11       0.0560
  32 H5        1.6704   -10.6273    -6.6548  H       1  <O>11       0.0625
  33 H6       -0.6744   -11.1918    -6.9709  H       1  <O>11       0.0618
  34 H7       -2.2232   -11.0568    -5.1017  H       1  <O>11       0.0621
  35 H8       -0.4345   -14.8471    -3.9737  H       1  <O>11       0.0624
  36 H9        1.2225   -16.5124    -4.5796  H       1  <O>11       0.0618
  37 H10       2.7495   -17.3829    -2.8996  H       1  <O>11       0.0618
  38 H11       2.6075   -16.5794    -0.6109  H       1  <O>11       0.0618
  39 H12       0.9601   -14.9130     0.0056  H       1  <O>11       0.0624
  40 H13      -1.8297   -14.9933    -0.1494  H       1  <O>11       0.0647
  41 H14       0.9217    -9.7986    -2.5928  H       1  <O>11       0.0628
@<TRIPOS>BOND
     1     1     2   am
     2     2     3    2
     3     2     4    1
     4     4     5   ar
     5     5     6   ar
     6     6     7   ar
     7     7     8   ar
     8     8     9    1
     9     9    10    1
    10    10    11   ar
    11    11    12   ar
    12    12    13    1
    13    13    14   ar
    14    14    15   ar
    15    15    16   ar
    16    16    17   ar
    17    17    18   ar
    18    13    18   ar
    19    12    19   ar
    20    19    20   ar
    21    20    21    1
    22    21    22    1
    23    21    23    1
    24    21    24    1
    25    20    25   ar
    26    10    25   ar
    27    25    26    2
    28     8    27   ar
    29     4    27   ar
    30     1    28    1
    31     1    29    1
    32     9    30    1
    33     9    31    1
    34     5    32    1
    35     6    33    1
    36     7    34    1
    37    14    35    1
    38    15    36    1
    39    16    37    1
    40    17    38    1
    41    18    39    1
    42    19    40    1
    43    27    41    1
@<TRIPOS>MOLECULE
mol8_1_7
 41 43 0 0 0
SMALL
USER_CHARGES
****
VDW energy = -22.56
@<TRIPOS>ATOM
   1 N1        3.5126    -9.1101    -5.4025  N.am    1  <O>11      -0.3253
   2 C1        2.8552    -9.8129    -4.4288  C.2     1  <O>11       0.2415
   3 O1        3.4454   -10.1461    -3.4119  O.2     1  <O>11      -0.2704
   4 C2        1.4620   -10.1610    -4.6040  C.ar    1  <O>11       0.0368
   5 C3        1.0119   -10.5678    -5.8624  C.ar    1  <O>11      -0.0496
   6 C4       -0.3368   -10.8940    -6.0423  C.ar    1  <O>11      -0.0607
   7 C5       -1.2280   -10.8179    -4.9689  C.ar    1  <O>11      -0.0568
   8 C6       -0.7615   -10.4156    -3.7126  C.ar    1  <O>11      -0.0253
   9 C7       -1.7062   -10.3383    -2.5813  C.3     1  <O>11       0.0703
  10 N2       -2.2880    -9.0113    -2.5260  N.ar    1  <O>11      -0.2241
  11 N3       -2.0894    -8.1161    -3.5667  N.ar    1  <O>11      -0.1679
  12 C8       -2.6174    -6.8858    -3.5085  C.ar    1  <O>11       0.0921
  13 C9       -2.3767    -6.0180    -4.6144  C.ar    1  <O>11       0.0021
  14 C10      -1.0627    -5.6699    -4.9705  C.ar    1  <O>11      -0.0525
  15 C11      -0.8279    -4.8092    -6.0469  C.ar    1  <O>11      -0.0611
  16 C12      -1.8991    -4.2924    -6.7804  C.ar    1  <O>11      -0.0617
  17 C13      -3.2076    -4.6431    -6.4302  C.ar    1  <O>11      -0.0611
  18 C14      -3.4509    -5.5029    -5.3580  C.ar    1  <O>11      -0.0525
  19 C15      -3.3655    -6.4594    -2.4325  C.ar    1  <O>11      -0.0171
  20 C16      -3.5806    -7.3492    -1.3743  C.ar    1  <O>11       0.1225
  21 C17      -4.3699    -6.9412    -0.1959  C.3     1  <O>11       0.4225
  22 F1       -5.7014    -7.2411    -0.4070  F       1  <O>11      -0.1657
  23 F2       -4.2308    -5.5823     0.0052  F       1  <O>11      -0.1657
  24 F3       -3.9172    -7.6196     0.9194  F       1  <O>11      -0.1657
  25 C18      -3.0415    -8.6284    -1.4409  C.ar    1  <O>11       0.2793
  26 O2       -3.2607    -9.5484    -0.3985  O.2     1  <O>11      -0.2656
  27 C19       0.5822   -10.0896    -3.5229  C.ar    1  <O>11      -0.0447
  28 H1        3.0200    -8.8319    -6.2513  H       1  <O>11       0.1453
  29 H2        4.4949    -8.8646    -5.2793  H       1  <O>11       0.1453
  30 H3       -1.1756   -10.5422    -1.6512  H       1  <O>11       0.0560
  31 H4       -2.4961   -11.0774    -2.7177  H       1  <O>11       0.0560
  32 H5        1.6704   -10.6273    -6.6548  H       1  <O>11       0.0625
  33 H6       -0.6744   -11.1918    -6.9709  H       1  <O>11       0.0618
  34 H7       -2.2232   -11.0568    -5.1017  H       1  <O>11       0.0621
  35 H8       -0.2673    -6.0513    -4.4349  H       1  <O>11       0.0624
  36 H9        0.1395    -4.5548    -6.3007  H       1  <O>11       0.0618
  37 H10      -1.7264    -3.6565    -7.5747  H       1  <O>11       0.0618
  38 H11      -4.0005    -4.2625    -6.9700  H       1  <O>11       0.0618
  39 H12      -4.4196    -5.7598    -5.1118  H       1  <O>11       0.0624
  40 H13      -3.7582    -5.5054    -2.4078  H       1  <O>11       0.0647
  41 H14       0.9217    -9.7986    -2.5928  H       1  <O>11       0.0628
@<TRIPOS>BOND
     1     1     2   am
     2     2     3    2
     3     2     4    1
     4     4     5   ar
     5     5     6   ar
     6     6     7   ar
     7     7     8   ar
     8     8     9    1
     9     9    10    1
    10    10    11   ar
    11    11    12   ar
    12    12    13    1
    13    13    14   ar
    14    14    15   ar
    15    15    16   ar
    16    16    17   ar
    17    17    18   ar
    18    13    18   ar
    19    12    19   ar
    20    19    20   ar
    21    20    21    1
    22    21    22    1
    23    21    23    1
    24    21    24    1
    25    20    25   ar
    26    10    25   ar
    27    25    26    2
    28     8    27   ar
    29     4    27   ar
    30     1    28    1
    31     1    29    1
    32     9    30    1
    33     9    31    1
    34     5    32    1
    35     6    33    1
    36     7    34    1
    37    14    35    1
    38    15    36    1
    39    16    37    1
    40    17    38    1
    41    18    39    1
    42    19    40    1
    43    27    41    1
@<TRIPOS>MOLECULE
mol8_1_8
 41 43 0 0 0
SMALL
USER_CHARGES
****
VDW energy = -22.43
@<TRIPOS>ATOM
   1 N1        3.5126    -9.1101    -5.4025  N.am    1  <O>11      -0.3253
   2 C1        2.8552    -9.8129    -4.4288  C.2     1  <O>11       0.2415
   3 O1        3.4454   -10.1461    -3.4119  O.2     1  <O>11      -0.2704
   4 C2        1.4620   -10.1610    -4.6040  C.ar    1  <O>11       0.0368
   5 C3        1.0119   -10.5678    -5.8624  C.ar    1  <O>11      -0.0496
   6 C4       -0.3368   -10.8940    -6.0423  C.ar    1  <O>11      -0.0607
   7 C5       -1.2280   -10.8179    -4.9689  C.ar    1  <O>11      -0.0568
   8 C6       -0.7615   -10.4156    -3.7126  C.ar    1  <O>11      -0.0253
   9 C7       -1.7062   -10.3383    -2.5813  C.3     1  <O>11       0.0703
  10 N2       -2.2880    -9.0113    -2.5260  N.ar    1  <O>11      -0.2241
  11 N3       -2.0894    -8.1161    -3.5667  N.ar    1  <O>11      -0.1679
  12 C8       -2.6174    -6.8858    -3.5085  C.ar    1  <O>11       0.0921
  13 C9       -2.3767    -6.0180    -4.6144  C.ar    1  <O>11       0.0021
  14 C10      -1.0627    -5.6699    -4.9705  C.ar    1  <O>11      -0.0525
  15 C11      -0.8279    -4.8092    -6.0469  C.ar    1  <O>11      -0.0611
  16 C12      -1.8991    -4.2924    -6.7804  C.ar    1  <O>11      -0.0617
  17 C13      -3.2076    -4.6431    -6.4302  C.ar    1  <O>11      -0.0611
  18 C14      -3.4509    -5.5029    -5.3580  C.ar    1  <O>11      -0.0525
  19 C15      -3.3655    -6.4594    -2.4325  C.ar    1  <O>11      -0.0171
  20 C16      -3.5806    -7.3492    -1.3743  C.ar    1  <O>11       0.1225
  21 C17      -4.3699    -6.9412    -0.1959  C.3     1  <O>11       0.4225
  22 F1       -3.5312    -6.3867     0.7509  F       1  <O>11      -0.1657
  23 F2       -5.0030    -8.0449     0.3405  F       1  <O>11      -0.1657
  24 F3       -5.3156    -6.0081    -0.5752  F       1  <O>11      -0.1657
  25 C18      -3.0415    -8.6284    -1.4409  C.ar    1  <O>11       0.2793
  26 O2       -3.2607    -9.5484    -0.3985  O.2     1  <O>11      -0.2656
  27 C19       0.5822   -10.0896    -3.5229  C.ar    1  <O>11      -0.0447
  28 H1        3.0200    -8.8319    -6.2513  H       1  <O>11       0.1453
  29 H2        4.4949    -8.8646    -5.2793  H       1  <O>11       0.1453
  30 H3       -1.1756   -10.5422    -1.6512  H       1  <O>11       0.0560
  31 H4       -2.4961   -11.0774    -2.7177  H       1  <O>11       0.0560
  32 H5        1.6704   -10.6273    -6.6548  H       1  <O>11       0.0625
  33 H6       -0.6744   -11.1918    -6.9709  H       1  <O>11       0.0618
  34 H7       -2.2232   -11.0568    -5.1017  H       1  <O>11       0.0621
  35 H8       -0.2673    -6.0513    -4.4349  H       1  <O>11       0.0624
  36 H9        0.1395    -4.5548    -6.3007  H       1  <O>11       0.0618
  37 H10      -1.7264    -3.6565    -7.5747  H       1  <O>11       0.0618
  38 H11      -4.0005    -4.2625    -6.9700  H       1  <O>11       0.0618
  39 H12      -4.4196    -5.7598    -5.1118  H       1  <O>11       0.0624
  40 H13      -3.7582    -5.5054    -2.4078  H       1  <O>11       0.0647
  41 H14       0.9217    -9.7986    -2.5928  H       1  <O>11       0.0628
@<TRIPOS>BOND
     1     1     2   am
     2     2     3    2
     3     2     4    1
     4     4     5   ar
     5     5     6   ar
     6     6     7   ar
     7     7     8   ar
     8     8     9    1
     9     9    10    1
    10    10    11   ar
    11    11    12   ar
    12    12    13    1
    13    13    14   ar
    14    14    15   ar
    15    15    16   ar
    16    16    17   ar
    17    17    18   ar
    18    13    18   ar
    19    12    19   ar
    20    19    20   ar
    21    20    21    1
    22    21    22    1
    23    21    23    1
    24    21    24    1
    25    20    25   ar
    26    10    25   ar
    27    25    26    2
    28     8    27   ar
    29     4    27   ar
    30     1    28    1
    31     1    29    1
    32     9    30    1
    33     9    31    1
    34     5    32    1
    35     6    33    1
    36     7    34    1
    37    14    35    1
    38    15    36    1
    39    16    37    1
    40    17    38    1
    41    18    39    1
    42    19    40    1
    43    27    41    1
@<TRIPOS>MOLECULE
mol8_1_9
 41 43 0 0 0
SMALL
USER_CHARGES
****
VDW energy = -20.93
@<TRIPOS>ATOM
   1 N1        3.5126    -9.1101    -5.4025  N.am    1  <O>11      -0.3253
   2 C1        2.8552    -9.8129    -4.4288  C.2     1  <O>11       0.2415
   3 O1        3.4454   -10.1461    -3.4119  O.2     1  <O>11      -0.2704
   4 C2        1.4620   -10.1610    -4.6040  C.ar    1  <O>11       0.0368
   5 C3        1.1317   -11.3708    -5.2197  C.ar    1  <O>11      -0.0496
   6 C4       -0.2136   -11.7084    -5.4038  C.ar    1  <O>11      -0.0607
   7 C5       -1.2215   -10.8431    -4.9705  C.ar    1  <O>11      -0.0568
   8 C6       -0.8757    -9.6381    -4.3492  C.ar    1  <O>11      -0.0253
   9 C7       -1.9437    -8.7280    -3.8917  C.3     1  <O>11       0.0703
  10 N2       -2.7566    -8.3273    -5.0237  N.ar    1  <O>11      -0.2241
  11 N3       -2.6023    -8.9526    -6.2522  N.ar    1  <O>11      -0.1679
  12 C8       -3.3455    -8.5729    -7.3007  C.ar    1  <O>11       0.0921
  13 C9       -3.1377    -9.2604    -8.5328  C.ar    1  <O>11       0.0021
  14 C10      -1.8751    -9.2458    -9.1495  C.ar    1  <O>11      -0.0525
  15 C11      -1.6751    -9.9095   -10.3636  C.ar    1  <O>11      -0.0611
  16 C12      -2.7292   -10.5972   -10.9707  C.ar    1  <O>11      -0.0617
  17 C13      -3.9852   -10.6173   -10.3544  C.ar    1  <O>11      -0.0611
  18 C14      -4.1931    -9.9586    -9.1416  C.ar    1  <O>11      -0.0525
  19 C15      -4.2777    -7.5618    -7.2105  C.ar    1  <O>11      -0.0171
  20 C16      -4.4510    -6.9215    -5.9786  C.ar    1  <O>11       0.1225
  21 C17      -5.4321    -5.8290    -5.8292  C.3     1  <O>11       0.4225
  22 F1       -4.8220    -4.6211    -6.1050  F       1  <O>11      -0.1657
  23 F2       -5.9149    -5.8156    -4.5356  F       1  <O>11      -0.1657
  24 F3       -6.4793    -6.0265    -6.7086  F       1  <O>11      -0.1657
  25 C18      -3.6872    -7.3236    -4.8894  C.ar    1  <O>11       0.2793
  26 O2       -3.8574    -6.7088    -3.6348  O.2     1  <O>11      -0.2656
  27 C19       0.4633    -9.2931    -4.1598  C.ar    1  <O>11      -0.0447
  28 H1        3.0200    -8.8319    -6.2513  H       1  <O>11       0.1453
  29 H2        4.4949    -8.8646    -5.2793  H       1  <O>11       0.1453
  30 H3       -1.4968    -7.8454    -3.4341  H       1  <O>11       0.0560
  31 H4       -2.5671    -9.2405    -3.1585  H       1  <O>11       0.0560
  32 H5        1.8757   -12.0117    -5.5369  H       1  <O>11       0.0625
  33 H6       -0.4623   -12.5995    -5.8611  H       1  <O>11       0.0618
  34 H7       -2.2138   -11.0910    -5.1078  H       1  <O>11       0.0621
  35 H8       -1.0918    -8.7427    -8.7041  H       1  <O>11       0.0624
  36 H9       -0.7462    -9.8916   -10.8128  H       1  <O>11       0.0618
  37 H10      -2.5823   -11.0868   -11.8672  H       1  <O>11       0.0618
  38 H11      -4.7654   -11.1241   -10.8010  H       1  <O>11       0.0618
  39 H12      -5.1219    -9.9846    -8.6926  H       1  <O>11       0.0624
  40 H13      -4.8353    -7.2834    -8.0330  H       1  <O>11       0.0647
  41 H14       0.7123    -8.4055    -3.6961  H       1  <O>11       0.0628
@<TRIPOS>BOND
     1     1     2   am
     2     2     3    2
     3     2     4    1
     4     4     5   ar
     5     5     6   ar
     6     6     7   ar
     7     7     8   ar
     8     8     9    1
     9     9    10    1
    10    10    11   ar
    11    11    12   ar
    12    12    13    1
    13    13    14   ar
    14    14    15   ar
    15    15    16   ar
    16    16    17   ar
    17    17    18   ar
    18    13    18   ar
    19    12    19   ar
    20    19    20   ar
    21    20    21    1
    22    21    22    1
    23    21    23    1
    24    21    24    1
    25    20    25   ar
    26    10    25   ar
    27    25    26    2
    28     8    27   ar
    29     4    27   ar
    30     1    28    1
    31     1    29    1
    32     9    30    1
    33     9    31    1
    34     5    32    1
    35     6    33    1
    36     7    34    1
    37    14    35    1
    38    15    36    1
    39    16    37    1
    40    17    38    1
    41    18    39    1
    42    19    40    1
    43    27    41    1
@<TRIPOS>MOLECULE
mol8_1_10
 41 43 0 0 0
SMALL
USER_CHARGES
****
VDW energy = -20.18
@<TRIPOS>ATOM
   1 N1        3.5126    -9.1101    -5.4025  N.am    1  <O>11      -0.3253
   2 C1        2.8552    -9.8129    -4.4288  C.2     1  <O>11       0.2415
   3 O1        3.4454   -10.1461    -3.4119  O.2     1  <O>11      -0.2704
   4 C2        1.4620   -10.1610    -4.6040  C.ar    1  <O>11       0.0368
   5 C3        0.7480   -10.6881    -3.5250  C.ar    1  <O>11      -0.0496
   6 C4       -0.5964   -11.0387    -3.6905  C.ar    1  <O>11      -0.0607
   7 C5       -1.2231   -10.8588    -4.9263  C.ar    1  <O>11      -0.0568
   8 C6       -0.4974   -10.3234    -5.9960  C.ar    1  <O>11      -0.0253
   9 C7       -1.1640   -10.1336    -7.2990  C.3     1  <O>11       0.0703
  10 N2       -1.7584    -8.8120    -7.3511  N.ar    1  <O>11      -0.2241
  11 N3       -1.4754    -7.8781    -6.3654  N.ar    1  <O>11      -0.1679
  12 C8       -2.0351    -6.6612    -6.4080  C.ar    1  <O>11       0.0921
  13 C9       -1.6977    -5.7493    -5.3647  C.ar    1  <O>11       0.0021
  14 C10      -1.9800    -6.0674    -4.0254  C.ar    1  <O>11      -0.0525
  15 C11      -1.6604    -5.1678    -3.0041  C.ar    1  <O>11      -0.0611
  16 C12      -1.0528    -3.9467    -3.3076  C.ar    1  <O>11      -0.0617
  17 C13      -0.7659    -3.6316    -4.6403  C.ar    1  <O>11      -0.0611
  18 C14      -1.0803    -4.5246    -5.6659  C.ar    1  <O>11      -0.0525
  19 C15      -2.9028    -6.2884    -7.4117  C.ar    1  <O>11      -0.0171
  20 C16      -3.1979    -7.2152    -8.4176  C.ar    1  <O>11       0.1225
  21 C17      -4.1250    -6.8687    -9.5125  C.3     1  <O>11       0.4225
  22 F1       -4.5795    -5.5761    -9.3394  F       1  <O>11      -0.1657
  23 F2       -5.1972    -7.7386    -9.5023  F       1  <O>11      -0.1657
  24 F3       -3.4657    -6.9659   -10.7228  F       1  <O>11      -0.1657
  25 C18      -2.6083    -8.4730    -8.3779  C.ar    1  <O>11       0.2793
  26 O2       -2.8733    -9.4156    -9.3890  O.2     1  <O>11      -0.2656
  27 C19       0.8435    -9.9693    -5.8404  C.ar    1  <O>11      -0.0447
  28 H1        3.0200    -8.8319    -6.2513  H       1  <O>11       0.1453
  29 H2        4.4949    -8.8646    -5.2793  H       1  <O>11       0.1453
  30 H3       -1.9417   -10.8875    -7.4217  H       1  <O>11       0.0560
  31 H4       -0.4307   -10.2354    -8.0995  H       1  <O>11       0.0560
  32 H5        1.2095   -10.8180    -2.6112  H       1  <O>11       0.0625
  33 H6       -1.1268   -11.4315    -2.8972  H       1  <O>11       0.0618
  34 H7       -2.2142   -11.1190    -5.0491  H       1  <O>11       0.0621
  35 H8       -2.4254    -6.9693    -3.7946  H       1  <O>11       0.0624
  36 H9       -1.8739    -5.4063    -2.0230  H       1  <O>11       0.0618
  37 H10      -0.8172    -3.2819    -2.5541  H       1  <O>11       0.0618
  38 H11      -0.3176    -2.7302    -4.8672  H       1  <O>11       0.0618
  39 H12      -0.8591    -4.2849    -6.6450  H       1  <O>11       0.0624
  40 H13      -3.3255    -5.3470    -7.4211  H       1  <O>11       0.0647
  41 H14       1.3724    -9.5698    -6.6315  H       1  <O>11       0.0628
@<TRIPOS>BOND
     1     1     2   am
     2     2     3    2
     3     2     4    1
     4     4     5   ar
     5     5     6   ar
     6     6     7   ar
     7     7     8   ar
     8     8     9    1
     9     9    10    1
    10    10    11   ar
    11    11    12   ar
    12    12    13    1
    13    13    14   ar
    14    14    15   ar
    15    15    16   ar
    16    16    17   ar
    17    17    18   ar
    18    13    18   ar
    19    12    19   ar
    20    19    20   ar
    21    20    21    1
    22    21    22    1
    23    21    23    1
    24    21    24    1
    25    20    25   ar
    26    10    25   ar
    27    25    26    2
    28     8    27   ar
    29     4    27   ar
    30     1    28    1
    31     1    29    1
    32     9    30    1
    33     9    31    1
    34     5    32    1
    35     6    33    1
    36     7    34    1
    37    14    35    1
    38    15    36    1
    39    16    37    1
    40    17    38    1
    41    18    39    1
    42    19    40    1
    43    27    41    1
@<TRIPOS>MOLECULE
mol8_1_11
 41 43 0 0 0
SMALL
USER_CHARGES
****
VDW energy = -18.25
@<TRIPOS>ATOM
   1 N1        3.5126    -9.1101    -5.4025  N.am    1  <O>11      -0.3253
   2 C1        2.8552    -9.8129    -4.4288  C.2     1  <O>11       0.2415
   3 O1        3.4454   -10.1461    -3.4119  O.2     1  <O>11      -0.2704
   4 C2        1.4620   -10.1610    -4.6040  C.ar    1  <O>11       0.0368
   5 C3        1.0119   -10.5678    -5.8624  C.ar    1  <O>11      -0.0496
   6 C4       -0.3368   -10.8940    -6.0423  C.ar    1  <O>11      -0.0607
   7 C5       -1.2280   -10.8179    -4.9689  C.ar    1  <O>11      -0.0568
   8 C6       -0.7615   -10.4156    -3.7126  C.ar    1  <O>11      -0.0253
   9 C7       -1.7062   -10.3383    -2.5813  C.3     1  <O>11       0.0703
  10 N2       -1.7443   -11.6146    -1.8941  N.ar    1  <O>11      -0.2241
  11 N3       -1.2803   -11.7221    -0.5914  N.ar    1  <O>11      -0.1679
  12 C8       -1.3047   -12.9049     0.0381  C.ar    1  <O>11       0.0921
  13 C9       -0.8157   -12.9431     1.3773  C.ar    1  <O>11       0.0021
  14 C10       0.5120   -12.5789     1.6585  C.ar    1  <O>11      -0.0525
  15 C11       0.9946   -12.6284     2.9697  C.ar    1  <O>11      -0.0611
  16 C12       0.1578   -13.0362     4.0118  C.ar    1  <O>11      -0.0617
  17 C13      -1.1661   -13.3935     3.7336  C.ar    1  <O>11      -0.0611
  18 C14      -1.6564   -13.3454     2.4277  C.ar    1  <O>11      -0.0525
  19 C15      -1.7801   -14.0479    -0.5676  C.ar    1  <O>11      -0.0171
  20 C16      -2.2563   -13.9593    -1.8803  C.ar    1  <O>11       0.1225
  21 C17      -2.7712   -15.1542    -2.5770  C.3     1  <O>11       0.4225
  22 F1       -2.6870   -16.2483    -1.7384  F       1  <O>11      -0.1657
  23 F2       -2.0204   -15.3861    -3.7124  F       1  <O>11      -0.1657
  24 F3       -4.0903   -14.9478    -2.9324  F       1  <O>11      -0.1657
  25 C18      -2.2404   -12.7299    -2.5281  C.ar    1  <O>11       0.2793
  26 O2       -2.7326   -12.6108    -3.8413  O.2     1  <O>11      -0.2656
  27 C19       0.5822   -10.0896    -3.5229  C.ar    1  <O>11      -0.0447
  28 H1        3.0200    -8.8319    -6.2513  H       1  <O>11       0.1453
  29 H2        4.4949    -8.8646    -5.2793  H       1  <O>11       0.1453
  30 H3       -2.7010   -10.0965    -2.9554  H       1  <O>11       0.0560
  31 H4       -1.3801    -9.5613    -1.8894  H       1  <O>11       0.0560
  32 H5        1.6704   -10.6273    -6.6548  H       1  <O>11       0.0625
  33 H6       -0.6744   -11.1918    -6.9709  H       1  <O>11       0.0618
  34 H7       -2.2232   -11.0568    -5.1017  H       1  <O>11       0.0621
  35 H8        1.1338   -12.2733     0.8936  H       1  <O>11       0.0624
  36 H9        1.9719   -12.3630     3.1686  H       1  <O>11       0.0618
  37 H10       0.5137   -13.0736     4.9798  H       1  <O>11       0.0618
  38 H11      -1.7860   -13.6954     4.5014  H       1  <O>11       0.0618
  39 H12      -2.6362   -13.6055     2.2342  H       1  <O>11       0.0624
  40 H13      -1.7846   -14.9489    -0.0644  H       1  <O>11       0.0647
  41 H14       0.9217    -9.7986    -2.5928  H       1  <O>11       0.0628
@<TRIPOS>BOND
     1     1     2   am
     2     2     3    2
     3     2     4    1
     4     4     5   ar
     5     5     6   ar
     6     6     7   ar
     7     7     8   ar
     8     8     9    1
     9     9    10    1
    10    10    11   ar
    11    11    12   ar
    12    12    13    1
    13    13    14   ar
    14    14    15   ar
    15    15    16   ar
    16    16    17   ar
    17    17    18   ar
    18    13    18   ar
    19    12    19   ar
    20    19    20   ar
    21    20    21    1
    22    21    22    1
    23    21    23    1
    24    21    24    1
    25    20    25   ar
    26    10    25   ar
    27    25    26    2
    28     8    27   ar
    29     4    27   ar
    30     1    28    1
    31     1    29    1
    32     9    30    1
    33     9    31    1
    34     5    32    1
    35     6    33    1
    36     7    34    1
    37    14    35    1
    38    15    36    1
    39    16    37    1
    40    17    38    1
    41    18    39    1
    42    19    40    1
    43    27    41    1
@<TRIPOS>MOLECULE
mol8_1_12
 41 43 0 0 0
SMALL
USER_CHARGES
****
VDW energy = -18.20
@<TRIPOS>ATOM
   1 N1        3.5126    -9.1101    -5.4025  N.am    1  <O>11      -0.3253
   2 C1        2.8552    -9.8129    -4.4288  C.2     1  <O>11       0.2415
   3 O1        3.4454   -10.1461    -3.4119  O.2     1  <O>11      -0.2704
   4 C2        1.4620   -10.1610    -4.6040  C.ar    1  <O>11       0.0368
   5 C3        0.7480   -10.6881    -3.5250  C.ar    1  <O>11      -0.0496
   6 C4       -0.5964   -11.0387    -3.6905  C.ar    1  <O>11      -0.0607
   7 C5       -1.2231   -10.8588    -4.9263  C.ar    1  <O>11      -0.0568
   8 C6       -0.4974   -10.3234    -5.9960  C.ar    1  <O>11      -0.0253
   9 C7       -1.1640   -10.1336    -7.2990  C.3     1  <O>11       0.0703
  10 N2       -1.7584    -8.8120    -7.3511  N.ar    1  <O>11      -0.2241
  11 N3       -3.1363    -8.6664    -7.4143  N.ar    1  <O>11      -0.1679
  12 C8       -3.6836    -7.4446    -7.4750  C.ar    1  <O>11       0.0921
  13 C9       -5.1065    -7.3678    -7.5346  C.ar    1  <O>11       0.0021
  14 C10      -5.8631    -7.2912    -6.3530  C.ar    1  <O>11      -0.0525
  15 C11      -7.2585    -7.2284    -6.4115  C.ar    1  <O>11      -0.0611
  16 C12      -7.9114    -7.2364    -7.6469  C.ar    1  <O>11      -0.0617
  17 C13      -7.1585    -7.3066    -8.8242  C.ar    1  <O>11      -0.0611
  18 C14      -5.7650    -7.3681    -8.7749  C.ar    1  <O>11      -0.0525
  19 C15      -2.9187    -6.2983    -7.4798  C.ar    1  <O>11      -0.0171
  20 C16      -1.5268    -6.4241    -7.4125  C.ar    1  <O>11       0.1225
  21 C17      -0.6613    -5.2286    -7.4199  C.3     1  <O>11       0.4225
  22 F1       -1.4442    -4.0936    -7.4979  F       1  <O>11      -0.1657
  23 F2        0.1859    -5.2787    -8.5091  F       1  <O>11      -0.1657
  24 F3        0.0855    -5.1931    -6.2580  F       1  <O>11      -0.1657
  25 C18      -0.9611    -7.6913    -7.3388  C.ar    1  <O>11       0.2793
  26 O2        0.4353    -7.8435    -7.2499  O.2     1  <O>11      -0.2656
  27 C19       0.8435    -9.9693    -5.8404  C.ar    1  <O>11      -0.0447
  28 H1        3.0200    -8.8319    -6.2513  H       1  <O>11       0.1453
  29 H2        4.4949    -8.8646    -5.2793  H       1  <O>11       0.1453
  30 H3       -1.9417   -10.8875    -7.4217  H       1  <O>11       0.0560
  31 H4       -0.4307   -10.2354    -8.0995  H       1  <O>11       0.0560
  32 H5        1.2095   -10.8180    -2.6112  H       1  <O>11       0.0625
  33 H6       -1.1268   -11.4315    -2.8972  H       1  <O>11       0.0618
  34 H7       -2.2142   -11.1190    -5.0491  H       1  <O>11       0.0621
  35 H8       -5.3865    -7.2813    -5.4377  H       1  <O>11       0.0624
  36 H9       -7.8082    -7.1761    -5.5396  H       1  <O>11       0.0618
  37 H10      -8.9414    -7.1907    -7.6907  H       1  <O>11       0.0618
  38 H11      -7.6382    -7.3130    -9.7379  H       1  <O>11       0.0618
  39 H12      -5.2189    -7.4137    -9.6494  H       1  <O>11       0.0624
  40 H13      -3.3625    -5.3680    -7.5318  H       1  <O>11       0.0647
  41 H14       1.3724    -9.5698    -6.6315  H       1  <O>11       0.0628
@<TRIPOS>BOND
     1     1     2   am
     2     2     3    2
     3     2     4    1
     4     4     5   ar
     5     5     6   ar
     6     6     7   ar
     7     7     8   ar
     8     8     9    1
     9     9    10    1
    10    10    11   ar
    11    11    12   ar
    12    12    13    1
    13    13    14   ar
    14    14    15   ar
    15    15    16   ar
    16    16    17   ar
    17    17    18   ar
    18    13    18   ar
    19    12    19   ar
    20    19    20   ar
    21    20    21    1
    22    21    22    1
    23    21    23    1
    24    21    24    1
    25    20    25   ar
    26    10    25   ar
    27    25    26    2
    28     8    27   ar
    29     4    27   ar
    30     1    28    1
    31     1    29    1
    32     9    30    1
    33     9    31    1
    34     5    32    1
    35     6    33    1
    36     7    34    1
    37    14    35    1
    38    15    36    1
    39    16    37    1
    40    17    38    1
    41    18    39    1
    42    19    40    1
    43    27    41    1
@<TRIPOS>MOLECULE
mol8_1_13
 41 43 0 0 0
SMALL
USER_CHARGES
****
VDW energy = -17.93
@<TRIPOS>ATOM
   1 N1        3.5126    -9.1101    -5.4025  N.am    1  <O>11      -0.3253
   2 C1        2.8552    -9.8129    -4.4288  C.2     1  <O>11       0.2415
   3 O1        3.4454   -10.1461    -3.4119  O.2     1  <O>11      -0.2704
   4 C2        1.4620   -10.1610    -4.6040  C.ar    1  <O>11       0.0368
   5 C3        0.7480   -10.6881    -3.5250  C.ar    1  <O>11      -0.0496
   6 C4       -0.5964   -11.0387    -3.6905  C.ar    1  <O>11      -0.0607
   7 C5       -1.2231   -10.8588    -4.9263  C.ar    1  <O>11      -0.0568
   8 C6       -0.4974   -10.3234    -5.9960  C.ar    1  <O>11      -0.0253
   9 C7       -1.1640   -10.1336    -7.2990  C.3     1  <O>11       0.0703
  10 N2       -2.2881    -9.2313    -7.1411  N.ar    1  <O>11      -0.2241
  11 N3       -2.4655    -8.5354    -5.9545  N.ar    1  <O>11      -0.1679
  12 C8       -3.5117    -7.7113    -5.8054  C.ar    1  <O>11       0.0921
  13 C9       -3.6313    -7.0247    -4.5611  C.ar    1  <O>11       0.0021
  14 C10      -3.0316    -5.7662    -4.3845  C.ar    1  <O>11      -0.0525
  15 C11      -3.1385    -5.0992    -3.1605  C.ar    1  <O>11      -0.0611
  16 C12      -3.8475    -5.6775    -2.1044  C.ar    1  <O>11      -0.0617
  17 C13      -4.4500    -6.9279    -2.2812  C.ar    1  <O>11      -0.0611
  18 C14      -4.3493    -7.6000    -3.5003  C.ar    1  <O>11      -0.0525
  19 C15      -4.4435    -7.5219    -6.8031  C.ar    1  <O>11      -0.0171
  20 C16      -4.2798    -8.2120    -8.0092  C.ar    1  <O>11       0.1225
  21 C17      -5.2518    -8.0493    -9.1079  C.3     1  <O>11       0.4225
  22 F1       -4.8551    -7.0077    -9.9234  F       1  <O>11      -0.1657
  23 F2       -6.4992    -7.7737    -8.5838  F       1  <O>11      -0.1657
  24 F3       -5.3112    -9.2150    -9.8471  F       1  <O>11      -0.1657
  25 C18      -3.1885    -9.0581    -8.1663  C.ar    1  <O>11       0.2793
  26 O2       -2.9908    -9.7476    -9.3772  O.2     1  <O>11      -0.2656
  27 C19       0.8435    -9.9693    -5.8404  C.ar    1  <O>11      -0.0447
  28 H1        3.0200    -8.8319    -6.2513  H       1  <O>11       0.1453
  29 H2        4.4949    -8.8646    -5.2793  H       1  <O>11       0.1453
  30 H3       -1.5188   -11.0958    -7.6684  H       1  <O>11       0.0560
  31 H4       -0.4545    -9.7110    -8.0110  H       1  <O>11       0.0560
  32 H5        1.2095   -10.8180    -2.6112  H       1  <O>11       0.0625
  33 H6       -1.1268   -11.4315    -2.8972  H       1  <O>11       0.0618
  34 H7       -2.2142   -11.1190    -5.0491  H       1  <O>11       0.0621
  35 H8       -2.5097    -5.3324    -5.1620  H       1  <O>11       0.0624
  36 H9       -2.6925    -4.1769    -3.0366  H       1  <O>11       0.0618
  37 H10      -3.9262    -5.1859    -1.2004  H       1  <O>11       0.0618
  38 H11      -4.9738    -7.3574    -1.5026  H       1  <O>11       0.0618
  39 H12      -4.8024    -8.5192    -3.6220  H       1  <O>11       0.0624
  40 H13      -5.2438    -6.8856    -6.6637  H       1  <O>11       0.0647
  41 H14       1.3724    -9.5698    -6.6315  H       1  <O>11       0.0628
@<TRIPOS>BOND
     1     1     2   am
     2     2     3    2
     3     2     4    1
     4     4     5   ar
     5     5     6   ar
     6     6     7   ar
     7     7     8   ar
     8     8     9    1
     9     9    10    1
    10    10    11   ar
    11    11    12   ar
    12    12    13    1
    13    13    14   ar
    14    14    15   ar
    15    15    16   ar
    16    16    17   ar
    17    17    18   ar
    18    13    18   ar
    19    12    19   ar
    20    19    20   ar
    21    20    21    1
    22    21    22    1
    23    21    23    1
    24    21    24    1
    25    20    25   ar
    26    10    25   ar
    27    25    26    2
    28     8    27   ar
    29     4    27   ar
    30     1    28    1
    31     1    29    1
    32     9    30    1
    33     9    31    1
    34     5    32    1
    35     6    33    1
    36     7    34    1
    37    14    35    1
    38    15    36    1
    39    16    37    1
    40    17    38    1
    41    18    39    1
    42    19    40    1
    43    27    41    1
@<TRIPOS>MOLECULE
mol8_1_14
 41 43 0 0 0
SMALL
USER_CHARGES
****
VDW energy = -16.72
@<TRIPOS>ATOM
   1 N1        3.5126    -9.1101    -5.4025  N.am    1  <O>11      -0.3253
   2 C1        2.8552    -9.8129    -4.4288  C.2     1  <O>11       0.2415
   3 O1        3.4454   -10.1461    -3.4119  O.2     1  <O>11      -0.2704
   4 C2        1.4620   -10.1610    -4.6040  C.ar    1  <O>11       0.0368
   5 C3        0.7480   -10.6881    -3.5250  C.ar    1  <O>11      -0.0496
   6 C4       -0.5964   -11.0387    -3.6905  C.ar    1  <O>11      -0.0607
   7 C5       -1.2231   -10.8588    -4.9263  C.ar    1  <O>11      -0.0568
   8 C6       -0.4974   -10.3234    -5.9960  C.ar    1  <O>11      -0.0253
   9 C7       -1.1640   -10.1336    -7.2990  C.3     1  <O>11       0.0703
  10 N2       -1.7584    -8.8120    -7.3511  N.ar    1  <O>11      -0.2241
  11 N3       -3.1363    -8.6664    -7.4143  N.ar    1  <O>11      -0.1679
  12 C8       -3.6836    -7.4446    -7.4750  C.ar    1  <O>11       0.0921
  13 C9       -5.1065    -7.3678    -7.5346  C.ar    1  <O>11       0.0021
  14 C10      -5.8057    -7.9679    -8.5954  C.ar    1  <O>11      -0.0525
  15 C11      -7.1996    -7.8816    -8.6600  C.ar    1  <O>11      -0.0611
  16 C12      -7.9087    -7.2015    -7.6665  C.ar    1  <O>11      -0.0617
  17 C13      -7.2137    -6.6086    -6.6066  C.ar    1  <O>11      -0.0611
  18 C14      -5.8223    -6.6912    -6.5336  C.ar    1  <O>11      -0.0525
  19 C15      -2.9187    -6.2983    -7.4798  C.ar    1  <O>11      -0.0171
  20 C16      -1.5268    -6.4241    -7.4125  C.ar    1  <O>11       0.1225
  21 C17      -0.6613    -5.2286    -7.4199  C.3     1  <O>11       0.4225
  22 F1        0.0854    -5.1933    -6.2587  F       1  <O>11      -0.1657
  23 F2       -1.4429    -4.0931    -7.4989  F       1  <O>11      -0.1657
  24 F3        0.1861    -5.2800    -8.5100  F       1  <O>11      -0.1657
  25 C18      -0.9611    -7.6913    -7.3388  C.ar    1  <O>11       0.2793
  26 O2        0.4353    -7.8435    -7.2499  O.2     1  <O>11      -0.2656
  27 C19       0.8435    -9.9693    -5.8404  C.ar    1  <O>11      -0.0447
  28 H1        3.0200    -8.8319    -6.2513  H       1  <O>11       0.1453
  29 H2        4.4949    -8.8646    -5.2793  H       1  <O>11       0.1453
  30 H3       -1.9417   -10.8875    -7.4217  H       1  <O>11       0.0560
  31 H4       -0.4307   -10.2354    -8.0995  H       1  <O>11       0.0560
  32 H5        1.2095   -10.8180    -2.6112  H       1  <O>11       0.0625
  33 H6       -1.1268   -11.4315    -2.8972  H       1  <O>11       0.0618
  34 H7       -2.2142   -11.1190    -5.0491  H       1  <O>11       0.0621
  35 H8       -5.2880    -8.4748    -9.3303  H       1  <O>11       0.0624
  36 H9       -7.7065    -8.3216    -9.4439  H       1  <O>11       0.0618
  37 H10      -8.9376    -7.1369    -7.7140  H       1  <O>11       0.0618
  38 H11      -7.7349    -6.1053    -5.8718  H       1  <O>11       0.0618
  39 H12      -5.3199    -6.2554    -5.7445  H       1  <O>11       0.0624
  40 H13      -3.3625    -5.3680    -7.5318  H       1  <O>11       0.0647
  41 H14       1.3724    -9.5698    -6.6315  H       1  <O>11       0.0628
@<TRIPOS>BOND
     1     1     2   am
     2     2     3    2
     3     2     4    1
     4     4     5   ar
     5     5     6   ar
     6     6     7   ar
     7     7     8   ar
     8     8     9    1
     9     9    10    1
    10    10    11   ar
    11    11    12   ar
    12    12    13    1
    13    13    14   ar
    14    14    15   ar
    15    15    16   ar
    16    16    17   ar
    17    17    18   ar
    18    13    18   ar
    19    12    19   ar
    20    19    20   ar
    21    20    21    1
    22    21    22    1
    23    21    23    1
    24    21    24    1
    25    20    25   ar
    26    10    25   ar
    27    25    26    2
    28     8    27   ar
    29     4    27   ar
    30     1    28    1
    31     1    29    1
    32     9    30    1
    33     9    31    1
    34     5    32    1
    35     6    33    1
    36     7    34    1
    37    14    35    1
    38    15    36    1
    39    16    37    1
    40    17    38    1
    41    18    39    1
    42    19    40    1
    43    27    41    1
@<TRIPOS>MOLECULE
mol8_1_15
 41 43 0 0 0
SMALL
USER_CHARGES
****
VDW energy = -16.71
@<TRIPOS>ATOM
   1 N1        3.5126    -9.1101    -5.4025  N.am    1  <O>11      -0.3253
   2 C1        2.8552    -9.8129    -4.4288  C.2     1  <O>11       0.2415
   3 O1        3.4454   -10.1461    -3.4119  O.2     1  <O>11      -0.2704
   4 C2        1.4620   -10.1610    -4.6040  C.ar    1  <O>11       0.0368
   5 C3        0.7480   -10.6881    -3.5250  C.ar    1  <O>11      -0.0496
   6 C4       -0.5964   -11.0387    -3.6905  C.ar    1  <O>11      -0.0607
   7 C5       -1.2231   -10.8588    -4.9263  C.ar    1  <O>11      -0.0568
   8 C6       -0.4974   -10.3234    -5.9960  C.ar    1  <O>11      -0.0253
   9 C7       -1.1640   -10.1336    -7.2990  C.3     1  <O>11       0.0703
  10 N2       -1.7584    -8.8120    -7.3511  N.ar    1  <O>11      -0.2241
  11 N3       -3.1363    -8.6664    -7.4143  N.ar    1  <O>11      -0.1679
  12 C8       -3.6836    -7.4446    -7.4750  C.ar    1  <O>11       0.0921
  13 C9       -5.1065    -7.3678    -7.5346  C.ar    1  <O>11       0.0021
  14 C10      -5.8900    -7.9016    -6.4974  C.ar    1  <O>11      -0.0525
  15 C11      -7.2851    -7.8371    -6.5623  C.ar    1  <O>11      -0.0611
  16 C12      -7.9109    -7.2362    -7.6576  C.ar    1  <O>11      -0.0617
  17 C13      -7.1314    -6.6991    -8.6880  C.ar    1  <O>11      -0.0611
  18 C14      -5.7381    -6.7580    -8.6306  C.ar    1  <O>11      -0.0525
  19 C15      -2.9187    -6.2983    -7.4798  C.ar    1  <O>11      -0.0171
  20 C16      -1.5268    -6.4241    -7.4125  C.ar    1  <O>11       0.1225
  21 C17      -0.6613    -5.2286    -7.4199  C.3     1  <O>11       0.4225
  22 F1       -1.4442    -4.0936    -7.4979  F       1  <O>11      -0.1657
  23 F2        0.1859    -5.2787    -8.5091  F       1  <O>11      -0.1657
  24 F3        0.0855    -5.1931    -6.2580  F       1  <O>11      -0.1657
  25 C18      -0.9611    -7.6913    -7.3388  C.ar    1  <O>11       0.2793
  26 O2        0.4353    -7.8435    -7.2499  O.2     1  <O>11      -0.2656
  27 C19       0.8435    -9.9693    -5.8404  C.ar    1  <O>11      -0.0447
  28 H1        3.0200    -8.8319    -6.2513  H       1  <O>11       0.1453
  29 H2        4.4949    -8.8646    -5.2793  H       1  <O>11       0.1453
  30 H3       -1.9417   -10.8875    -7.4217  H       1  <O>11       0.0560
  31 H4       -0.4307   -10.2354    -8.0995  H       1  <O>11       0.0560
  32 H5        1.2095   -10.8180    -2.6112  H       1  <O>11       0.0625
  33 H6       -1.1268   -11.4315    -2.8972  H       1  <O>11       0.0618
  34 H7       -2.2142   -11.1190    -5.0491  H       1  <O>11       0.0621
  35 H8       -5.4336    -8.3433    -5.6841  H       1  <O>11       0.0624
  36 H9       -7.8545    -8.2344    -5.7988  H       1  <O>11       0.0618
  37 H10      -8.9407    -7.1889    -7.7063  H       1  <O>11       0.0618
  38 H11      -7.5911    -6.2552    -9.4983  H       1  <O>11       0.0618
  39 H12      -5.1724    -6.3536    -9.3931  H       1  <O>11       0.0624
  40 H13      -3.3625    -5.3680    -7.5318  H       1  <O>11       0.0647
  41 H14       1.3724    -9.5698    -6.6315  H       1  <O>11       0.0628
@<TRIPOS>BOND
     1     1     2   am
     2     2     3    2
     3     2     4    1
     4     4     5   ar
     5     5     6   ar
     6     6     7   ar
     7     7     8   ar
     8     8     9    1
     9     9    10    1
    10    10    11   ar
    11    11    12   ar
    12    12    13    1
    13    13    14   ar
    14    14    15   ar
    15    15    16   ar
    16    16    17   ar
    17    17    18   ar
    18    13    18   ar
    19    12    19   ar
    20    19    20   ar
    21    20    21    1
    22    21    22    1
    23    21    23    1
    24    21    24    1
    25    20    25   ar
    26    10    25   ar
    27    25    26    2
    28     8    27   ar
    29     4    27   ar
    30     1    28    1
    31     1    29    1
    32     9    30    1
    33     9    31    1
    34     5    32    1
    35     6    33    1
    36     7    34    1
    37    14    35    1
    38    15    36    1
    39    16    37    1
    40    17    38    1
    41    18    39    1
    42    19    40    1
    43    27    41    1
@<TRIPOS>MOLECULE
mol8_1_16
 41 43 0 0 0
SMALL
USER_CHARGES
****
VDW energy = -16.71
@<TRIPOS>ATOM
   1 N1        3.5126    -9.1101    -5.4025  N.am    1  <O>11      -0.3253
   2 C1        2.8552    -9.8129    -4.4288  C.2     1  <O>11       0.2415
   3 O1        3.4454   -10.1461    -3.4119  O.2     1  <O>11      -0.2704
   4 C2        1.4620   -10.1610    -4.6040  C.ar    1  <O>11       0.0368
   5 C3        0.7480   -10.6881    -3.5250  C.ar    1  <O>11      -0.0496
   6 C4       -0.5964   -11.0387    -3.6905  C.ar    1  <O>11      -0.0607
   7 C5       -1.2231   -10.8588    -4.9263  C.ar    1  <O>11      -0.0568
   8 C6       -0.4974   -10.3234    -5.9960  C.ar    1  <O>11      -0.0253
   9 C7       -1.1640   -10.1336    -7.2990  C.3     1  <O>11       0.0703
  10 N2       -1.7584    -8.8120    -7.3511  N.ar    1  <O>11      -0.2241
  11 N3       -3.1363    -8.6664    -7.4143  N.ar    1  <O>11      -0.1679
  12 C8       -3.6836    -7.4446    -7.4750  C.ar    1  <O>11       0.0921
  13 C9       -5.1065    -7.3678    -7.5346  C.ar    1  <O>11       0.0021
  14 C10      -5.8057    -7.9679    -8.5954  C.ar    1  <O>11      -0.0525
  15 C11      -7.1996    -7.8816    -8.6600  C.ar    1  <O>11      -0.0611
  16 C12      -7.9087    -7.2015    -7.6665  C.ar    1  <O>11      -0.0617
  17 C13      -7.2137    -6.6086    -6.6066  C.ar    1  <O>11      -0.0611
  18 C14      -5.8223    -6.6912    -6.5336  C.ar    1  <O>11      -0.0525
  19 C15      -2.9187    -6.2983    -7.4798  C.ar    1  <O>11      -0.0171
  20 C16      -1.5268    -6.4241    -7.4125  C.ar    1  <O>11       0.1225
  21 C17      -0.6613    -5.2286    -7.4199  C.3     1  <O>11       0.4225
  22 F1       -1.4442    -4.0936    -7.4979  F       1  <O>11      -0.1657
  23 F2        0.1859    -5.2787    -8.5091  F       1  <O>11      -0.1657
  24 F3        0.0855    -5.1931    -6.2580  F       1  <O>11      -0.1657
  25 C18      -0.9611    -7.6913    -7.3388  C.ar    1  <O>11       0.2793
  26 O2        0.4353    -7.8435    -7.2499  O.2     1  <O>11      -0.2656
  27 C19       0.8435    -9.9693    -5.8404  C.ar    1  <O>11      -0.0447
  28 H1        3.0200    -8.8319    -6.2513  H       1  <O>11       0.1453
  29 H2        4.4949    -8.8646    -5.2793  H       1  <O>11       0.1453
  30 H3       -1.9417   -10.8875    -7.4217  H       1  <O>11       0.0560
  31 H4       -0.4307   -10.2354    -8.0995  H       1  <O>11       0.0560
  32 H5        1.2095   -10.8180    -2.6112  H       1  <O>11       0.0625
  33 H6       -1.1268   -11.4315    -2.8972  H       1  <O>11       0.0618
  34 H7       -2.2142   -11.1190    -5.0491  H       1  <O>11       0.0621
  35 H8       -5.2880    -8.4748    -9.3303  H       1  <O>11       0.0624
  36 H9       -7.7065    -8.3216    -9.4439  H       1  <O>11       0.0618
  37 H10      -8.9376    -7.1369    -7.7140  H       1  <O>11       0.0618
  38 H11      -7.7349    -6.1053    -5.8718  H       1  <O>11       0.0618
  39 H12      -5.3199    -6.2554    -5.7445  H       1  <O>11       0.0624
  40 H13      -3.3625    -5.3680    -7.5318  H       1  <O>11       0.0647
  41 H14       1.3724    -9.5698    -6.6315  H       1  <O>11       0.0628
@<TRIPOS>BOND
     1     1     2   am
     2     2     3    2
     3     2     4    1
     4     4     5   ar
     5     5     6   ar
     6     6     7   ar
     7     7     8   ar
     8     8     9    1
     9     9    10    1
    10    10    11   ar
    11    11    12   ar
    12    12    13    1
    13    13    14   ar
    14    14    15   ar
    15    15    16   ar
    16    16    17   ar
    17    17    18   ar
    18    13    18   ar
    19    12    19   ar
    20    19    20   ar
    21    20    21    1
    22    21    22    1
    23    21    23    1
    24    21    24    1
    25    20    25   ar
    26    10    25   ar
    27    25    26    2
    28     8    27   ar
    29     4    27   ar
    30     1    28    1
    31     1    29    1
    32     9    30    1
    33     9    31    1
    34     5    32    1
    35     6    33    1
    36     7    34    1
    37    14    35    1
    38    15    36    1
    39    16    37    1
    40    17    38    1
    41    18    39    1
    42    19    40    1
    43    27    41    1
@<TRIPOS>MOLECULE
mol8_1_17
 41 43 0 0 0
SMALL
USER_CHARGES
****
VDW energy = -16.09
@<TRIPOS>ATOM
   1 N1        3.5126    -9.1101    -5.4025  N.am    1  <O>11      -0.3253
   2 C1        2.8552    -9.8129    -4.4288  C.2     1  <O>11       0.2415
   3 O1        3.4454   -10.1461    -3.4119  O.2     1  <O>11      -0.2704
   4 C2        1.4620   -10.1610    -4.6040  C.ar    1  <O>11       0.0368
   5 C3        1.0119   -10.5678    -5.8624  C.ar    1  <O>11      -0.0496
   6 C4       -0.3368   -10.8940    -6.0423  C.ar    1  <O>11      -0.0607
   7 C5       -1.2280   -10.8179    -4.9689  C.ar    1  <O>11      -0.0568
   8 C6       -0.7615   -10.4156    -3.7126  C.ar    1  <O>11      -0.0253
   9 C7       -1.7062   -10.3383    -2.5813  C.3     1  <O>11       0.0703
  10 N2       -2.2880    -9.0113    -2.5260  N.ar    1  <O>11      -0.2241
  11 N3       -2.0222    -8.1749    -1.4519  N.ar    1  <O>11      -0.1679
  12 C8       -2.5706    -6.9534    -1.3959  C.ar    1  <O>11       0.0921
  13 C9       -2.2521    -6.1448    -0.2652  C.ar    1  <O>11       0.0021
  14 C10      -2.5706    -6.5815     1.0319  C.ar    1  <O>11      -0.0525
  15 C11      -2.2694    -5.7829     2.1392  C.ar    1  <O>11      -0.0611
  16 C12      -1.6443    -4.5455     1.9642  C.ar    1  <O>11      -0.0617
  17 C13      -1.3213    -4.1125     0.6735  C.ar    1  <O>11      -0.0611
  18 C14      -1.6172    -4.9041    -0.4372  C.ar    1  <O>11      -0.0525
  19 C15      -3.4097    -6.4809    -2.3818  C.ar    1  <O>11      -0.0171
  20 C16      -3.6870    -7.3082    -3.4756  C.ar    1  <O>11       0.1225
  21 C17      -4.5833    -6.8529    -4.5561  C.3     1  <O>11       0.4225
  22 F1       -3.8426    -6.2123    -5.5299  F       1  <O>11      -0.1657
  23 F2       -5.5201    -5.9788    -4.0414  F       1  <O>11      -0.1657
  24 F3       -5.2271    -7.9424    -5.1107  F       1  <O>11      -0.1657
  25 C18      -3.1090    -8.5705    -3.5376  C.ar    1  <O>11       0.2793
  26 O2       -3.3562    -9.4135    -4.6373  O.2     1  <O>11      -0.2656
  27 C19       0.5822   -10.0896    -3.5229  C.ar    1  <O>11      -0.0447
  28 H1        3.0200    -8.8319    -6.2513  H       1  <O>11       0.1453
  29 H2        4.4949    -8.8646    -5.2793  H       1  <O>11       0.1453
  30 H3       -1.1756   -10.5422    -1.6512  H       1  <O>11       0.0560
  31 H4       -2.4961   -11.0774    -2.7177  H       1  <O>11       0.0560
  32 H5        1.6704   -10.6273    -6.6548  H       1  <O>11       0.0625
  33 H6       -0.6744   -11.1918    -6.9709  H       1  <O>11       0.0618
  34 H7       -2.2232   -11.0568    -5.1017  H       1  <O>11       0.0621
  35 H8       -3.0291    -7.4960     1.1678  H       1  <O>11       0.0624
  36 H9       -2.5095    -6.1082     3.0887  H       1  <O>11       0.0618
  37 H10      -1.4223    -3.9553     2.7812  H       1  <O>11       0.0618
  38 H11      -0.8600    -3.1988     0.5416  H       1  <O>11       0.0618
  39 H12      -1.3694    -4.5779    -1.3845  H       1  <O>11       0.0624
  40 H13      -3.8242    -5.5382    -2.3148  H       1  <O>11       0.0647
  41 H14       0.9217    -9.7986    -2.5928  H       1  <O>11       0.0628
@<TRIPOS>BOND
     1     1     2   am
     2     2     3    2
     3     2     4    1
     4     4     5   ar
     5     5     6   ar
     6     6     7   ar
     7     7     8   ar
     8     8     9    1
     9     9    10    1
    10    10    11   ar
    11    11    12   ar
    12    12    13    1
    13    13    14   ar
    14    14    15   ar
    15    15    16   ar
    16    16    17   ar
    17    17    18   ar
    18    13    18   ar
    19    12    19   ar
    20    19    20   ar
    21    20    21    1
    22    21    22    1
    23    21    23    1
    24    21    24    1
    25    20    25   ar
    26    10    25   ar
    27    25    26    2
    28     8    27   ar
    29     4    27   ar
    30     1    28    1
    31     1    29    1
    32     9    30    1
    33     9    31    1
    34     5    32    1
    35     6    33    1
    36     7    34    1
    37    14    35    1
    38    15    36    1
    39    16    37    1
    40    17    38    1
    41    18    39    1
    42    19    40    1
    43    27    41    1
@<TRIPOS>MOLECULE
mol8_1_18
 41 43 0 0 0
SMALL
USER_CHARGES
****
VDW energy = -15.07
@<TRIPOS>ATOM
   1 N1        3.5126    -9.1101    -5.4025  N.am    1  <O>11      -0.3253
   2 C1        2.8552    -9.8129    -4.4288  C.2     1  <O>11       0.2415
   3 O1        3.4454   -10.1461    -3.4119  O.2     1  <O>11      -0.2704
   4 C2        1.4620   -10.1610    -4.6040  C.ar    1  <O>11       0.0368
   5 C3        0.7480   -10.6881    -3.5250  C.ar    1  <O>11      -0.0496
   6 C4       -0.5964   -11.0387    -3.6905  C.ar    1  <O>11      -0.0607
   7 C5       -1.2231   -10.8588    -4.9263  C.ar    1  <O>11      -0.0568
   8 C6       -0.4974   -10.3234    -5.9960  C.ar    1  <O>11      -0.0253
   9 C7       -1.1640   -10.1336    -7.2990  C.3     1  <O>11       0.0703
  10 N2       -1.7584    -8.8120    -7.3511  N.ar    1  <O>11      -0.2241
  11 N3       -3.1363    -8.6664    -7.4143  N.ar    1  <O>11      -0.1679
  12 C8       -3.6836    -7.4446    -7.4750  C.ar    1  <O>11       0.0921
  13 C9       -5.1065    -7.3678    -7.5346  C.ar    1  <O>11       0.0021
  14 C10      -5.8057    -7.9679    -8.5954  C.ar    1  <O>11      -0.0525
  15 C11      -7.1996    -7.8816    -8.6600  C.ar    1  <O>11      -0.0611
  16 C12      -7.9087    -7.2015    -7.6665  C.ar    1  <O>11      -0.0617
  17 C13      -7.2137    -6.6086    -6.6066  C.ar    1  <O>11      -0.0611
  18 C14      -5.8223    -6.6912    -6.5336  C.ar    1  <O>11      -0.0525
  19 C15      -2.9187    -6.2983    -7.4798  C.ar    1  <O>11      -0.0171
  20 C16      -1.5268    -6.4241    -7.4125  C.ar    1  <O>11       0.1225
  21 C17      -0.6613    -5.2286    -7.4199  C.3     1  <O>11       0.4225
  22 F1       -0.3335    -4.9054    -8.7220  F       1  <O>11      -0.1657
  23 F2        0.4918    -5.4889    -6.7064  F       1  <O>11      -0.1657
  24 F3       -1.3325    -4.1701    -6.8385  F       1  <O>11      -0.1657
  25 C18      -0.9611    -7.6913    -7.3388  C.ar    1  <O>11       0.2793
  26 O2        0.4353    -7.8435    -7.2499  O.2     1  <O>11      -0.2656
  27 C19       0.8435    -9.9693    -5.8404  C.ar    1  <O>11      -0.0447
  28 H1        3.0200    -8.8319    -6.2513  H       1  <O>11       0.1453
  29 H2        4.4949    -8.8646    -5.2793  H       1  <O>11       0.1453
  30 H3       -1.9417   -10.8875    -7.4217  H       1  <O>11       0.0560
  31 H4       -0.4307   -10.2354    -8.0995  H       1  <O>11       0.0560
  32 H5        1.2095   -10.8180    -2.6112  H       1  <O>11       0.0625
  33 H6       -1.1268   -11.4315    -2.8972  H       1  <O>11       0.0618
  34 H7       -2.2142   -11.1190    -5.0491  H       1  <O>11       0.0621
  35 H8       -5.2880    -8.4748    -9.3303  H       1  <O>11       0.0624
  36 H9       -7.7065    -8.3216    -9.4439  H       1  <O>11       0.0618
  37 H10      -8.9376    -7.1369    -7.7140  H       1  <O>11       0.0618
  38 H11      -7.7349    -6.1053    -5.8718  H       1  <O>11       0.0618
  39 H12      -5.3199    -6.2554    -5.7445  H       1  <O>11       0.0624
  40 H13      -3.3625    -5.3680    -7.5318  H       1  <O>11       0.0647
  41 H14       1.3724    -9.5698    -6.6315  H       1  <O>11       0.0628
@<TRIPOS>BOND
     1     1     2   am
     2     2     3    2
     3     2     4    1
     4     4     5   ar
     5     5     6   ar
     6     6     7   ar
     7     7     8   ar
     8     8     9    1
     9     9    10    1
    10    10    11   ar
    11    11    12   ar
    12    12    13    1
    13    13    14   ar
    14    14    15   ar
    15    15    16   ar
    16    16    17   ar
    17    17    18   ar
    18    13    18   ar
    19    12    19   ar
    20    19    20   ar
    21    20    21    1
    22    21    22    1
    23    21    23    1
    24    21    24    1
    25    20    25   ar
    26    10    25   ar
    27    25    26    2
    28     8    27   ar
    29     4    27   ar
    30     1    28    1
    31     1    29    1
    32     9    30    1
    33     9    31    1
    34     5    32    1
    35     6    33    1
    36     7    34    1
    37    14    35    1
    38    15    36    1
    39    16    37    1
    40    17    38    1
    41    18    39    1
    42    19    40    1
    43    27    41    1
@<TRIPOS>MOLECULE
mol8_1_19
 41 43 0 0 0
SMALL
USER_CHARGES
****
VDW energy = -12.89
@<TRIPOS>ATOM
   1 N1        3.5126    -9.1101    -5.4025  N.am    1  <O>11      -0.3253
   2 C1        2.8552    -9.8129    -4.4288  C.2     1  <O>11       0.2415
   3 O1        3.4454   -10.1461    -3.4119  O.2     1  <O>11      -0.2704
   4 C2        1.4620   -10.1610    -4.6040  C.ar    1  <O>11       0.0368
   5 C3        1.1317   -11.3708    -5.2197  C.ar    1  <O>11      -0.0496
   6 C4       -0.2136   -11.7084    -5.4038  C.ar    1  <O>11      -0.0607
   7 C5       -1.2215   -10.8431    -4.9705  C.ar    1  <O>11      -0.0568
   8 C6       -0.8757    -9.6381    -4.3492  C.ar    1  <O>11      -0.0253
   9 C7       -1.9437    -8.7280    -3.8917  C.3     1  <O>11       0.0703
  10 N2       -2.3049    -9.0531    -2.5256  N.ar    1  <O>11      -0.2241
  11 N3       -2.0584    -8.1495    -1.5026  N.ar    1  <O>11      -0.1679
  12 C8       -2.3814    -8.4564    -0.2387  C.ar    1  <O>11       0.0921
  13 C9       -2.1034    -7.4799     0.7628  C.ar    1  <O>11       0.0021
  14 C10      -2.0547    -7.8475     2.1182  C.ar    1  <O>11      -0.0525
  15 C11      -1.7945    -6.8876     3.1008  C.ar    1  <O>11      -0.0611
  16 C12      -1.5758    -5.5551     2.7413  C.ar    1  <O>11      -0.0617
  17 C13      -1.6183    -5.1892     1.3914  C.ar    1  <O>11      -0.0611
  18 C14      -1.8760    -6.1414     0.4041  C.ar    1  <O>11      -0.0525
  19 C15      -2.9598    -9.6612     0.0980  C.ar    1  <O>11      -0.0171
  20 C16      -3.2202   -10.5846    -0.9204  C.ar    1  <O>11       0.1225
  21 C17      -3.8333   -11.8915    -0.6133  C.3     1  <O>11       0.4225
  22 F1       -4.0648   -11.9839     0.7450  F       1  <O>11      -0.1657
  23 F2       -2.9808   -12.9048    -1.0046  F       1  <O>11      -0.1657
  24 F3       -5.0305   -12.0100    -1.2928  F       1  <O>11      -0.1657
  25 C18      -2.8946   -10.2606    -2.2321  C.ar    1  <O>11       0.2793
  26 O2       -3.1650   -11.1642    -3.2767  O.2     1  <O>11      -0.2656
  27 C19       0.4633    -9.2931    -4.1598  C.ar    1  <O>11      -0.0447
  28 H1        3.0200    -8.8319    -6.2513  H       1  <O>11       0.1453
  29 H2        4.4949    -8.8646    -5.2793  H       1  <O>11       0.1453
  30 H3       -2.8162    -8.8401    -4.5354  H       1  <O>11       0.0560
  31 H4       -1.5877    -7.6985    -3.9395  H       1  <O>11       0.0560
  32 H5        1.8757   -12.0117    -5.5369  H       1  <O>11       0.0625
  33 H6       -0.4623   -12.5995    -5.8611  H       1  <O>11       0.0618
  34 H7       -2.2138   -11.0910    -5.1078  H       1  <O>11       0.0621
  35 H8       -2.2117    -8.8308     2.3897  H       1  <O>11       0.0624
  36 H9       -1.7637    -7.1639     4.0946  H       1  <O>11       0.0618
  37 H10      -1.3843    -4.8460     3.4662  H       1  <O>11       0.0618
  38 H11      -1.4576    -4.2057     1.1233  H       1  <O>11       0.0618
  39 H12      -1.8993    -5.8620    -0.5891  H       1  <O>11       0.0624
  40 H13      -3.1956    -9.8773     1.0792  H       1  <O>11       0.0647
  41 H14       0.7123    -8.4055    -3.6961  H       1  <O>11       0.0628
@<TRIPOS>BOND
     1     1     2   am
     2     2     3    2
     3     2     4    1
     4     4     5   ar
     5     5     6   ar
     6     6     7   ar
     7     7     8   ar
     8     8     9    1
     9     9    10    1
    10    10    11   ar
    11    11    12   ar
    12    12    13    1
    13    13    14   ar
    14    14    15   ar
    15    15    16   ar
    16    16    17   ar
    17    17    18   ar
    18    13    18   ar
    19    12    19   ar
    20    19    20   ar
    21    20    21    1
    22    21    22    1
    23    21    23    1
    24    21    24    1
    25    20    25   ar
    26    10    25   ar
    27    25    26    2
    28     8    27   ar
    29     4    27   ar
    30     1    28    1
    31     1    29    1
    32     9    30    1
    33     9    31    1
    34     5    32    1
    35     6    33    1
    36     7    34    1
    37    14    35    1
    38    15    36    1
    39    16    37    1
    40    17    38    1
    41    18    39    1
    42    19    40    1
    43    27    41    1
@<TRIPOS>MOLECULE
mol8_1_20
 41 43 0 0 0
SMALL
USER_CHARGES
****
VDW energy = -12.57
@<TRIPOS>ATOM
   1 N1        3.5126    -9.1101    -5.4025  N.am    1  <O>11      -0.3253
   2 C1        2.8552    -9.8129    -4.4288  C.2     1  <O>11       0.2415
   3 O1        3.4454   -10.1461    -3.4119  O.2     1  <O>11      -0.2704
   4 C2        1.4620   -10.1610    -4.6040  C.ar    1  <O>11       0.0368
   5 C3        0.7480   -10.6881    -3.5250  C.ar    1  <O>11      -0.0496
   6 C4       -0.5964   -11.0387    -3.6905  C.ar    1  <O>11      -0.0607
   7 C5       -1.2231   -10.8588    -4.9263  C.ar    1  <O>11      -0.0568
   8 C6       -0.4974   -10.3234    -5.9960  C.ar    1  <O>11      -0.0253
   9 C7       -1.1640   -10.1336    -7.2990  C.3     1  <O>11       0.0703
  10 N2       -1.7584    -8.8120    -7.3511  N.ar    1  <O>11      -0.2241
  11 N3       -1.4754    -7.8781    -6.3654  N.ar    1  <O>11      -0.1679
  12 C8       -2.0351    -6.6612    -6.4080  C.ar    1  <O>11       0.0921
  13 C9       -1.6977    -5.7493    -5.3647  C.ar    1  <O>11       0.0021
  14 C10      -2.5010    -4.6227    -5.1196  C.ar    1  <O>11      -0.0525
  15 C11      -2.1629    -3.7224    -4.1048  C.ar    1  <O>11      -0.0611
  16 C12      -1.0254    -3.9392    -3.3229  C.ar    1  <O>11      -0.0617
  17 C13      -0.2282    -5.0639    -3.5623  C.ar    1  <O>11      -0.0611
  18 C14      -0.5592    -5.9685    -4.5723  C.ar    1  <O>11      -0.0525
  19 C15      -2.9028    -6.2884    -7.4117  C.ar    1  <O>11      -0.0171
  20 C16      -3.1979    -7.2152    -8.4176  C.ar    1  <O>11       0.1225
  21 C17      -4.1250    -6.8687    -9.5125  C.3     1  <O>11       0.4225
  22 F1       -4.5795    -5.5761    -9.3394  F       1  <O>11      -0.1657
  23 F2       -5.1972    -7.7386    -9.5023  F       1  <O>11      -0.1657
  24 F3       -3.4657    -6.9659   -10.7228  F       1  <O>11      -0.1657
  25 C18      -2.6083    -8.4730    -8.3779  C.ar    1  <O>11       0.2793
  26 O2       -2.8733    -9.4156    -9.3890  O.2     1  <O>11      -0.2656
  27 C19       0.8435    -9.9693    -5.8404  C.ar    1  <O>11      -0.0447
  28 H1        3.0200    -8.8319    -6.2513  H       1  <O>11       0.1453
  29 H2        4.4949    -8.8646    -5.2793  H       1  <O>11       0.1453
  30 H3       -1.9417   -10.8875    -7.4217  H       1  <O>11       0.0560
  31 H4       -0.4307   -10.2354    -8.0995  H       1  <O>11       0.0560
  32 H5        1.2095   -10.8180    -2.6112  H       1  <O>11       0.0625
  33 H6       -1.1268   -11.4315    -2.8972  H       1  <O>11       0.0618
  34 H7       -2.2142   -11.1190    -5.0491  H       1  <O>11       0.0621
  35 H8       -3.3444    -4.4591    -5.6914  H       1  <O>11       0.0624
  36 H9       -2.7554    -2.8951    -3.9327  H       1  <O>11       0.0618
  37 H10      -0.7750    -3.2746    -2.5741  H       1  <O>11       0.0618
  38 H11       0.6127    -5.2262    -2.9865  H       1  <O>11       0.0618
  39 H12       0.0324    -6.7980    -4.7368  H       1  <O>11       0.0624
  40 H13      -3.3255    -5.3470    -7.4211  H       1  <O>11       0.0647
  41 H14       1.3724    -9.5698    -6.6315  H       1  <O>11       0.0628
@<TRIPOS>BOND
     1     1     2   am
     2     2     3    2
     3     2     4    1
     4     4     5   ar
     5     5     6   ar
     6     6     7   ar
     7     7     8   ar
     8     8     9    1
     9     9    10    1
    10    10    11   ar
    11    11    12   ar
    12    12    13    1
    13    13    14   ar
    14    14    15   ar
    15    15    16   ar
    16    16    17   ar
    17    17    18   ar
    18    13    18   ar
    19    12    19   ar
    20    19    20   ar
    21    20    21    1
    22    21    22    1
    23    21    23    1
    24    21    24    1
    25    20    25   ar
    26    10    25   ar
    27    25    26    2
    28     8    27   ar
    29     4    27   ar
    30     1    28    1
    31     1    29    1
    32     9    30    1
    33     9    31    1
    34     5    32    1
    35     6    33    1
    36     7    34    1
    37    14    35    1
    38    15    36    1
    39    16    37    1
    40    17    38    1
    41    18    39    1
    42    19    40    1
    43    27    41    1
@<TRIPOS>MOLECULE
mol8_1_21
 41 43 0 0 0
SMALL
USER_CHARGES
****
VDW energy = -11.26
@<TRIPOS>ATOM
   1 N1        3.5126    -9.1101    -5.4025  N.am    1  <O>11      -0.3253
   2 C1        2.8552    -9.8129    -4.4288  C.2     1  <O>11       0.2415
   3 O1        3.4454   -10.1461    -3.4119  O.2     1  <O>11      -0.2704
   4 C2        1.4620   -10.1610    -4.6040  C.ar    1  <O>11       0.0368
   5 C3        0.7480   -10.6881    -3.5250  C.ar    1  <O>11      -0.0496
   6 C4       -0.5964   -11.0387    -3.6905  C.ar    1  <O>11      -0.0607
   7 C5       -1.2231   -10.8588    -4.9263  C.ar    1  <O>11      -0.0568
   8 C6       -0.4974   -10.3234    -5.9960  C.ar    1  <O>11      -0.0253
   9 C7       -1.1640   -10.1336    -7.2990  C.3     1  <O>11       0.0703
  10 N2       -1.7584    -8.8120    -7.3511  N.ar    1  <O>11      -0.2241
  11 N3       -1.2815    -7.8651    -8.2454  N.ar    1  <O>11      -0.1679
  12 C8       -1.8235    -6.6400    -8.2839  C.ar    1  <O>11       0.0921
  13 C9       -1.2873    -5.7171    -9.2297  C.ar    1  <O>11       0.0021
  14 C10       0.0677    -5.3494    -9.1726  C.ar    1  <O>11      -0.0525
  15 C11       0.5901    -4.4351   -10.0923  C.ar    1  <O>11      -0.0611
  16 C12      -0.2313    -3.8835   -11.0790  C.ar    1  <O>11      -0.0617
  17 C13      -1.5793    -4.2535   -11.1403  C.ar    1  <O>11      -0.0611
  18 C14      -2.1085    -5.1667   -10.2270  C.ar    1  <O>11      -0.0525
  19 C15      -2.8578    -6.2698    -7.4517  C.ar    1  <O>11      -0.0171
  20 C16      -3.3555    -7.2122    -6.5451  C.ar    1  <O>11       0.1225
  21 C17      -4.4585    -6.8656    -5.6278  C.3     1  <O>11       0.4225
  22 F1       -3.9385    -6.3583    -4.4532  F       1  <O>11      -0.1657
  23 F2       -5.2018    -7.9959    -5.3514  F       1  <O>11      -0.1657
  24 F3       -5.2689    -5.9159    -6.2197  F       1  <O>11      -0.1657
  25 C18      -2.7996    -8.4856    -6.5138  C.ar    1  <O>11       0.2793
  26 O2       -3.2961    -9.4575    -5.6251  O.2     1  <O>11      -0.2656
  27 C19       0.8435    -9.9693    -5.8404  C.ar    1  <O>11      -0.0447
  28 H1        3.0200    -8.8319    -6.2513  H       1  <O>11       0.1453
  29 H2        4.4949    -8.8646    -5.2793  H       1  <O>11       0.1453
  30 H3       -1.9417   -10.8875    -7.4217  H       1  <O>11       0.0560
  31 H4       -0.4307   -10.2354    -8.0995  H       1  <O>11       0.0560
  32 H5        1.2095   -10.8180    -2.6112  H       1  <O>11       0.0625
  33 H6       -1.1268   -11.4315    -2.8972  H       1  <O>11       0.0618
  34 H7       -2.2142   -11.1190    -5.0491  H       1  <O>11       0.0621
  35 H8        0.6802    -5.7562    -8.4484  H       1  <O>11       0.0624
  36 H9        1.5853    -4.1667   -10.0423  H       1  <O>11       0.0618
  37 H10       0.1536    -3.2080   -11.7577  H       1  <O>11       0.0618
  38 H11      -2.1881    -3.8473   -11.8678  H       1  <O>11       0.0618
  39 H12      -3.1027    -5.4373   -10.2847  H       1  <O>11       0.0624
  40 H13      -3.2562    -5.3188    -7.4961  H       1  <O>11       0.0647
  41 H14       1.3724    -9.5698    -6.6315  H       1  <O>11       0.0628
@<TRIPOS>BOND
     1     1     2   am
     2     2     3    2
     3     2     4    1
     4     4     5   ar
     5     5     6   ar
     6     6     7   ar
     7     7     8   ar
     8     8     9    1
     9     9    10    1
    10    10    11   ar
    11    11    12   ar
    12    12    13    1
    13    13    14   ar
    14    14    15   ar
    15    15    16   ar
    16    16    17   ar
    17    17    18   ar
    18    13    18   ar
    19    12    19   ar
    20    19    20   ar
    21    20    21    1
    22    21    22    1
    23    21    23    1
    24    21    24    1
    25    20    25   ar
    26    10    25   ar
    27    25    26    2
    28     8    27   ar
    29     4    27   ar
    30     1    28    1
    31     1    29    1
    32     9    30    1
    33     9    31    1
    34     5    32    1
    35     6    33    1
    36     7    34    1
    37    14    35    1
    38    15    36    1
    39    16    37    1
    40    17    38    1
    41    18    39    1
    42    19    40    1
    43    27    41    1
@<TRIPOS>MOLECULE
mol8_1_22
 41 43 0 0 0
SMALL
USER_CHARGES
****
VDW energy = -10.95
@<TRIPOS>ATOM
   1 N1        3.5126    -9.1101    -5.4025  N.am    1  <O>11      -0.3253
   2 C1        2.8552    -9.8129    -4.4288  C.2     1  <O>11       0.2415
   3 O1        3.4454   -10.1461    -3.4119  O.2     1  <O>11      -0.2704
   4 C2        1.4620   -10.1610    -4.6040  C.ar    1  <O>11       0.0368
   5 C3        0.7480   -10.6881    -3.5250  C.ar    1  <O>11      -0.0496
   6 C4       -0.5964   -11.0387    -3.6905  C.ar    1  <O>11      -0.0607
   7 C5       -1.2231   -10.8588    -4.9263  C.ar    1  <O>11      -0.0568
   8 C6       -0.4974   -10.3234    -5.9960  C.ar    1  <O>11      -0.0253
   9 C7       -1.1640   -10.1336    -7.2990  C.3     1  <O>11       0.0703
  10 N2       -1.7584    -8.8120    -7.3511  N.ar    1  <O>11      -0.2241
  11 N3       -1.4754    -7.8781    -6.3654  N.ar    1  <O>11      -0.1679
  12 C8       -2.0351    -6.6612    -6.4080  C.ar    1  <O>11       0.0921
  13 C9       -1.6977    -5.7493    -5.3647  C.ar    1  <O>11       0.0021
  14 C10      -2.5010    -4.6227    -5.1196  C.ar    1  <O>11      -0.0525
  15 C11      -2.1629    -3.7224    -4.1048  C.ar    1  <O>11      -0.0611
  16 C12      -1.0254    -3.9392    -3.3229  C.ar    1  <O>11      -0.0617
  17 C13      -0.2282    -5.0639    -3.5623  C.ar    1  <O>11      -0.0611
  18 C14      -0.5592    -5.9685    -4.5723  C.ar    1  <O>11      -0.0525
  19 C15      -2.9028    -6.2884    -7.4117  C.ar    1  <O>11      -0.0171
  20 C16      -3.1979    -7.2152    -8.4176  C.ar    1  <O>11       0.1225
  21 C17      -4.1250    -6.8687    -9.5125  C.3     1  <O>11       0.4225
  22 F1       -3.4149    -6.3143   -10.5593  F       1  <O>11      -0.1657
  23 F2       -5.0581    -5.9587    -9.0568  F       1  <O>11      -0.1657
  24 F3       -4.7705    -8.0099    -9.9482  F       1  <O>11      -0.1657
  25 C18      -2.6083    -8.4730    -8.3779  C.ar    1  <O>11       0.2793
  26 O2       -2.8733    -9.4156    -9.3890  O.2     1  <O>11      -0.2656
  27 C19       0.8435    -9.9693    -5.8404  C.ar    1  <O>11      -0.0447
  28 H1        3.0200    -8.8319    -6.2513  H       1  <O>11       0.1453
  29 H2        4.4949    -8.8646    -5.2793  H       1  <O>11       0.1453
  30 H3       -1.9417   -10.8875    -7.4217  H       1  <O>11       0.0560
  31 H4       -0.4307   -10.2354    -8.0995  H       1  <O>11       0.0560
  32 H5        1.2095   -10.8180    -2.6112  H       1  <O>11       0.0625
  33 H6       -1.1268   -11.4315    -2.8972  H       1  <O>11       0.0618
  34 H7       -2.2142   -11.1190    -5.0491  H       1  <O>11       0.0621
  35 H8       -3.3444    -4.4591    -5.6914  H       1  <O>11       0.0624
  36 H9       -2.7554    -2.8951    -3.9327  H       1  <O>11       0.0618
  37 H10      -0.7750    -3.2746    -2.5741  H       1  <O>11       0.0618
  38 H11       0.6127    -5.2262    -2.9865  H       1  <O>11       0.0618
  39 H12       0.0324    -6.7980    -4.7368  H       1  <O>11       0.0624
  40 H13      -3.3255    -5.3470    -7.4211  H       1  <O>11       0.0647
  41 H14       1.3724    -9.5698    -6.6315  H       1  <O>11       0.0628
@<TRIPOS>BOND
     1     1     2   am
     2     2     3    2
     3     2     4    1
     4     4     5   ar
     5     5     6   ar
     6     6     7   ar
     7     7     8   ar
     8     8     9    1
     9     9    10    1
    10    10    11   ar
    11    11    12   ar
    12    12    13    1
    13    13    14   ar
    14    14    15   ar
    15    15    16   ar
    16    16    17   ar
    17    17    18   ar
    18    13    18   ar
    19    12    19   ar
    20    19    20   ar
    21    20    21    1
    22    21    22    1
    23    21    23    1
    24    21    24    1
    25    20    25   ar
    26    10    25   ar
    27    25    26    2
    28     8    27   ar
    29     4    27   ar
    30     1    28    1
    31     1    29    1
    32     9    30    1
    33     9    31    1
    34     5    32    1
    35     6    33    1
    36     7    34    1
    37    14    35    1
    38    15    36    1
    39    16    37    1
    40    17    38    1
    41    18    39    1
    42    19    40    1
    43    27    41    1
@<TRIPOS>MOLECULE
mol8_1_23
 41 43 0 0 0
SMALL
USER_CHARGES
****
VDW energy = -10.84
@<TRIPOS>ATOM
   1 N1        3.5126    -9.1101    -5.4025  N.am    1  <O>11      -0.3253
   2 C1        2.8552    -9.8129    -4.4288  C.2     1  <O>11       0.2415
   3 O1        3.4454   -10.1461    -3.4119  O.2     1  <O>11      -0.2704
   4 C2        1.4620   -10.1610    -4.6040  C.ar    1  <O>11       0.0368
   5 C3        0.7480   -10.6881    -3.5250  C.ar    1  <O>11      -0.0496
   6 C4       -0.5964   -11.0387    -3.6905  C.ar    1  <O>11      -0.0607
   7 C5       -1.2231   -10.8588    -4.9263  C.ar    1  <O>11      -0.0568
   8 C6       -0.4974   -10.3234    -5.9960  C.ar    1  <O>11      -0.0253
   9 C7       -1.1640   -10.1336    -7.2990  C.3     1  <O>11       0.0703
  10 N2       -1.7584    -8.8120    -7.3511  N.ar    1  <O>11      -0.2241
  11 N3       -1.4754    -7.8781    -6.3654  N.ar    1  <O>11      -0.1679
  12 C8       -2.0351    -6.6612    -6.4080  C.ar    1  <O>11       0.0921
  13 C9       -1.6977    -5.7493    -5.3647  C.ar    1  <O>11       0.0021
  14 C10      -2.5010    -4.6227    -5.1196  C.ar    1  <O>11      -0.0525
  15 C11      -2.1629    -3.7224    -4.1048  C.ar    1  <O>11      -0.0611
  16 C12      -1.0254    -3.9392    -3.3229  C.ar    1  <O>11      -0.0617
  17 C13      -0.2282    -5.0639    -3.5623  C.ar    1  <O>11      -0.0611
  18 C14      -0.5592    -5.9685    -4.5723  C.ar    1  <O>11      -0.0525
  19 C15      -2.9028    -6.2884    -7.4117  C.ar    1  <O>11      -0.0171
  20 C16      -3.1979    -7.2152    -8.4176  C.ar    1  <O>11       0.1225
  21 C17      -4.1250    -6.8687    -9.5125  C.3     1  <O>11       0.4225
  22 F1       -5.4137    -7.2067    -9.1491  F       1  <O>11      -0.1657
  23 F2       -3.7720    -7.5619   -10.6533  F       1  <O>11      -0.1657
  24 F3       -4.0584    -5.5111    -9.7604  F       1  <O>11      -0.1657
  25 C18      -2.6083    -8.4730    -8.3779  C.ar    1  <O>11       0.2793
  26 O2       -2.8733    -9.4156    -9.3890  O.2     1  <O>11      -0.2656
  27 C19       0.8435    -9.9693    -5.8404  C.ar    1  <O>11      -0.0447
  28 H1        3.0200    -8.8319    -6.2513  H       1  <O>11       0.1453
  29 H2        4.4949    -8.8646    -5.2793  H       1  <O>11       0.1453
  30 H3       -1.9417   -10.8875    -7.4217  H       1  <O>11       0.0560
  31 H4       -0.4307   -10.2354    -8.0995  H       1  <O>11       0.0560
  32 H5        1.2095   -10.8180    -2.6112  H       1  <O>11       0.0625
  33 H6       -1.1268   -11.4315    -2.8972  H       1  <O>11       0.0618
  34 H7       -2.2142   -11.1190    -5.0491  H       1  <O>11       0.0621
  35 H8       -3.3444    -4.4591    -5.6914  H       1  <O>11       0.0624
  36 H9       -2.7554    -2.8951    -3.9327  H       1  <O>11       0.0618
  37 H10      -0.7750    -3.2746    -2.5741  H       1  <O>11       0.0618
  38 H11       0.6127    -5.2262    -2.9865  H       1  <O>11       0.0618
  39 H12       0.0324    -6.7980    -4.7368  H       1  <O>11       0.0624
  40 H13      -3.3255    -5.3470    -7.4211  H       1  <O>11       0.0647
  41 H14       1.3724    -9.5698    -6.6315  H       1  <O>11       0.0628
@<TRIPOS>BOND
     1     1     2   am
     2     2     3    2
     3     2     4    1
     4     4     5   ar
     5     5     6   ar
     6     6     7   ar
     7     7     8   ar
     8     8     9    1
     9     9    10    1
    10    10    11   ar
    11    11    12   ar
    12    12    13    1
    13    13    14   ar
    14    14    15   ar
    15    15    16   ar
    16    16    17   ar
    17    17    18   ar
    18    13    18   ar
    19    12    19   ar
    20    19    20   ar
    21    20    21    1
    22    21    22    1
    23    21    23    1
    24    21    24    1
    25    20    25   ar
    26    10    25   ar
    27    25    26    2
    28     8    27   ar
    29     4    27   ar
    30     1    28    1
    31     1    29    1
    32     9    30    1
    33     9    31    1
    34     5    32    1
    35     6    33    1
    36     7    34    1
    37    14    35    1
    38    15    36    1
    39    16    37    1
    40    17    38    1
    41    18    39    1
    42    19    40    1
    43    27    41    1
@<TRIPOS>MOLECULE
mol8_1_24
 41 43 0 0 0
SMALL
USER_CHARGES
****
VDW energy = -10.38
@<TRIPOS>ATOM
   1 N1        3.5126    -9.1101    -5.4025  N.am    1  <O>11      -0.3253
   2 C1        2.8552    -9.8129    -4.4288  C.2     1  <O>11       0.2415
   3 O1        3.4454   -10.1461    -3.4119  O.2     1  <O>11      -0.2704
   4 C2        1.4620   -10.1610    -4.6040  C.ar    1  <O>11       0.0368
   5 C3        0.7480   -10.6881    -3.5250  C.ar    1  <O>11      -0.0496
   6 C4       -0.5964   -11.0387    -3.6905  C.ar    1  <O>11      -0.0607
   7 C5       -1.2231   -10.8588    -4.9263  C.ar    1  <O>11      -0.0568
   8 C6       -0.4974   -10.3234    -5.9960  C.ar    1  <O>11      -0.0253
   9 C7       -1.1640   -10.1336    -7.2990  C.3     1  <O>11       0.0703
  10 N2       -2.2881    -9.2313    -7.1411  N.ar    1  <O>11      -0.2241
  11 N3       -2.4655    -8.5354    -5.9545  N.ar    1  <O>11      -0.1679
  12 C8       -3.5117    -7.7113    -5.8054  C.ar    1  <O>11       0.0921
  13 C9       -3.6313    -7.0247    -4.5611  C.ar    1  <O>11       0.0021
  14 C10      -4.8576    -6.4540    -4.1805  C.ar    1  <O>11      -0.0525
  15 C11      -4.9711    -5.7703    -2.9663  C.ar    1  <O>11      -0.0611
  16 C12      -3.8659    -5.6538    -2.1193  C.ar    1  <O>11      -0.0617
  17 C13      -2.6459    -6.2268    -2.4947  C.ar    1  <O>11      -0.0611
  18 C14      -2.5243    -6.9123    -3.7044  C.ar    1  <O>11      -0.0525
  19 C15      -4.4435    -7.5219    -6.8031  C.ar    1  <O>11      -0.0171
  20 C16      -4.2798    -8.2120    -8.0092  C.ar    1  <O>11       0.1225
  21 C17      -5.2518    -8.0493    -9.1079  C.3     1  <O>11       0.4225
  22 F1       -6.2404    -7.1659    -8.7212  F       1  <O>11      -0.1657
  23 F2       -5.8191    -9.2720    -9.4074  F       1  <O>11      -0.1657
  24 F3       -4.6060    -7.5561   -10.2253  F       1  <O>11      -0.1657
  25 C18      -3.1885    -9.0581    -8.1663  C.ar    1  <O>11       0.2793
  26 O2       -2.9908    -9.7476    -9.3772  O.2     1  <O>11      -0.2656
  27 C19       0.8435    -9.9693    -5.8404  C.ar    1  <O>11      -0.0447
  28 H1        3.0200    -8.8319    -6.2513  H       1  <O>11       0.1453
  29 H2        4.4949    -8.8646    -5.2793  H       1  <O>11       0.1453
  30 H3       -1.5188   -11.0958    -7.6684  H       1  <O>11       0.0560
  31 H4       -0.4545    -9.7110    -8.0110  H       1  <O>11       0.0560
  32 H5        1.2095   -10.8180    -2.6112  H       1  <O>11       0.0625
  33 H6       -1.1268   -11.4315    -2.8972  H       1  <O>11       0.0618
  34 H7       -2.2142   -11.1190    -5.0491  H       1  <O>11       0.0621
  35 H8       -5.6784    -6.5398    -4.8002  H       1  <O>11       0.0624
  36 H9       -5.8738    -5.3504    -2.6948  H       1  <O>11       0.0618
  37 H10      -3.9489    -5.1486    -1.2232  H       1  <O>11       0.0618
  38 H11      -1.8281    -6.1419    -1.8711  H       1  <O>11       0.0618
  39 H12      -1.6214    -7.3363    -3.9690  H       1  <O>11       0.0624
  40 H13      -5.2438    -6.8856    -6.6637  H       1  <O>11       0.0647
  41 H14       1.3724    -9.5698    -6.6315  H       1  <O>11       0.0628
@<TRIPOS>BOND
     1     1     2   am
     2     2     3    2
     3     2     4    1
     4     4     5   ar
     5     5     6   ar
     6     6     7   ar
     7     7     8   ar
     8     8     9    1
     9     9    10    1
    10    10    11   ar
    11    11    12   ar
    12    12    13    1
    13    13    14   ar
    14    14    15   ar
    15    15    16   ar
    16    16    17   ar
    17    17    18   ar
    18    13    18   ar
    19    12    19   ar
    20    19    20   ar
    21    20    21    1
    22    21    22    1
    23    21    23    1
    24    21    24    1
    25    20    25   ar
    26    10    25   ar
    27    25    26    2
    28     8    27   ar
    29     4    27   ar
    30     1    28    1
    31     1    29    1
    32     9    30    1
    33     9    31    1
    34     5    32    1
    35     6    33    1
    36     7    34    1
    37    14    35    1
    38    15    36    1
    39    16    37    1
    40    17    38    1
    41    18    39    1
    42    19    40    1
    43    27    41    1
@<TRIPOS>MOLECULE
mol8_1_25
 41 43 0 0 0
SMALL
USER_CHARGES
****
VDW energy = -10.34
@<TRIPOS>ATOM
   1 N1        3.5126    -9.1101    -5.4025  N.am    1  <O>11      -0.3253
   2 C1        2.8552    -9.8129    -4.4288  C.2     1  <O>11       0.2415
   3 O1        3.4454   -10.1461    -3.4119  O.2     1  <O>11      -0.2704
   4 C2        1.4620   -10.1610    -4.6040  C.ar    1  <O>11       0.0368
   5 C3        1.0119   -10.5678    -5.8624  C.ar    1  <O>11      -0.0496
   6 C4       -0.3368   -10.8940    -6.0423  C.ar    1  <O>11      -0.0607
   7 C5       -1.2280   -10.8179    -4.9689  C.ar    1  <O>11      -0.0568
   8 C6       -0.7615   -10.4156    -3.7126  C.ar    1  <O>11      -0.0253
   9 C7       -1.7062   -10.3383    -2.5813  C.3     1  <O>11       0.0703
  10 N2       -1.7443   -11.6146    -1.8941  N.ar    1  <O>11      -0.2241
  11 N3       -1.2803   -11.7221    -0.5914  N.ar    1  <O>11      -0.1679
  12 C8       -1.3047   -12.9049     0.0381  C.ar    1  <O>11       0.0921
  13 C9       -0.8157   -12.9431     1.3773  C.ar    1  <O>11       0.0021
  14 C10      -0.4567   -14.1670     1.9670  C.ar    1  <O>11      -0.0525
  15 C11       0.0109   -14.2054     3.2840  C.ar    1  <O>11      -0.0611
  16 C12       0.1295   -13.0252     4.0225  C.ar    1  <O>11      -0.0617
  17 C13      -0.2221   -11.8053     3.4342  C.ar    1  <O>11      -0.0611
  18 C14      -0.6884   -11.7578     2.1195  C.ar    1  <O>11      -0.0525
  19 C15      -1.7801   -14.0479    -0.5676  C.ar    1  <O>11      -0.0171
  20 C16      -2.2563   -13.9593    -1.8803  C.ar    1  <O>11       0.1225
  21 C17      -2.7712   -15.1542    -2.5770  C.3     1  <O>11       0.4225
  22 F1       -2.6870   -16.2483    -1.7384  F       1  <O>11      -0.1657
  23 F2       -2.0204   -15.3861    -3.7124  F       1  <O>11      -0.1657
  24 F3       -4.0903   -14.9478    -2.9324  F       1  <O>11      -0.1657
  25 C18      -2.2404   -12.7299    -2.5281  C.ar    1  <O>11       0.2793
  26 O2       -2.7326   -12.6108    -3.8413  O.2     1  <O>11      -0.2656
  27 C19       0.5822   -10.0896    -3.5229  C.ar    1  <O>11      -0.0447
  28 H1        3.0200    -8.8319    -6.2513  H       1  <O>11       0.1453
  29 H2        4.4949    -8.8646    -5.2793  H       1  <O>11       0.1453
  30 H3       -2.7010   -10.0965    -2.9554  H       1  <O>11       0.0560
  31 H4       -1.3801    -9.5613    -1.8894  H       1  <O>11       0.0560
  32 H5        1.6704   -10.6273    -6.6548  H       1  <O>11       0.0625
  33 H6       -0.6744   -11.1918    -6.9709  H       1  <O>11       0.0618
  34 H7       -2.2232   -11.0568    -5.1017  H       1  <O>11       0.0621
  35 H8       -0.5386   -15.0417     1.4254  H       1  <O>11       0.0624
  36 H9        0.2693   -15.1082     3.7121  H       1  <O>11       0.0618
  37 H10       0.4740   -13.0530     4.9949  H       1  <O>11       0.0618
  38 H11      -0.1359   -10.9323     3.9776  H       1  <O>11       0.0618
  39 H12      -0.9395   -10.8522     1.6931  H       1  <O>11       0.0624
  40 H13      -1.7846   -14.9489    -0.0644  H       1  <O>11       0.0647
  41 H14       0.9217    -9.7986    -2.5928  H       1  <O>11       0.0628
@<TRIPOS>BOND
     1     1     2   am
     2     2     3    2
     3     2     4    1
     4     4     5   ar
     5     5     6   ar
     6     6     7   ar
     7     7     8   ar
     8     8     9    1
     9     9    10    1
    10    10    11   ar
    11    11    12   ar
    12    12    13    1
    13    13    14   ar
    14    14    15   ar
    15    15    16   ar
    16    16    17   ar
    17    17    18   ar
    18    13    18   ar
    19    12    19   ar
    20    19    20   ar
    21    20    21    1
    22    21    22    1
    23    21    23    1
    24    21    24    1
    25    20    25   ar
    26    10    25   ar
    27    25    26    2
    28     8    27   ar
    29     4    27   ar
    30     1    28    1
    31     1    29    1
    32     9    30    1
    33     9    31    1
    34     5    32    1
    35     6    33    1
    36     7    34    1
    37    14    35    1
    38    15    36    1
    39    16    37    1
    40    17    38    1
    41    18    39    1
    42    19    40    1
    43    27    41    1
@<TRIPOS>MOLECULE
mol8_1_26
 41 43 0 0 0
SMALL
USER_CHARGES
****
VDW energy = -10.02
@<TRIPOS>ATOM
   1 N1        3.5126    -9.1101    -5.4025  N.am    1  <O>11      -0.3253
   2 C1        2.8552    -9.8129    -4.4288  C.2     1  <O>11       0.2415
   3 O1        3.4454   -10.1461    -3.4119  O.2     1  <O>11      -0.2704
   4 C2        1.4620   -10.1610    -4.6040  C.ar    1  <O>11       0.0368
   5 C3        0.8051   -10.8785    -3.6012  C.ar    1  <O>11      -0.0496
   6 C4       -0.5389   -11.2295    -3.7692  C.ar    1  <O>11      -0.0607
   7 C5       -1.2220   -10.8610    -4.9310  C.ar    1  <O>11      -0.0568
   8 C6       -0.5531   -10.1366    -5.9238  C.ar    1  <O>11      -0.0253
   9 C7       -1.2793    -9.7481    -7.1485  C.3     1  <O>11       0.0703
  10 N2       -1.1368   -10.7898    -8.1471  N.ar    1  <O>11      -0.2241
  11 N3       -0.4409   -10.5431    -9.3213  N.ar    1  <O>11      -0.1679
  12 C8       -0.3206   -11.5029   -10.2488  C.ar    1  <O>11       0.0921
  13 C9        0.4107   -11.1824   -11.4305  C.ar    1  <O>11       0.0021
  14 C10      -0.0115   -10.1323   -12.2634  C.ar    1  <O>11      -0.0525
  15 C11       0.6986    -9.8265   -13.4282  C.ar    1  <O>11      -0.0611
  16 C12       1.8373   -10.5605   -13.7704  C.ar    1  <O>11      -0.0617
  17 C13       2.2619   -11.6024   -12.9387  C.ar    1  <O>11      -0.0611
  18 C14       1.5597   -11.9134   -11.7732  C.ar    1  <O>11      -0.0525
  19 C15      -0.8736   -12.7545   -10.0843  C.ar    1  <O>11      -0.0171
  20 C16      -1.5761   -13.0242    -8.9047  C.ar    1  <O>11       0.1225
  21 C17      -2.1923   -14.3465    -8.6807  C.3     1  <O>11       0.4225
  22 F1       -1.2857   -15.1765    -8.0511  F       1  <O>11      -0.1657
  23 F2       -2.5557   -14.8979    -9.8933  F       1  <O>11      -0.1657
  24 F3       -3.3136   -14.2037    -7.8862  F       1  <O>11      -0.1657
  25 C18      -1.6908   -12.0314    -7.9390  C.ar    1  <O>11       0.2793
  26 O2       -2.3750   -12.2846    -6.7354  O.2     1  <O>11      -0.2656
  27 C19       0.7869    -9.7806    -5.7648  C.ar    1  <O>11      -0.0447
  28 H1        3.0200    -8.8319    -6.2513  H       1  <O>11       0.1453
  29 H2        4.4949    -8.8646    -5.2793  H       1  <O>11       0.1453
  30 H3       -0.8672    -8.8155    -7.5341  H       1  <O>11       0.0560
  31 H4       -2.3352    -9.6089    -6.9150  H       1  <O>11       0.0560
  32 H5        1.3083   -11.1480    -2.7415  H       1  <O>11       0.0625
  33 H6       -1.0272   -11.7623    -3.0326  H       1  <O>11       0.0618
  34 H7       -2.2128   -11.1213    -5.0560  H       1  <O>11       0.0621
  35 H8       -0.8497    -9.5842   -12.0141  H       1  <O>11       0.0624
  36 H9        0.3808    -9.0564   -14.0373  H       1  <O>11       0.0618
  37 H10       2.3615   -10.3356   -14.6305  H       1  <O>11       0.0618
  38 H11       3.1023   -12.1462   -13.1893  H       1  <O>11       0.0618
  39 H12       1.8847   -12.6801   -11.1636  H       1  <O>11       0.0624
  40 H13      -0.7719   -13.4764   -10.8147  H       1  <O>11       0.0647
  41 H14       1.2736    -9.2415    -6.4980  H       1  <O>11       0.0628
@<TRIPOS>BOND
     1     1     2   am
     2     2     3    2
     3     2     4    1
     4     4     5   ar
     5     5     6   ar
     6     6     7   ar
     7     7     8   ar
     8     8     9    1
     9     9    10    1
    10    10    11   ar
    11    11    12   ar
    12    12    13    1
    13    13    14   ar
    14    14    15   ar
    15    15    16   ar
    16    16    17   ar
    17    17    18   ar
    18    13    18   ar
    19    12    19   ar
    20    19    20   ar
    21    20    21    1
    22    21    22    1
    23    21    23    1
    24    21    24    1
    25    20    25   ar
    26    10    25   ar
    27    25    26    2
    28     8    27   ar
    29     4    27   ar
    30     1    28    1
    31     1    29    1
    32     9    30    1
    33     9    31    1
    34     5    32    1
    35     6    33    1
    36     7    34    1
    37    14    35    1
    38    15    36    1
    39    16    37    1
    40    17    38    1
    41    18    39    1
    42    19    40    1
    43    27    41    1
@<TRIPOS>MOLECULE
mol8_1_27
 41 43 0 0 0
SMALL
USER_CHARGES
****
VDW energy = -8.76
@<TRIPOS>ATOM
   1 N1        3.5126    -9.1101    -5.4025  N.am    1  <O>11      -0.3253
   2 C1        2.8552    -9.8129    -4.4288  C.2     1  <O>11       0.2415
   3 O1        3.4454   -10.1461    -3.4119  O.2     1  <O>11      -0.2704
   4 C2        1.4620   -10.1610    -4.6040  C.ar    1  <O>11       0.0368
   5 C3        0.7480   -10.6881    -3.5250  C.ar    1  <O>11      -0.0496
   6 C4       -0.5964   -11.0387    -3.6905  C.ar    1  <O>11      -0.0607
   7 C5       -1.2231   -10.8588    -4.9263  C.ar    1  <O>11      -0.0568
   8 C6       -0.4974   -10.3234    -5.9960  C.ar    1  <O>11      -0.0253
   9 C7       -1.1640   -10.1336    -7.2990  C.3     1  <O>11       0.0703
  10 N2       -1.7584    -8.8120    -7.3511  N.ar    1  <O>11      -0.2241
  11 N3       -3.1363    -8.6664    -7.4143  N.ar    1  <O>11      -0.1679
  12 C8       -3.6836    -7.4446    -7.4750  C.ar    1  <O>11       0.0921
  13 C9       -5.1065    -7.3678    -7.5346  C.ar    1  <O>11       0.0021
  14 C10      -5.7358    -6.1898    -7.9715  C.ar    1  <O>11      -0.0525
  15 C11      -7.1309    -6.1106    -8.0179  C.ar    1  <O>11      -0.0611
  16 C12      -7.9102    -7.2052    -7.6345  C.ar    1  <O>11      -0.0617
  17 C13      -7.2844    -8.3806    -7.2049  C.ar    1  <O>11      -0.0611
  18 C14      -5.8923    -8.4686    -7.1569  C.ar    1  <O>11      -0.0525
  19 C15      -2.9187    -6.2983    -7.4798  C.ar    1  <O>11      -0.0171
  20 C16      -1.5268    -6.4241    -7.4125  C.ar    1  <O>11       0.1225
  21 C17      -0.6613    -5.2286    -7.4199  C.3     1  <O>11       0.4225
  22 F1       -1.4442    -4.0936    -7.4979  F       1  <O>11      -0.1657
  23 F2        0.1859    -5.2787    -8.5091  F       1  <O>11      -0.1657
  24 F3        0.0855    -5.1931    -6.2580  F       1  <O>11      -0.1657
  25 C18      -0.9611    -7.6913    -7.3388  C.ar    1  <O>11       0.2793
  26 O2        0.4353    -7.8435    -7.2499  O.2     1  <O>11      -0.2656
  27 C19       0.8435    -9.9693    -5.8404  C.ar    1  <O>11      -0.0447
  28 H1        3.0200    -8.8319    -6.2513  H       1  <O>11       0.1453
  29 H2        4.4949    -8.8646    -5.2793  H       1  <O>11       0.1453
  30 H3       -1.9417   -10.8875    -7.4217  H       1  <O>11       0.0560
  31 H4       -0.4307   -10.2354    -8.0995  H       1  <O>11       0.0560
  32 H5        1.2095   -10.8180    -2.6112  H       1  <O>11       0.0625
  33 H6       -1.1268   -11.4315    -2.8972  H       1  <O>11       0.0618
  34 H7       -2.2142   -11.1190    -5.0491  H       1  <O>11       0.0621
  35 H8       -5.1656    -5.3793    -8.2595  H       1  <O>11       0.0624
  36 H9       -7.5865    -5.2412    -8.3364  H       1  <O>11       0.0618
  37 H10      -8.9400    -7.1471    -7.6679  H       1  <O>11       0.0618
  38 H11      -7.8577    -9.1902    -6.9207  H       1  <O>11       0.0618
  39 H12      -5.4407    -9.3422    -6.8440  H       1  <O>11       0.0624
  40 H13      -3.3625    -5.3680    -7.5318  H       1  <O>11       0.0647
  41 H14       1.3724    -9.5698    -6.6315  H       1  <O>11       0.0628
@<TRIPOS>BOND
     1     1     2   am
     2     2     3    2
     3     2     4    1
     4     4     5   ar
     5     5     6   ar
     6     6     7   ar
     7     7     8   ar
     8     8     9    1
     9     9    10    1
    10    10    11   ar
    11    11    12   ar
    12    12    13    1
    13    13    14   ar
    14    14    15   ar
    15    15    16   ar
    16    16    17   ar
    17    17    18   ar
    18    13    18   ar
    19    12    19   ar
    20    19    20   ar
    21    20    21    1
    22    21    22    1
    23    21    23    1
    24    21    24    1
    25    20    25   ar
    26    10    25   ar
    27    25    26    2
    28     8    27   ar
    29     4    27   ar
    30     1    28    1
    31     1    29    1
    32     9    30    1
    33     9    31    1
    34     5    32    1
    35     6    33    1
    36     7    34    1
    37    14    35    1
    38    15    36    1
    39    16    37    1
    40    17    38    1
    41    18    39    1
    42    19    40    1
    43    27    41    1
@<TRIPOS>MOLECULE
mol8_1_28
 41 43 0 0 0
SMALL
USER_CHARGES
****
VDW energy = -8.75
@<TRIPOS>ATOM
   1 N1        3.5126    -9.1101    -5.4025  N.am    1  <O>11      -0.3253
   2 C1        2.8552    -9.8129    -4.4288  C.2     1  <O>11       0.2415
   3 O1        3.4454   -10.1461    -3.4119  O.2     1  <O>11      -0.2704
   4 C2        1.4620   -10.1610    -4.6040  C.ar    1  <O>11       0.0368
   5 C3        0.7480   -10.6881    -3.5250  C.ar    1  <O>11      -0.0496
   6 C4       -0.5964   -11.0387    -3.6905  C.ar    1  <O>11      -0.0607
   7 C5       -1.2231   -10.8588    -4.9263  C.ar    1  <O>11      -0.0568
   8 C6       -0.4974   -10.3234    -5.9960  C.ar    1  <O>11      -0.0253
   9 C7       -1.1640   -10.1336    -7.2990  C.3     1  <O>11       0.0703
  10 N2       -2.2881    -9.2313    -7.1411  N.ar    1  <O>11      -0.2241
  11 N3       -2.4655    -8.5354    -5.9545  N.ar    1  <O>11      -0.1679
  12 C8       -3.5117    -7.7113    -5.8054  C.ar    1  <O>11       0.0921
  13 C9       -3.6313    -7.0247    -4.5611  C.ar    1  <O>11       0.0021
  14 C10      -4.8576    -6.4540    -4.1805  C.ar    1  <O>11      -0.0525
  15 C11      -4.9711    -5.7703    -2.9663  C.ar    1  <O>11      -0.0611
  16 C12      -3.8659    -5.6538    -2.1193  C.ar    1  <O>11      -0.0617
  17 C13      -2.6459    -6.2268    -2.4947  C.ar    1  <O>11      -0.0611
  18 C14      -2.5243    -6.9123    -3.7044  C.ar    1  <O>11      -0.0525
  19 C15      -4.4435    -7.5219    -6.8031  C.ar    1  <O>11      -0.0171
  20 C16      -4.2798    -8.2120    -8.0092  C.ar    1  <O>11       0.1225
  21 C17      -5.2518    -8.0493    -9.1079  C.3     1  <O>11       0.4225
  22 F1       -4.8551    -7.0077    -9.9234  F       1  <O>11      -0.1657
  23 F2       -6.4992    -7.7737    -8.5838  F       1  <O>11      -0.1657
  24 F3       -5.3112    -9.2150    -9.8471  F       1  <O>11      -0.1657
  25 C18      -3.1885    -9.0581    -8.1663  C.ar    1  <O>11       0.2793
  26 O2       -2.9908    -9.7476    -9.3772  O.2     1  <O>11      -0.2656
  27 C19       0.8435    -9.9693    -5.8404  C.ar    1  <O>11      -0.0447
  28 H1        3.0200    -8.8319    -6.2513  H       1  <O>11       0.1453
  29 H2        4.4949    -8.8646    -5.2793  H       1  <O>11       0.1453
  30 H3       -1.5188   -11.0958    -7.6684  H       1  <O>11       0.0560
  31 H4       -0.4545    -9.7110    -8.0110  H       1  <O>11       0.0560
  32 H5        1.2095   -10.8180    -2.6112  H       1  <O>11       0.0625
  33 H6       -1.1268   -11.4315    -2.8972  H       1  <O>11       0.0618
  34 H7       -2.2142   -11.1190    -5.0491  H       1  <O>11       0.0621
  35 H8       -5.6784    -6.5398    -4.8002  H       1  <O>11       0.0624
  36 H9       -5.8738    -5.3504    -2.6948  H       1  <O>11       0.0618
  37 H10      -3.9489    -5.1486    -1.2232  H       1  <O>11       0.0618
  38 H11      -1.8281    -6.1419    -1.8711  H       1  <O>11       0.0618
  39 H12      -1.6214    -7.3363    -3.9690  H       1  <O>11       0.0624
  40 H13      -5.2438    -6.8856    -6.6637  H       1  <O>11       0.0647
  41 H14       1.3724    -9.5698    -6.6315  H       1  <O>11       0.0628
@<TRIPOS>BOND
     1     1     2   am
     2     2     3    2
     3     2     4    1
     4     4     5   ar
     5     5     6   ar
     6     6     7   ar
     7     7     8   ar
     8     8     9    1
     9     9    10    1
    10    10    11   ar
    11    11    12   ar
    12    12    13    1
    13    13    14   ar
    14    14    15   ar
    15    15    16   ar
    16    16    17   ar
    17    17    18   ar
    18    13    18   ar
    19    12    19   ar
    20    19    20   ar
    21    20    21    1
    22    21    22    1
    23    21    23    1
    24    21    24    1
    25    20    25   ar
    26    10    25   ar
    27    25    26    2
    28     8    27   ar
    29     4    27   ar
    30     1    28    1
    31     1    29    1
    32     9    30    1
    33     9    31    1
    34     5    32    1
    35     6    33    1
    36     7    34    1
    37    14    35    1
    38    15    36    1
    39    16    37    1
    40    17    38    1
    41    18    39    1
    42    19    40    1
    43    27    41    1
@<TRIPOS>MOLECULE
mol8_1_29
 41 43 0 0 0
SMALL
USER_CHARGES
****
VDW energy = -8.63
@<TRIPOS>ATOM
   1 N1        3.5126    -9.1101    -5.4025  N.am    1  <O>11      -0.3253
   2 C1        2.8552    -9.8129    -4.4288  C.2     1  <O>11       0.2415
   3 O1        3.4454   -10.1461    -3.4119  O.2     1  <O>11      -0.2704
   4 C2        1.4620   -10.1610    -4.6040  C.ar    1  <O>11       0.0368
   5 C3        0.5926    -9.2324    -5.1817  C.ar    1  <O>11      -0.0496
   6 C4       -0.7587    -9.5574    -5.3429  C.ar    1  <O>11      -0.0607
   7 C5       -1.2358   -10.8050    -4.9328  C.ar    1  <O>11      -0.0568
   8 C6       -0.3520   -11.7276    -4.3622  C.ar    1  <O>11      -0.0253
   9 C7       -0.8601   -13.0448    -3.9320  C.3     1  <O>11       0.0703
  10 N2       -0.7575   -13.9858    -5.0305  N.ar    1  <O>11      -0.2241
  11 N3       -1.9023   -14.5140    -5.6087  N.ar    1  <O>11      -0.1679
  12 C8       -1.8058   -15.3930    -6.6156  C.ar    1  <O>11       0.0921
  13 C9       -3.0227   -15.8934    -7.1657  C.ar    1  <O>11       0.0021
  14 C10      -3.0222   -17.0666    -7.9392  C.ar    1  <O>11      -0.0525
  15 C11      -4.2135   -17.5499    -8.4886  C.ar    1  <O>11      -0.0611
  16 C12      -5.4152   -16.8718    -8.2683  C.ar    1  <O>11      -0.0617
  17 C13      -5.4176   -15.7068    -7.4934  C.ar    1  <O>11      -0.0611
  18 C14      -4.2331   -15.2183    -6.9399  C.ar    1  <O>11      -0.0525
  19 C15      -0.5889   -15.8074    -7.1126  C.ar    1  <O>11      -0.0171
  20 C16       0.5776   -15.2830    -6.5452  C.ar    1  <O>11       0.1225
  21 C17       1.9062   -15.6974    -7.0365  C.3     1  <O>11       0.4225
  22 F1        1.7541   -16.6103    -8.0616  F       1  <O>11      -0.1657
  23 F2        2.6193   -16.2774    -6.0061  F       1  <O>11      -0.1657
  24 F3        2.5904   -14.5916    -7.5035  F       1  <O>11      -0.1657
  25 C18       0.4758   -14.3633    -5.5083  C.ar    1  <O>11       0.2793
  26 O2        1.6340   -13.8061    -4.9346  O.2     1  <O>11      -0.2656
  27 C19       0.9978   -11.4132    -4.1985  C.ar    1  <O>11      -0.0447
  28 H1        3.0200    -8.8319    -6.2513  H       1  <O>11       0.1453
  29 H2        4.4949    -8.8646    -5.2793  H       1  <O>11       0.1453
  30 H3       -1.9031   -12.9502    -3.6300  H       1  <O>11       0.0560
  31 H4       -0.2693   -13.4032    -3.0885  H       1  <O>11       0.0560
  32 H5        0.9451    -8.3121    -5.4877  H       1  <O>11       0.0625
  33 H6       -1.4052    -8.8734    -5.7660  H       1  <O>11       0.0618
  34 H7       -2.2328   -11.0443    -5.0499  H       1  <O>11       0.0621
  35 H8       -2.1384   -17.5738    -8.1024  H       1  <O>11       0.0624
  36 H9       -4.2053   -18.4101    -9.0587  H       1  <O>11       0.0618
  37 H10      -6.2948   -17.2278    -8.6742  H       1  <O>11       0.0618
  38 H11      -6.3037   -15.2040    -7.3295  H       1  <O>11       0.0618
  39 H12      -4.2468   -14.3613    -6.3650  H       1  <O>11       0.0624
  40 H13      -0.5393   -16.4892    -7.8857  H       1  <O>11       0.0647
  41 H14       1.6461   -12.0997    -3.7820  H       1  <O>11       0.0628
@<TRIPOS>BOND
     1     1     2   am
     2     2     3    2
     3     2     4    1
     4     4     5   ar
     5     5     6   ar
     6     6     7   ar
     7     7     8   ar
     8     8     9    1
     9     9    10    1
    10    10    11   ar
    11    11    12   ar
    12    12    13    1
    13    13    14   ar
    14    14    15   ar
    15    15    16   ar
    16    16    17   ar
    17    17    18   ar
    18    13    18   ar
    19    12    19   ar
    20    19    20   ar
    21    20    21    1
    22    21    22    1
    23    21    23    1
    24    21    24    1
    25    20    25   ar
    26    10    25   ar
    27    25    26    2
    28     8    27   ar
    29     4    27   ar
    30     1    28    1
    31     1    29    1
    32     9    30    1
    33     9    31    1
    34     5    32    1
    35     6    33    1
    36     7    34    1
    37    14    35    1
    38    15    36    1
    39    16    37    1
    40    17    38    1
    41    18    39    1
    42    19    40    1
    43    27    41    1
@<TRIPOS>MOLECULE
mol8_1_30
 41 43 0 0 0
SMALL
USER_CHARGES
****
VDW energy = -4.95
@<TRIPOS>ATOM
   1 N1        3.5126    -9.1101    -5.4025  N.am    1  <O>11      -0.3253
   2 C1        2.8552    -9.8129    -4.4288  C.2     1  <O>11       0.2415
   3 O1        3.4454   -10.1461    -3.4119  O.2     1  <O>11      -0.2704
   4 C2        1.4620   -10.1610    -4.6040  C.ar    1  <O>11       0.0368
   5 C3        0.7480   -10.6881    -3.5250  C.ar    1  <O>11      -0.0496
   6 C4       -0.5964   -11.0387    -3.6905  C.ar    1  <O>11      -0.0607
   7 C5       -1.2231   -10.8588    -4.9263  C.ar    1  <O>11      -0.0568
   8 C6       -0.4974   -10.3234    -5.9960  C.ar    1  <O>11      -0.0253
   9 C7       -1.1640   -10.1336    -7.2990  C.3     1  <O>11       0.0703
  10 N2       -1.7584    -8.8120    -7.3511  N.ar    1  <O>11      -0.2241
  11 N3       -1.2815    -7.8651    -8.2454  N.ar    1  <O>11      -0.1679
  12 C8       -1.8235    -6.6400    -8.2839  C.ar    1  <O>11       0.0921
  13 C9       -1.2873    -5.7171    -9.2297  C.ar    1  <O>11       0.0021
  14 C10      -1.5221    -4.3389    -9.0880  C.ar    1  <O>11      -0.0525
  15 C11      -1.0067    -3.4356   -10.0223  C.ar    1  <O>11      -0.0611
  16 C12      -0.2493    -3.8968   -11.1022  C.ar    1  <O>11      -0.0617
  17 C13      -0.0100    -5.2684   -11.2409  C.ar    1  <O>11      -0.0611
  18 C14      -0.5196    -6.1769   -10.3119  C.ar    1  <O>11      -0.0525
  19 C15      -2.8578    -6.2698    -7.4517  C.ar    1  <O>11      -0.0171
  20 C16      -3.3555    -7.2122    -6.5451  C.ar    1  <O>11       0.1225
  21 C17      -4.4585    -6.8656    -5.6278  C.3     1  <O>11       0.4225
  22 F1       -4.8423    -5.5565    -5.8430  F       1  <O>11      -0.1657
  23 F2       -4.0360    -7.0122    -4.3214  F       1  <O>11      -0.1657
  24 F3       -5.5321    -7.7036    -5.8605  F       1  <O>11      -0.1657
  25 C18      -2.7996    -8.4856    -6.5138  C.ar    1  <O>11       0.2793
  26 O2       -3.2961    -9.4575    -5.6251  O.2     1  <O>11      -0.2656
  27 C19       0.8435    -9.9693    -5.8404  C.ar    1  <O>11      -0.0447
  28 H1        3.0200    -8.8319    -6.2513  H       1  <O>11       0.1453
  29 H2        4.4949    -8.8646    -5.2793  H       1  <O>11       0.1453
  30 H3       -1.9417   -10.8875    -7.4217  H       1  <O>11       0.0560
  31 H4       -0.4307   -10.2354    -8.0995  H       1  <O>11       0.0560
  32 H5        1.2095   -10.8180    -2.6112  H       1  <O>11       0.0625
  33 H6       -1.1268   -11.4315    -2.8972  H       1  <O>11       0.0618
  34 H7       -2.2142   -11.1190    -5.0491  H       1  <O>11       0.0621
  35 H8       -2.0776    -3.9919    -8.2905  H       1  <O>11       0.0624
  36 H9       -1.1861    -2.4251    -9.9142  H       1  <O>11       0.0618
  37 H10       0.1309    -3.2305   -11.7926  H       1  <O>11       0.0618
  38 H11       0.5487    -5.6116   -12.0377  H       1  <O>11       0.0618
  39 H12      -0.3322    -7.1860   -10.4202  H       1  <O>11       0.0624
  40 H13      -3.2562    -5.3188    -7.4961  H       1  <O>11       0.0647
  41 H14       1.3724    -9.5698    -6.6315  H       1  <O>11       0.0628
@<TRIPOS>BOND
     1     1     2   am
     2     2     3    2
     3     2     4    1
     4     4     5   ar
     5     5     6   ar
     6     6     7   ar
     7     7     8   ar
     8     8     9    1
     9     9    10    1
    10    10    11   ar
    11    11    12   ar
    12    12    13    1
    13    13    14   ar
    14    14    15   ar
    15    15    16   ar
    16    16    17   ar
    17    17    18   ar
    18    13    18   ar
    19    12    19   ar
    20    19    20   ar
    21    20    21    1
    22    21    22    1
    23    21    23    1
    24    21    24    1
    25    20    25   ar
    26    10    25   ar
    27    25    26    2
    28     8    27   ar
    29     4    27   ar
    30     1    28    1
    31     1    29    1
    32     9    30    1
    33     9    31    1
    34     5    32    1
    35     6    33    1
    36     7    34    1
    37    14    35    1
    38    15    36    1
    39    16    37    1
    40    17    38    1
    41    18    39    1
    42    19    40    1
    43    27    41    1
