@<TRIPOS>MOLECULE
mol84_1_1
 36 37 0 0 0
SMALL
USER_CHARGES
****
VDW energy = -321.98
@<TRIPOS>ATOM
   1 C1        3.4850    -9.0906    -5.4577  C.3     1  <O>11       0.0098
   2 N1        2.7955    -9.8278    -4.4362  N.am    1  <O>11      -0.2587
   3 C2        3.4570   -10.2010    -3.2970  C.2     1  <O>11       0.3037
   4 N2        4.7750    -9.8720    -3.1320  N.am    1  <O>11      -0.3129
   5 O1        2.8700   -10.8280    -2.4280  O.2     1  <O>11      -0.2525
   6 C3        1.4620   -10.1610    -4.6040  C.ar    1  <O>11       0.0392
   7 C4        1.1318   -11.3708    -5.2197  C.ar    1  <O>11      -0.0401
   8 C5       -0.2135   -11.7086    -5.4038  C.ar    1  <O>11      -0.0582
   9 C6       -1.2214   -10.8434    -4.9707  C.ar    1  <O>11      -0.0392
  10 C7       -0.8758    -9.6382    -4.3494  C.ar    1  <O>11       0.0498
  11 N3       -1.9188    -8.7498    -3.9027  N.pl3   1  <O>11      -0.2160
  12 S1       -2.9113    -8.0211    -5.0035  S.O2    1  <O>11       0.0780
  13 O2       -3.7194    -9.1818    -5.8748  O.2     1  <O>11      -0.1498
  14 O3       -2.0040    -7.0862    -6.0339  O.2     1  <O>11      -0.1498
  15 C8       -4.0811    -6.9989    -4.1555  C.ar    1  <O>11       0.1843
  16 C9       -4.9696    -7.5620    -3.2226  C.ar    1  <O>11       0.1907
  17 F1       -4.9201    -8.9071    -2.9615  F       1  <O>11      -0.2002
  18 C10      -5.9022    -6.7552    -2.5606  C.ar    1  <O>11       0.1983
  19 F2       -6.7651    -7.3155    -1.6552  F       1  <O>11      -0.1993
  20 C11      -5.9549    -5.3841    -2.8207  C.ar    1  <O>11       0.1992
  21 F3       -6.8689    -4.5896    -2.1783  F       1  <O>11      -0.1993
  22 C12      -5.0671    -4.8220    -3.7433  C.ar    1  <O>11       0.1983
  23 F4       -5.1220    -3.4758    -3.9926  F       1  <O>11      -0.1993
  24 C13      -4.1306    -5.6171    -4.4072  C.ar    1  <O>11       0.1907
  25 F5       -3.2549    -5.0665    -5.3069  F       1  <O>11      -0.2002
  26 C14       0.4631    -9.2932    -4.1599  C.ar    1  <O>11      -0.0178
  27 H1        2.8015    -8.8851    -6.2815  H       1  <O>11       0.0433
  28 H2        4.3281    -9.6772    -5.8227  H       1  <O>11       0.0433
  29 H3        3.8487    -8.1500    -5.0440  H       1  <O>11       0.0433
  30 H4        5.2680   -10.1500    -2.2830  H       1  <O>11       0.1465
  31 H5        5.2650    -9.3480    -3.8570  H       1  <O>11       0.1465
  32 H6       -2.0434    -8.5721    -2.9053  H       1  <O>11       0.1737
  33 H7        1.8759   -12.0117    -5.5368  H       1  <O>11       0.0636
  34 H8       -0.4620   -12.5997    -5.8611  H       1  <O>11       0.0619
  35 H9       -2.2137   -11.0914    -5.1080  H       1  <O>11       0.0636
  36 H10       0.7121    -8.4055    -3.6962  H       1  <O>11       0.0655
@<TRIPOS>BOND
     1     1     2    1
     2     2     3   am
     3     3     4   am
     4     3     5    2
     5     2     6    1
     6     6     7   ar
     7     7     8   ar
     8     8     9   ar
     9     9    10   ar
    10    10    11    1
    11    11    12    1
    12    12    13    2
    13    12    14    2
    14    12    15    1
    15    15    16   ar
    16    16    17    1
    17    16    18   ar
    18    18    19    1
    19    18    20   ar
    20    20    21    1
    21    20    22   ar
    22    22    23    1
    23    22    24   ar
    24    15    24   ar
    25    24    25    1
    26    10    26   ar
    27     6    26   ar
    28     1    27    1
    29     1    28    1
    30     1    29    1
    31     4    30    1
    32     4    31    1
    33    11    32    1
    34     7    33    1
    35     8    34    1
    36     9    35    1
    37    26    36    1
@<TRIPOS>MOLECULE
mol84_1_2
 36 37 0 0 0
SMALL
USER_CHARGES
****
VDW energy = -321.93
@<TRIPOS>ATOM
   1 C1        3.4850    -9.0906    -5.4577  C.3     1  <O>11       0.0098
   2 N1        2.7955    -9.8278    -4.4362  N.am    1  <O>11      -0.2587
   3 C2        3.4570   -10.2010    -3.2970  C.2     1  <O>11       0.3037
   4 N2        4.7750    -9.8720    -3.1320  N.am    1  <O>11      -0.3129
   5 O1        2.8700   -10.8280    -2.4280  O.2     1  <O>11      -0.2525
   6 C3        1.4620   -10.1610    -4.6040  C.ar    1  <O>11       0.0392
   7 C4        0.4754    -9.2802    -4.1540  C.ar    1  <O>11      -0.0401
   8 C5       -0.8741    -9.6158    -4.3090  C.ar    1  <O>11      -0.0582
   9 C6       -1.2337   -10.8227    -4.9142  C.ar    1  <O>11      -0.0392
  10 C7       -0.2347   -11.6918    -5.3662  C.ar    1  <O>11       0.0498
  11 N3       -0.6102   -12.9347    -5.9915  N.pl3   1  <O>11      -0.2160
  12 S1       -1.4052   -12.9243    -7.4393  S.O2    1  <O>11       0.0780
  13 O2       -0.4657   -12.1685    -8.5819  O.2     1  <O>11      -0.1498
  14 O3       -2.8428   -12.1084    -7.2761  O.2     1  <O>11      -0.1498
  15 C8       -1.7262   -14.5891    -7.9467  C.ar    1  <O>11       0.1843
  16 C9       -0.6626   -15.4849    -8.1536  C.ar    1  <O>11       0.1907
  17 F1        0.6277   -15.0684    -7.9495  F       1  <O>11      -0.2002
  18 C10      -0.9162   -16.7982    -8.5659  C.ar    1  <O>11       0.1983
  19 F2        0.1287   -17.6618    -8.7670  F       1  <O>11      -0.1993
  20 C11      -2.2287   -17.2285    -8.7724  C.ar    1  <O>11       0.1992
  21 F3       -2.4830   -18.5124    -9.1802  F       1  <O>11      -0.1993
  22 C12      -3.2877   -16.3403    -8.5604  C.ar    1  <O>11       0.1983
  23 F4       -4.5733   -16.7689    -8.7623  F       1  <O>11      -0.1993
  24 C13      -3.0462   -15.0288    -8.1460  C.ar    1  <O>11       0.1907
  25 F5       -4.0836   -14.1587    -7.9310  F       1  <O>11      -0.2002
  26 C14       1.1140   -11.3653    -5.2175  C.ar    1  <O>11      -0.0178
  27 H1        2.8015    -8.8851    -6.2815  H       1  <O>11       0.0433
  28 H2        4.3281    -9.6772    -5.8227  H       1  <O>11       0.0433
  29 H3        3.8487    -8.1500    -5.0440  H       1  <O>11       0.0433
  30 H4        5.2680   -10.1500    -2.2830  H       1  <O>11       0.1465
  31 H5        5.2650    -9.3480    -3.8570  H       1  <O>11       0.1465
  32 H6       -0.3839   -13.8210    -5.5387  H       1  <O>11       0.1737
  33 H7        0.7404    -8.3872    -3.7099  H       1  <O>11       0.0636
  34 H8       -1.6063    -8.9698    -3.9751  H       1  <O>11       0.0619
  35 H9       -2.2289   -11.0713    -5.0270  H       1  <O>11       0.0636
  36 H10       1.8465   -12.0078    -5.5578  H       1  <O>11       0.0655
@<TRIPOS>BOND
     1     1     2    1
     2     2     3   am
     3     3     4   am
     4     3     5    2
     5     2     6    1
     6     6     7   ar
     7     7     8   ar
     8     8     9   ar
     9     9    10   ar
    10    10    11    1
    11    11    12    1
    12    12    13    2
    13    12    14    2
    14    12    15    1
    15    15    16   ar
    16    16    17    1
    17    16    18   ar
    18    18    19    1
    19    18    20   ar
    20    20    21    1
    21    20    22   ar
    22    22    23    1
    23    22    24   ar
    24    15    24   ar
    25    24    25    1
    26    10    26   ar
    27     6    26   ar
    28     1    27    1
    29     1    28    1
    30     1    29    1
    31     4    30    1
    32     4    31    1
    33    11    32    1
    34     7    33    1
    35     8    34    1
    36     9    35    1
    37    26    36    1
@<TRIPOS>MOLECULE
mol84_1_3
 36 37 0 0 0
SMALL
USER_CHARGES
****
VDW energy = -321.08
@<TRIPOS>ATOM
   1 C1        3.4850    -9.0906    -5.4577  C.3     1  <O>11       0.0098
   2 N1        2.7955    -9.8278    -4.4362  N.am    1  <O>11      -0.2587
   3 C2        3.4570   -10.2010    -3.2970  C.2     1  <O>11       0.3037
   4 N2        4.7750    -9.8720    -3.1320  N.am    1  <O>11      -0.3129
   5 O1        2.8700   -10.8280    -2.4280  O.2     1  <O>11      -0.2525
   6 C3        1.4620   -10.1610    -4.6040  C.ar    1  <O>11       0.0392
   7 C4        1.1318   -11.3708    -5.2197  C.ar    1  <O>11      -0.0401
   8 C5       -0.2135   -11.7086    -5.4038  C.ar    1  <O>11      -0.0582
   9 C6       -1.2214   -10.8434    -4.9707  C.ar    1  <O>11      -0.0392
  10 C7       -0.8758    -9.6382    -4.3494  C.ar    1  <O>11       0.0498
  11 N3       -1.9188    -8.7498    -3.9027  N.pl3   1  <O>11      -0.2160
  12 S1       -1.5301    -7.3230    -3.1670  S.O2    1  <O>11       0.0780
  13 O2       -2.9216    -6.5112    -2.7622  O.2     1  <O>11      -0.1498
  14 O3       -0.6276    -6.3922    -4.2053  O.2     1  <O>11      -0.1498
  15 C8       -0.5918    -7.6520    -1.7029  C.ar    1  <O>11       0.1843
  16 C9       -1.1430    -8.4255    -0.6663  C.ar    1  <O>11       0.1907
  17 F1       -2.4087    -8.9361    -0.7972  F       1  <O>11      -0.2002
  18 C10      -0.4049    -8.6758     0.4963  C.ar    1  <O>11       0.1983
  19 F2       -0.9536    -9.4290     1.5012  F       1  <O>11      -0.1993
  20 C11       0.8858    -8.1606     0.6335  C.ar    1  <O>11       0.1992
  21 F3        1.6119    -8.3991     1.7715  F       1  <O>11      -0.1993
  22 C12       1.4375    -7.3968    -0.3998  C.ar    1  <O>11       0.1983
  23 F4        2.7052    -6.8959    -0.2604  F       1  <O>11      -0.1993
  24 C13       0.7112    -7.1434    -1.5652  C.ar    1  <O>11       0.1907
  25 F5        1.2532    -6.4006    -2.5821  F       1  <O>11      -0.2002
  26 C14       0.4631    -9.2932    -4.1599  C.ar    1  <O>11      -0.0178
  27 H1        2.8015    -8.8851    -6.2815  H       1  <O>11       0.0433
  28 H2        4.3281    -9.6772    -5.8227  H       1  <O>11       0.0433
  29 H3        3.8487    -8.1500    -5.0440  H       1  <O>11       0.0433
  30 H4        5.2680   -10.1500    -2.2830  H       1  <O>11       0.1465
  31 H5        5.2650    -9.3480    -3.8570  H       1  <O>11       0.1465
  32 H6       -2.8976    -9.0034    -4.0419  H       1  <O>11       0.1737
  33 H7        1.8759   -12.0117    -5.5368  H       1  <O>11       0.0636
  34 H8       -0.4620   -12.5997    -5.8611  H       1  <O>11       0.0619
  35 H9       -2.2137   -11.0914    -5.1080  H       1  <O>11       0.0636
  36 H10       0.7121    -8.4055    -3.6962  H       1  <O>11       0.0655
@<TRIPOS>BOND
     1     1     2    1
     2     2     3   am
     3     3     4   am
     4     3     5    2
     5     2     6    1
     6     6     7   ar
     7     7     8   ar
     8     8     9   ar
     9     9    10   ar
    10    10    11    1
    11    11    12    1
    12    12    13    2
    13    12    14    2
    14    12    15    1
    15    15    16   ar
    16    16    17    1
    17    16    18   ar
    18    18    19    1
    19    18    20   ar
    20    20    21    1
    21    20    22   ar
    22    22    23    1
    23    22    24   ar
    24    15    24   ar
    25    24    25    1
    26    10    26   ar
    27     6    26   ar
    28     1    27    1
    29     1    28    1
    30     1    29    1
    31     4    30    1
    32     4    31    1
    33    11    32    1
    34     7    33    1
    35     8    34    1
    36     9    35    1
    37    26    36    1
@<TRIPOS>MOLECULE
mol84_1_4
 36 37 0 0 0
SMALL
USER_CHARGES
****
VDW energy = -320.44
@<TRIPOS>ATOM
   1 C1        3.4850    -9.0906    -5.4577  C.3     1  <O>11       0.0098
   2 N1        2.7955    -9.8278    -4.4362  N.am    1  <O>11      -0.2587
   3 C2        3.4570   -10.2010    -3.2970  C.2     1  <O>11       0.3037
   4 N2        4.7750    -9.8720    -3.1320  N.am    1  <O>11      -0.3129
   5 O1        2.8700   -10.8280    -2.4280  O.2     1  <O>11      -0.2525
   6 C3        1.4620   -10.1610    -4.6040  C.ar    1  <O>11       0.0392
   7 C4        0.4754    -9.2802    -4.1540  C.ar    1  <O>11      -0.0401
   8 C5       -0.8741    -9.6158    -4.3090  C.ar    1  <O>11      -0.0582
   9 C6       -1.2337   -10.8227    -4.9142  C.ar    1  <O>11      -0.0392
  10 C7       -0.2347   -11.6918    -5.3662  C.ar    1  <O>11       0.0498
  11 N3       -0.6102   -12.9347    -5.9915  N.pl3   1  <O>11      -0.2160
  12 S1       -0.8106   -14.2937    -5.0744  S.O2    1  <O>11       0.0780
  13 O2       -2.0062   -14.0328    -3.9510  O.2     1  <O>11      -0.1498
  14 O3        0.6125   -14.6517    -4.2962  O.2     1  <O>11      -0.1498
  15 C8       -1.2680   -15.6470    -6.1193  C.ar    1  <O>11       0.1843
  16 C9       -2.0763   -16.6845    -5.6227  C.ar    1  <O>11       0.1907
  17 F1       -2.5209   -16.6401    -4.3264  F       1  <O>11      -0.2002
  18 C10      -2.4284   -17.7603    -6.4459  C.ar    1  <O>11       0.1983
  19 F2       -3.2147   -18.7673    -5.9501  F       1  <O>11      -0.1993
  20 C11      -1.9807   -17.8091    -7.7679  C.ar    1  <O>11       0.1992
  21 F3       -2.3190   -18.8622    -8.5776  F       1  <O>11      -0.1993
  22 C12      -1.1823   -16.7743    -8.2648  C.ar    1  <O>11       0.1983
  23 F4       -0.7480   -16.8265    -9.5632  F       1  <O>11      -0.1993
  24 C13      -0.8276   -15.6947    -7.4531  C.ar    1  <O>11       0.1907
  25 F5       -0.0506   -14.6759    -7.9408  F       1  <O>11      -0.2002
  26 C14       1.1140   -11.3653    -5.2175  C.ar    1  <O>11      -0.0178
  27 H1        2.8015    -8.8851    -6.2815  H       1  <O>11       0.0433
  28 H2        4.3281    -9.6772    -5.8227  H       1  <O>11       0.0433
  29 H3        3.8487    -8.1500    -5.0440  H       1  <O>11       0.0433
  30 H4        5.2680   -10.1500    -2.2830  H       1  <O>11       0.1465
  31 H5        5.2650    -9.3480    -3.8570  H       1  <O>11       0.1465
  32 H6       -0.7526   -12.9737    -7.0015  H       1  <O>11       0.1737
  33 H7        0.7404    -8.3872    -3.7099  H       1  <O>11       0.0636
  34 H8       -1.6063    -8.9698    -3.9751  H       1  <O>11       0.0619
  35 H9       -2.2289   -11.0713    -5.0270  H       1  <O>11       0.0636
  36 H10       1.8465   -12.0078    -5.5578  H       1  <O>11       0.0655
@<TRIPOS>BOND
     1     1     2    1
     2     2     3   am
     3     3     4   am
     4     3     5    2
     5     2     6    1
     6     6     7   ar
     7     7     8   ar
     8     8     9   ar
     9     9    10   ar
    10    10    11    1
    11    11    12    1
    12    12    13    2
    13    12    14    2
    14    12    15    1
    15    15    16   ar
    16    16    17    1
    17    16    18   ar
    18    18    19    1
    19    18    20   ar
    20    20    21    1
    21    20    22   ar
    22    22    23    1
    23    22    24   ar
    24    15    24   ar
    25    24    25    1
    26    10    26   ar
    27     6    26   ar
    28     1    27    1
    29     1    28    1
    30     1    29    1
    31     4    30    1
    32     4    31    1
    33    11    32    1
    34     7    33    1
    35     8    34    1
    36     9    35    1
    37    26    36    1
@<TRIPOS>MOLECULE
mol84_1_5
 36 37 0 0 0
SMALL
USER_CHARGES
****
VDW energy = -320.37
@<TRIPOS>ATOM
   1 C1        3.4850    -9.0906    -5.4577  C.3     1  <O>11       0.0098
   2 N1        2.7955    -9.8278    -4.4362  N.am    1  <O>11      -0.2587
   3 C2        3.4570   -10.2010    -3.2970  C.2     1  <O>11       0.3037
   4 N2        4.7750    -9.8720    -3.1320  N.am    1  <O>11      -0.3129
   5 O1        2.8700   -10.8280    -2.4280  O.2     1  <O>11      -0.2525
   6 C3        1.4620   -10.1610    -4.6040  C.ar    1  <O>11       0.0392
   7 C4        0.5186    -9.1438    -4.7682  C.ar    1  <O>11      -0.0401
   8 C5       -0.8323    -9.4724    -4.9259  C.ar    1  <O>11      -0.0582
   9 C6       -1.2356   -10.8101    -4.9237  C.ar    1  <O>11      -0.0392
  10 C7       -0.2787   -11.8185    -4.7651  C.ar    1  <O>11       0.0498
  11 N3       -0.6990   -13.1969    -4.7653  N.pl3   1  <O>11      -0.2160
  12 S1       -0.7621   -14.0414    -6.1834  S.O2    1  <O>11       0.0780
  13 O2        0.7493   -14.0831    -6.8713  O.2     1  <O>11      -0.1498
  14 O3       -1.8239   -13.2995    -7.2233  O.2     1  <O>11      -0.1498
  15 C8       -1.3095   -15.6933    -5.8611  C.ar    1  <O>11       0.1843
  16 C9       -2.5675   -15.9221    -5.2766  C.ar    1  <O>11       0.1907
  17 F1       -3.3773   -14.8600    -4.9664  F       1  <O>11      -0.2002
  18 C10      -2.9953   -17.2281    -5.0113  C.ar    1  <O>11       0.1983
  19 F2       -4.2225   -17.4388    -4.4389  F       1  <O>11      -0.1993
  20 C11      -2.1757   -18.3136    -5.3280  C.ar    1  <O>11       0.1992
  21 F3       -2.5876   -19.5947    -5.0668  F       1  <O>11      -0.1993
  22 C12      -0.9271   -18.0875    -5.9156  C.ar    1  <O>11       0.1983
  23 F4       -0.1284   -19.1565    -6.2261  F       1  <O>11      -0.1993
  24 C13      -0.4917   -16.7888    -6.1873  C.ar    1  <O>11       0.1907
  25 F5        0.7292   -16.5656    -6.7697  F       1  <O>11      -0.2002
  26 C14       1.0712   -11.5009    -4.6087  C.ar    1  <O>11      -0.0178
  27 H1        2.8015    -8.8851    -6.2815  H       1  <O>11       0.0433
  28 H2        4.3281    -9.6772    -5.8227  H       1  <O>11       0.0433
  29 H3        3.8487    -8.1500    -5.0440  H       1  <O>11       0.0433
  30 H4        5.2680   -10.1500    -2.2830  H       1  <O>11       0.1465
  31 H5        5.2650    -9.3480    -3.8570  H       1  <O>11       0.1465
  32 H6       -0.9571   -13.6504    -3.8882  H       1  <O>11       0.1737
  33 H7        0.8163    -8.1557    -4.7732  H       1  <O>11       0.0636
  34 H8       -1.5332    -8.7242    -5.0442  H       1  <O>11       0.0619
  35 H9       -2.2322   -11.0527    -5.0381  H       1  <O>11       0.0636
  36 H10       1.7733   -12.2490    -4.4975  H       1  <O>11       0.0655
@<TRIPOS>BOND
     1     1     2    1
     2     2     3   am
     3     3     4   am
     4     3     5    2
     5     2     6    1
     6     6     7   ar
     7     7     8   ar
     8     8     9   ar
     9     9    10   ar
    10    10    11    1
    11    11    12    1
    12    12    13    2
    13    12    14    2
    14    12    15    1
    15    15    16   ar
    16    16    17    1
    17    16    18   ar
    18    18    19    1
    19    18    20   ar
    20    20    21    1
    21    20    22   ar
    22    22    23    1
    23    22    24   ar
    24    15    24   ar
    25    24    25    1
    26    10    26   ar
    27     6    26   ar
    28     1    27    1
    29     1    28    1
    30     1    29    1
    31     4    30    1
    32     4    31    1
    33    11    32    1
    34     7    33    1
    35     8    34    1
    36     9    35    1
    37    26    36    1
@<TRIPOS>MOLECULE
mol84_1_6
 36 37 0 0 0
SMALL
USER_CHARGES
****
VDW energy = -320.36
@<TRIPOS>ATOM
   1 C1        3.4850    -9.0906    -5.4577  C.3     1  <O>11       0.0098
   2 N1        2.7955    -9.8278    -4.4362  N.am    1  <O>11      -0.2587
   3 C2        3.4570   -10.2010    -3.2970  C.2     1  <O>11       0.3037
   4 N2        4.7750    -9.8720    -3.1320  N.am    1  <O>11      -0.3129
   5 O1        2.8700   -10.8280    -2.4280  O.2     1  <O>11      -0.2525
   6 C3        1.4620   -10.1610    -4.6040  C.ar    1  <O>11       0.0392
   7 C4        1.0871   -10.9543    -5.6911  C.ar    1  <O>11      -0.0401
   8 C5       -0.2602   -11.2848    -5.8741  C.ar    1  <O>11      -0.0582
   9 C6       -1.2250   -10.8280    -4.9726  C.ar    1  <O>11      -0.0392
  10 C7       -0.8339   -10.0400    -3.8846  C.ar    1  <O>11       0.0498
  11 N3       -1.8322    -9.5727    -2.9563  N.pl3   1  <O>11      -0.2160
  12 S1       -2.5861    -8.1257    -3.2127  S.O2    1  <O>11       0.0780
  13 O2       -3.3816    -8.1659    -4.6705  O.2     1  <O>11      -0.1498
  14 O3       -1.4564    -6.9081    -3.2314  O.2     1  <O>11      -0.1498
  15 C8       -3.7505    -7.8299    -1.9131  C.ar    1  <O>11       0.1843
  16 C9       -4.8105    -8.7270    -1.6932  C.ar    1  <O>11       0.1907
  17 F1       -4.9342    -9.8413    -2.4825  F       1  <O>11      -0.2002
  18 C10      -5.7378    -8.4868    -0.6726  C.ar    1  <O>11       0.1983
  19 F2       -6.7685    -9.3668    -0.4692  F       1  <O>11      -0.1993
  20 C11      -5.6147    -7.3549     0.1361  C.ar    1  <O>11       0.1992
  21 F3       -6.5222    -7.1123     1.1346  F       1  <O>11      -0.1993
  22 C12      -4.5569    -6.4657    -0.0775  C.ar    1  <O>11       0.1983
  23 F4       -4.4401    -5.3581     0.7207  F       1  <O>11      -0.1993
  24 C13      -3.6244    -6.6972    -1.0908  C.ar    1  <O>11       0.1907
  25 F5       -2.5828    -5.8300    -1.2971  F       1  <O>11      -0.2002
  26 C14       0.5076    -9.7064    -3.6928  C.ar    1  <O>11      -0.0178
  27 H1        2.8015    -8.8851    -6.2815  H       1  <O>11       0.0433
  28 H2        4.3281    -9.6772    -5.8227  H       1  <O>11       0.0433
  29 H3        3.8487    -8.1500    -5.0440  H       1  <O>11       0.0433
  30 H4        5.2680   -10.1500    -2.2830  H       1  <O>11       0.1465
  31 H5        5.2650    -9.3480    -3.8570  H       1  <O>11       0.1465
  32 H6       -2.0729   -10.1373    -2.1408  H       1  <O>11       0.1737
  33 H7        1.7998   -11.2947    -6.3554  H       1  <O>11       0.0636
  34 H8       -0.5421   -11.8678    -6.6776  H       1  <O>11       0.0619
  35 H9       -2.2190   -11.0700    -5.1083  H       1  <O>11       0.0636
  36 H10       0.7909    -9.1293    -2.8854  H       1  <O>11       0.0655
@<TRIPOS>BOND
     1     1     2    1
     2     2     3   am
     3     3     4   am
     4     3     5    2
     5     2     6    1
     6     6     7   ar
     7     7     8   ar
     8     8     9   ar
     9     9    10   ar
    10    10    11    1
    11    11    12    1
    12    12    13    2
    13    12    14    2
    14    12    15    1
    15    15    16   ar
    16    16    17    1
    17    16    18   ar
    18    18    19    1
    19    18    20   ar
    20    20    21    1
    21    20    22   ar
    22    22    23    1
    23    22    24   ar
    24    15    24   ar
    25    24    25    1
    26    10    26   ar
    27     6    26   ar
    28     1    27    1
    29     1    28    1
    30     1    29    1
    31     4    30    1
    32     4    31    1
    33    11    32    1
    34     7    33    1
    35     8    34    1
    36     9    35    1
    37    26    36    1
@<TRIPOS>MOLECULE
mol84_1_7
 36 37 0 0 0
SMALL
USER_CHARGES
****
VDW energy = -319.60
@<TRIPOS>ATOM
   1 C1        3.4850    -9.0906    -5.4577  C.3     1  <O>11       0.0098
   2 N1        2.7955    -9.8278    -4.4362  N.am    1  <O>11      -0.2587
   3 C2        3.4570   -10.2010    -3.2970  C.2     1  <O>11       0.3037
   4 N2        4.7750    -9.8720    -3.1320  N.am    1  <O>11      -0.3129
   5 O1        2.8700   -10.8280    -2.4280  O.2     1  <O>11      -0.2525
   6 C3        1.4620   -10.1610    -4.6040  C.ar    1  <O>11       0.0392
   7 C4        0.4754    -9.2802    -4.1540  C.ar    1  <O>11      -0.0401
   8 C5       -0.8741    -9.6158    -4.3090  C.ar    1  <O>11      -0.0582
   9 C6       -1.2337   -10.8227    -4.9142  C.ar    1  <O>11      -0.0392
  10 C7       -0.2347   -11.6918    -5.3662  C.ar    1  <O>11       0.0498
  11 N3       -0.6102   -12.9347    -5.9915  N.pl3   1  <O>11      -0.2160
  12 S1       -0.8106   -14.2937    -5.0744  S.O2    1  <O>11       0.0780
  13 O2       -2.0062   -14.0328    -3.9510  O.2     1  <O>11      -0.1498
  14 O3        0.6125   -14.6517    -4.2962  O.2     1  <O>11      -0.1498
  15 C8       -1.2680   -15.6470    -6.1193  C.ar    1  <O>11       0.1843
  16 C9       -2.4436   -15.5836    -6.8878  C.ar    1  <O>11       0.1907
  17 F1       -3.2317   -14.4628    -6.8351  F       1  <O>11      -0.2002
  18 C10      -2.8109   -16.6586    -7.7053  C.ar    1  <O>11       0.1983
  19 F2       -3.9605   -16.5867    -8.4480  F       1  <O>11      -0.1993
  20 C11      -2.0103   -17.8013    -7.7650  C.ar    1  <O>11       0.1992
  21 F3       -2.3671   -18.8590    -8.5607  F       1  <O>11      -0.1993
  22 C12      -0.8373   -17.8626    -7.0062  C.ar    1  <O>11       0.1983
  23 F4       -0.0547   -18.9854    -7.0706  F       1  <O>11      -0.1993
  24 C13      -0.4598   -16.7946    -6.1896  C.ar    1  <O>11       0.1907
  25 F5        0.6935   -16.8502    -5.4504  F       1  <O>11      -0.2002
  26 C14       1.1140   -11.3653    -5.2175  C.ar    1  <O>11      -0.0178
  27 H1        2.8015    -8.8851    -6.2815  H       1  <O>11       0.0433
  28 H2        4.3281    -9.6772    -5.8227  H       1  <O>11       0.0433
  29 H3        3.8487    -8.1500    -5.0440  H       1  <O>11       0.0433
  30 H4        5.2680   -10.1500    -2.2830  H       1  <O>11       0.1465
  31 H5        5.2650    -9.3480    -3.8570  H       1  <O>11       0.1465
  32 H6       -0.7526   -12.9737    -7.0015  H       1  <O>11       0.1737
  33 H7        0.7404    -8.3872    -3.7099  H       1  <O>11       0.0636
  34 H8       -1.6063    -8.9698    -3.9751  H       1  <O>11       0.0619
  35 H9       -2.2289   -11.0713    -5.0270  H       1  <O>11       0.0636
  36 H10       1.8465   -12.0078    -5.5578  H       1  <O>11       0.0655
@<TRIPOS>BOND
     1     1     2    1
     2     2     3   am
     3     3     4   am
     4     3     5    2
     5     2     6    1
     6     6     7   ar
     7     7     8   ar
     8     8     9   ar
     9     9    10   ar
    10    10    11    1
    11    11    12    1
    12    12    13    2
    13    12    14    2
    14    12    15    1
    15    15    16   ar
    16    16    17    1
    17    16    18   ar
    18    18    19    1
    19    18    20   ar
    20    20    21    1
    21    20    22   ar
    22    22    23    1
    23    22    24   ar
    24    15    24   ar
    25    24    25    1
    26    10    26   ar
    27     6    26   ar
    28     1    27    1
    29     1    28    1
    30     1    29    1
    31     4    30    1
    32     4    31    1
    33    11    32    1
    34     7    33    1
    35     8    34    1
    36     9    35    1
    37    26    36    1
@<TRIPOS>MOLECULE
mol84_1_8
 36 37 0 0 0
SMALL
USER_CHARGES
****
VDW energy = -319.27
@<TRIPOS>ATOM
   1 C1        3.4850    -9.0906    -5.4577  C.3     1  <O>11       0.0098
   2 N1        2.7955    -9.8278    -4.4362  N.am    1  <O>11      -0.2587
   3 C2        3.4570   -10.2010    -3.2970  C.2     1  <O>11       0.3037
   4 N2        4.7750    -9.8720    -3.1320  N.am    1  <O>11      -0.3129
   5 O1        2.8700   -10.8280    -2.4280  O.2     1  <O>11      -0.2525
   6 C3        1.4620   -10.1610    -4.6040  C.ar    1  <O>11       0.0392
   7 C4        0.5186    -9.1438    -4.7682  C.ar    1  <O>11      -0.0401
   8 C5       -0.8323    -9.4724    -4.9259  C.ar    1  <O>11      -0.0582
   9 C6       -1.2356   -10.8101    -4.9237  C.ar    1  <O>11      -0.0392
  10 C7       -0.2787   -11.8185    -4.7651  C.ar    1  <O>11       0.0498
  11 N3       -0.6990   -13.1969    -4.7653  N.pl3   1  <O>11      -0.2160
  12 S1       -1.3337   -13.8671    -6.1350  S.O2    1  <O>11       0.0780
  13 O2       -0.2145   -13.7891    -7.3601  O.2     1  <O>11      -0.1498
  14 O3       -2.6997   -13.0325    -6.5785  O.2     1  <O>11      -0.1498
  15 C8       -1.7511   -15.5586    -5.8240  C.ar    1  <O>11       0.1843
  16 C9       -0.7582   -16.4732    -5.4311  C.ar    1  <O>11       0.1907
  17 F1        0.5363   -16.0483    -5.2775  F       1  <O>11      -0.2002
  18 C10      -1.0866   -17.8134    -5.1963  C.ar    1  <O>11       0.1983
  19 F2       -0.1099   -18.6965    -4.8163  F       1  <O>11      -0.1993
  20 C11      -2.4041   -18.2508    -5.3484  C.ar    1  <O>11       0.1992
  21 F3       -2.7309   -19.5631    -5.1237  F       1  <O>11      -0.1993
  22 C12      -3.3936   -17.3405    -5.7325  C.ar    1  <O>11       0.1983
  23 F4       -4.6848   -17.7751    -5.8779  F       1  <O>11      -0.1993
  24 C13      -3.0776   -16.0006    -5.9665  C.ar    1  <O>11       0.1907
  25 F5       -4.0478   -15.1053    -6.3364  F       1  <O>11      -0.2002
  26 C14       1.0712   -11.5009    -4.6087  C.ar    1  <O>11      -0.0178
  27 H1        2.8015    -8.8851    -6.2815  H       1  <O>11       0.0433
  28 H2        4.3281    -9.6772    -5.8227  H       1  <O>11       0.0433
  29 H3        3.8487    -8.1500    -5.0440  H       1  <O>11       0.0433
  30 H4        5.2680   -10.1500    -2.2830  H       1  <O>11       0.1465
  31 H5        5.2650    -9.3480    -3.8570  H       1  <O>11       0.1465
  32 H6       -0.6035   -13.7582    -3.9183  H       1  <O>11       0.1737
  33 H7        0.8163    -8.1557    -4.7732  H       1  <O>11       0.0636
  34 H8       -1.5332    -8.7242    -5.0442  H       1  <O>11       0.0619
  35 H9       -2.2322   -11.0527    -5.0381  H       1  <O>11       0.0636
  36 H10       1.7733   -12.2490    -4.4975  H       1  <O>11       0.0655
@<TRIPOS>BOND
     1     1     2    1
     2     2     3   am
     3     3     4   am
     4     3     5    2
     5     2     6    1
     6     6     7   ar
     7     7     8   ar
     8     8     9   ar
     9     9    10   ar
    10    10    11    1
    11    11    12    1
    12    12    13    2
    13    12    14    2
    14    12    15    1
    15    15    16   ar
    16    16    17    1
    17    16    18   ar
    18    18    19    1
    19    18    20   ar
    20    20    21    1
    21    20    22   ar
    22    22    23    1
    23    22    24   ar
    24    15    24   ar
    25    24    25    1
    26    10    26   ar
    27     6    26   ar
    28     1    27    1
    29     1    28    1
    30     1    29    1
    31     4    30    1
    32     4    31    1
    33    11    32    1
    34     7    33    1
    35     8    34    1
    36     9    35    1
    37    26    36    1
@<TRIPOS>MOLECULE
mol84_1_9
 36 37 0 0 0
SMALL
USER_CHARGES
****
VDW energy = -316.07
@<TRIPOS>ATOM
   1 C1        3.4850    -9.0906    -5.4577  C.3     1  <O>11       0.0098
   2 N1        2.7955    -9.8278    -4.4362  N.am    1  <O>11      -0.2587
   3 C2        3.4570   -10.2010    -3.2970  C.2     1  <O>11       0.3037
   4 N2        4.7750    -9.8720    -3.1320  N.am    1  <O>11      -0.3129
   5 O1        2.8700   -10.8280    -2.4280  O.2     1  <O>11      -0.2525
   6 C3        1.4620   -10.1610    -4.6040  C.ar    1  <O>11       0.0392
   7 C4        1.0871   -10.9543    -5.6911  C.ar    1  <O>11      -0.0401
   8 C5       -0.2602   -11.2848    -5.8741  C.ar    1  <O>11      -0.0582
   9 C6       -1.2250   -10.8280    -4.9726  C.ar    1  <O>11      -0.0392
  10 C7       -0.8339   -10.0400    -3.8846  C.ar    1  <O>11       0.0498
  11 N3       -1.8322    -9.5727    -2.9563  N.pl3   1  <O>11      -0.2160
  12 S1       -2.5861    -8.1257    -3.2127  S.O2    1  <O>11       0.0780
  13 O2       -3.3816    -8.1659    -4.6705  O.2     1  <O>11      -0.1498
  14 O3       -1.4564    -6.9081    -3.2314  O.2     1  <O>11      -0.1498
  15 C8       -3.7505    -7.8299    -1.9131  C.ar    1  <O>11       0.1843
  16 C9       -4.5226    -6.6550    -1.9067  C.ar    1  <O>11       0.1907
  17 F1       -4.3798    -5.7410    -2.9187  F       1  <O>11      -0.2002
  18 C10      -5.4351    -6.4161    -0.8726  C.ar    1  <O>11       0.1983
  19 F2       -6.1804    -5.2660    -0.8754  F       1  <O>11      -0.1993
  20 C11      -5.5866    -7.3451     0.1591  C.ar    1  <O>11       0.1992
  21 F3       -6.4759    -7.1146     1.1766  F       1  <O>11      -0.1993
  22 C12      -4.8241    -8.5172     0.1500  C.ar    1  <O>11       0.1983
  23 F4       -4.9788    -9.4259     1.1636  F       1  <O>11      -0.1993
  24 C13      -3.9129    -8.7670    -0.8783  C.ar    1  <O>11       0.1907
  25 F5       -3.1696    -9.9188    -0.8925  F       1  <O>11      -0.2002
  26 C14       0.5076    -9.7064    -3.6928  C.ar    1  <O>11      -0.0178
  27 H1        2.8015    -8.8851    -6.2815  H       1  <O>11       0.0433
  28 H2        4.3281    -9.6772    -5.8227  H       1  <O>11       0.0433
  29 H3        3.8487    -8.1500    -5.0440  H       1  <O>11       0.0433
  30 H4        5.2680   -10.1500    -2.2830  H       1  <O>11       0.1465
  31 H5        5.2650    -9.3480    -3.8570  H       1  <O>11       0.1465
  32 H6       -2.0729   -10.1373    -2.1408  H       1  <O>11       0.1737
  33 H7        1.7998   -11.2947    -6.3554  H       1  <O>11       0.0636
  34 H8       -0.5421   -11.8678    -6.6776  H       1  <O>11       0.0619
  35 H9       -2.2190   -11.0700    -5.1083  H       1  <O>11       0.0636
  36 H10       0.7909    -9.1293    -2.8854  H       1  <O>11       0.0655
@<TRIPOS>BOND
     1     1     2    1
     2     2     3   am
     3     3     4   am
     4     3     5    2
     5     2     6    1
     6     6     7   ar
     7     7     8   ar
     8     8     9   ar
     9     9    10   ar
    10    10    11    1
    11    11    12    1
    12    12    13    2
    13    12    14    2
    14    12    15    1
    15    15    16   ar
    16    16    17    1
    17    16    18   ar
    18    18    19    1
    19    18    20   ar
    20    20    21    1
    21    20    22   ar
    22    22    23    1
    23    22    24   ar
    24    15    24   ar
    25    24    25    1
    26    10    26   ar
    27     6    26   ar
    28     1    27    1
    29     1    28    1
    30     1    29    1
    31     4    30    1
    32     4    31    1
    33    11    32    1
    34     7    33    1
    35     8    34    1
    36     9    35    1
    37    26    36    1
@<TRIPOS>MOLECULE
mol84_1_10
 36 37 0 0 0
SMALL
USER_CHARGES
****
VDW energy = -316.03
@<TRIPOS>ATOM
   1 C1        3.4850    -9.0906    -5.4577  C.3     1  <O>11       0.0098
   2 N1        2.7955    -9.8278    -4.4362  N.am    1  <O>11      -0.2587
   3 C2        3.4570   -10.2010    -3.2970  C.2     1  <O>11       0.3037
   4 N2        4.7750    -9.8720    -3.1320  N.am    1  <O>11      -0.3129
   5 O1        2.8700   -10.8280    -2.4280  O.2     1  <O>11      -0.2525
   6 C3        1.4620   -10.1610    -4.6040  C.ar    1  <O>11       0.0392
   7 C4        1.0871   -10.9543    -5.6911  C.ar    1  <O>11      -0.0401
   8 C5       -0.2602   -11.2848    -5.8741  C.ar    1  <O>11      -0.0582
   9 C6       -1.2250   -10.8280    -4.9726  C.ar    1  <O>11      -0.0392
  10 C7       -0.8339   -10.0400    -3.8846  C.ar    1  <O>11       0.0498
  11 N3       -1.8322    -9.5727    -2.9563  N.pl3   1  <O>11      -0.2160
  12 S1       -2.2234   -10.4838    -1.6354  S.O2    1  <O>11       0.0780
  13 O2       -0.8724   -10.7036    -0.6941  O.2     1  <O>11      -0.1498
  14 O3       -2.7991   -11.9607    -2.1318  O.2     1  <O>11      -0.1498
  15 C8       -3.4694    -9.6513    -0.6939  C.ar    1  <O>11       0.1843
  16 C9       -3.2202    -8.3747    -0.1600  C.ar    1  <O>11       0.1907
  17 F1       -2.0101    -7.7690    -0.3808  F       1  <O>11      -0.2002
  18 C10      -4.2017    -7.7214     0.5942  C.ar    1  <O>11       0.1983
  19 F2       -3.9465    -6.4784     1.1118  F       1  <O>11      -0.1993
  20 C11      -5.4370    -8.3327     0.8195  C.ar    1  <O>11       0.1992
  21 F3       -6.4007    -7.6994     1.5608  F       1  <O>11      -0.1993
  22 C12      -5.6883    -9.5994     0.2833  C.ar    1  <O>11       0.1983
  23 F4       -6.9029   -10.1931     0.5059  F       1  <O>11      -0.1993
  24 C13      -4.7173   -10.2589    -0.4732  C.ar    1  <O>11       0.1907
  25 F5       -4.9646   -11.4979    -1.0054  F       1  <O>11      -0.2002
  26 C14       0.5076    -9.7064    -3.6928  C.ar    1  <O>11      -0.0178
  27 H1        2.8015    -8.8851    -6.2815  H       1  <O>11       0.0433
  28 H2        4.3281    -9.6772    -5.8227  H       1  <O>11       0.0433
  29 H3        3.8487    -8.1500    -5.0440  H       1  <O>11       0.0433
  30 H4        5.2680   -10.1500    -2.2830  H       1  <O>11       0.1465
  31 H5        5.2650    -9.3480    -3.8570  H       1  <O>11       0.1465
  32 H6       -2.2967    -8.6780    -3.1162  H       1  <O>11       0.1737
  33 H7        1.7998   -11.2947    -6.3554  H       1  <O>11       0.0636
  34 H8       -0.5421   -11.8678    -6.6776  H       1  <O>11       0.0619
  35 H9       -2.2190   -11.0700    -5.1083  H       1  <O>11       0.0636
  36 H10       0.7909    -9.1293    -2.8854  H       1  <O>11       0.0655
@<TRIPOS>BOND
     1     1     2    1
     2     2     3   am
     3     3     4   am
     4     3     5    2
     5     2     6    1
     6     6     7   ar
     7     7     8   ar
     8     8     9   ar
     9     9    10   ar
    10    10    11    1
    11    11    12    1
    12    12    13    2
    13    12    14    2
    14    12    15    1
    15    15    16   ar
    16    16    17    1
    17    16    18   ar
    18    18    19    1
    19    18    20   ar
    20    20    21    1
    21    20    22   ar
    22    22    23    1
    23    22    24   ar
    24    15    24   ar
    25    24    25    1
    26    10    26   ar
    27     6    26   ar
    28     1    27    1
    29     1    28    1
    30     1    29    1
    31     4    30    1
    32     4    31    1
    33    11    32    1
    34     7    33    1
    35     8    34    1
    36     9    35    1
    37    26    36    1
@<TRIPOS>MOLECULE
mol84_1_11
 36 37 0 0 0
SMALL
USER_CHARGES
****
VDW energy = -315.99
@<TRIPOS>ATOM
   1 C1        3.4850    -9.0906    -5.4577  C.3     1  <O>11       0.0098
   2 N1        2.7955    -9.8278    -4.4362  N.am    1  <O>11      -0.2587
   3 C2        3.4570   -10.2010    -3.2970  C.2     1  <O>11       0.3037
   4 N2        4.7750    -9.8720    -3.1320  N.am    1  <O>11      -0.3129
   5 O1        2.8700   -10.8280    -2.4280  O.2     1  <O>11      -0.2525
   6 C3        1.4620   -10.1610    -4.6040  C.ar    1  <O>11       0.0392
   7 C4        0.5186    -9.1438    -4.7682  C.ar    1  <O>11      -0.0401
   8 C5       -0.8323    -9.4724    -4.9259  C.ar    1  <O>11      -0.0582
   9 C6       -1.2356   -10.8101    -4.9237  C.ar    1  <O>11      -0.0392
  10 C7       -0.2787   -11.8185    -4.7651  C.ar    1  <O>11       0.0498
  11 N3       -0.6990   -13.1969    -4.7653  N.pl3   1  <O>11      -0.2160
  12 S1       -1.1180   -13.9333    -3.3475  S.O2    1  <O>11       0.0780
  13 O2       -2.3956   -13.1247    -2.6595  O.2     1  <O>11      -0.1498
  14 O3        0.1770   -13.9104    -2.3075  O.2     1  <O>11      -0.1498
  15 C8       -1.5855   -15.6094    -3.6703  C.ar    1  <O>11       0.1843
  16 C9       -2.6634   -15.8924    -4.5275  C.ar    1  <O>11       0.1907
  17 F1       -3.3467   -14.8642    -5.1241  F       1  <O>11      -0.2002
  18 C10      -3.0401   -17.2177    -4.7735  C.ar    1  <O>11       0.1983
  19 F2       -4.0942   -17.4814    -5.6088  F       1  <O>11      -0.1993
  20 C11      -2.3457   -18.2688    -4.1707  C.ar    1  <O>11       0.1992
  21 F3       -2.7127   -19.5687    -4.4047  F       1  <O>11      -0.1993
  22 C12      -1.2692   -17.9887    -3.3233  C.ar    1  <O>11       0.1983
  23 F4       -0.5904   -19.0241    -2.7366  F       1  <O>11      -0.1993
  24 C13      -0.8830   -16.6702    -3.0733  C.ar    1  <O>11       0.1907
  25 F5        0.1765   -16.3941    -2.2483  F       1  <O>11      -0.2002
  26 C14       1.0712   -11.5009    -4.6087  C.ar    1  <O>11      -0.0178
  27 H1        2.8015    -8.8851    -6.2815  H       1  <O>11       0.0433
  28 H2        4.3281    -9.6772    -5.8227  H       1  <O>11       0.0433
  29 H3        3.8487    -8.1500    -5.0440  H       1  <O>11       0.0433
  30 H4        5.2680   -10.1500    -2.2830  H       1  <O>11       0.1465
  31 H5        5.2650    -9.3480    -3.8570  H       1  <O>11       0.1465
  32 H6       -0.7378   -13.7171    -5.6427  H       1  <O>11       0.1737
  33 H7        0.8163    -8.1557    -4.7732  H       1  <O>11       0.0636
  34 H8       -1.5332    -8.7242    -5.0442  H       1  <O>11       0.0619
  35 H9       -2.2322   -11.0527    -5.0381  H       1  <O>11       0.0636
  36 H10       1.7733   -12.2490    -4.4975  H       1  <O>11       0.0655
@<TRIPOS>BOND
     1     1     2    1
     2     2     3   am
     3     3     4   am
     4     3     5    2
     5     2     6    1
     6     6     7   ar
     7     7     8   ar
     8     8     9   ar
     9     9    10   ar
    10    10    11    1
    11    11    12    1
    12    12    13    2
    13    12    14    2
    14    12    15    1
    15    15    16   ar
    16    16    17    1
    17    16    18   ar
    18    18    19    1
    19    18    20   ar
    20    20    21    1
    21    20    22   ar
    22    22    23    1
    23    22    24   ar
    24    15    24   ar
    25    24    25    1
    26    10    26   ar
    27     6    26   ar
    28     1    27    1
    29     1    28    1
    30     1    29    1
    31     4    30    1
    32     4    31    1
    33    11    32    1
    34     7    33    1
    35     8    34    1
    36     9    35    1
    37    26    36    1
@<TRIPOS>MOLECULE
mol84_1_12
 36 37 0 0 0
SMALL
USER_CHARGES
****
VDW energy = -315.93
@<TRIPOS>ATOM
   1 C1        3.4850    -9.0906    -5.4577  C.3     1  <O>11       0.0098
   2 N1        2.7955    -9.8278    -4.4362  N.am    1  <O>11      -0.2587
   3 C2        3.4570   -10.2010    -3.2970  C.2     1  <O>11       0.3037
   4 N2        4.7750    -9.8720    -3.1320  N.am    1  <O>11      -0.3129
   5 O1        2.8700   -10.8280    -2.4280  O.2     1  <O>11      -0.2525
   6 C3        1.4620   -10.1610    -4.6040  C.ar    1  <O>11       0.0392
   7 C4        1.0871   -10.9543    -5.6911  C.ar    1  <O>11      -0.0401
   8 C5       -0.2602   -11.2848    -5.8741  C.ar    1  <O>11      -0.0582
   9 C6       -1.2250   -10.8280    -4.9726  C.ar    1  <O>11      -0.0392
  10 C7       -0.8339   -10.0400    -3.8846  C.ar    1  <O>11       0.0498
  11 N3       -1.8322    -9.5727    -2.9563  N.pl3   1  <O>11      -0.2160
  12 S1       -2.2234   -10.4838    -1.6354  S.O2    1  <O>11       0.0780
  13 O2       -0.8724   -10.7036    -0.6941  O.2     1  <O>11      -0.1498
  14 O3       -2.7991   -11.9607    -2.1318  O.2     1  <O>11      -0.1498
  15 C8       -3.4694    -9.6513    -0.6939  C.ar    1  <O>11       0.1843
  16 C9       -4.7135    -9.3490    -1.2748  C.ar    1  <O>11       0.1907
  17 F1       -4.9648    -9.7120    -2.5729  F       1  <O>11      -0.2002
  18 C10      -5.6945    -8.6804    -0.5335  C.ar    1  <O>11       0.1983
  19 F2       -6.9026    -8.3886    -1.1112  F       1  <O>11      -0.1993
  20 C11      -5.4449    -8.3110     0.7899  C.ar    1  <O>11       0.1992
  21 F3       -6.4004    -7.6523     1.5196  F       1  <O>11      -0.1993
  22 C12      -4.2103    -8.6171     1.3708  C.ar    1  <O>11       0.1983
  23 F4       -3.9720    -8.2542     2.6703  F       1  <O>11      -0.1993
  24 C13      -3.2255    -9.2866     0.6413  C.ar    1  <O>11       0.1907
  25 F5       -2.0172    -9.5937     1.2115  F       1  <O>11      -0.2002
  26 C14       0.5076    -9.7064    -3.6928  C.ar    1  <O>11      -0.0178
  27 H1        2.8015    -8.8851    -6.2815  H       1  <O>11       0.0433
  28 H2        4.3281    -9.6772    -5.8227  H       1  <O>11       0.0433
  29 H3        3.8487    -8.1500    -5.0440  H       1  <O>11       0.0433
  30 H4        5.2680   -10.1500    -2.2830  H       1  <O>11       0.1465
  31 H5        5.2650    -9.3480    -3.8570  H       1  <O>11       0.1465
  32 H6       -2.2967    -8.6780    -3.1162  H       1  <O>11       0.1737
  33 H7        1.7998   -11.2947    -6.3554  H       1  <O>11       0.0636
  34 H8       -0.5421   -11.8678    -6.6776  H       1  <O>11       0.0619
  35 H9       -2.2190   -11.0700    -5.1083  H       1  <O>11       0.0636
  36 H10       0.7909    -9.1293    -2.8854  H       1  <O>11       0.0655
@<TRIPOS>BOND
     1     1     2    1
     2     2     3   am
     3     3     4   am
     4     3     5    2
     5     2     6    1
     6     6     7   ar
     7     7     8   ar
     8     8     9   ar
     9     9    10   ar
    10    10    11    1
    11    11    12    1
    12    12    13    2
    13    12    14    2
    14    12    15    1
    15    15    16   ar
    16    16    17    1
    17    16    18   ar
    18    18    19    1
    19    18    20   ar
    20    20    21    1
    21    20    22   ar
    22    22    23    1
    23    22    24   ar
    24    15    24   ar
    25    24    25    1
    26    10    26   ar
    27     6    26   ar
    28     1    27    1
    29     1    28    1
    30     1    29    1
    31     4    30    1
    32     4    31    1
    33    11    32    1
    34     7    33    1
    35     8    34    1
    36     9    35    1
    37    26    36    1
@<TRIPOS>MOLECULE
mol84_1_13
 36 37 0 0 0
SMALL
USER_CHARGES
****
VDW energy = -315.73
@<TRIPOS>ATOM
   1 C1        3.4850    -9.0906    -5.4577  C.3     1  <O>11       0.0098
   2 N1        2.7955    -9.8278    -4.4362  N.am    1  <O>11      -0.2587
   3 C2        3.4570   -10.2010    -3.2970  C.2     1  <O>11       0.3037
   4 N2        4.7750    -9.8720    -3.1320  N.am    1  <O>11      -0.3129
   5 O1        2.8700   -10.8280    -2.4280  O.2     1  <O>11      -0.2525
   6 C3        1.4620   -10.1610    -4.6040  C.ar    1  <O>11       0.0392
   7 C4        0.4754    -9.2802    -4.1540  C.ar    1  <O>11      -0.0401
   8 C5       -0.8741    -9.6158    -4.3090  C.ar    1  <O>11      -0.0582
   9 C6       -1.2337   -10.8227    -4.9142  C.ar    1  <O>11      -0.0392
  10 C7       -0.2347   -11.6918    -5.3662  C.ar    1  <O>11       0.0498
  11 N3       -0.6102   -12.9347    -5.9915  N.pl3   1  <O>11      -0.2160
  12 S1       -0.8106   -14.2937    -5.0744  S.O2    1  <O>11       0.0780
  13 O2       -2.0062   -14.0328    -3.9510  O.2     1  <O>11      -0.1498
  14 O3        0.6125   -14.6517    -4.2962  O.2     1  <O>11      -0.1498
  15 C8       -1.2680   -15.6470    -6.1193  C.ar    1  <O>11       0.1843
  16 C9       -1.4964   -16.9209    -5.5703  C.ar    1  <O>11       0.1907
  17 F1       -1.3753   -17.1111    -4.2178  F       1  <O>11      -0.2002
  18 C10      -1.8469   -17.9935    -6.3984  C.ar    1  <O>11       0.1983
  19 F2       -2.0646   -19.2315    -5.8523  F       1  <O>11      -0.1993
  20 C11      -1.9746   -17.8047    -7.7762  C.ar    1  <O>11       0.1992
  21 F3       -2.3137   -18.8524    -8.5926  F       1  <O>11      -0.1993
  22 C12      -1.7542   -16.5365    -8.3224  C.ar    1  <O>11       0.1983
  23 F4       -1.8831   -16.3569    -9.6746  F       1  <O>11      -0.1993
  24 C13      -1.4070   -15.4587    -7.5051  C.ar    1  <O>11       0.1907
  25 F5       -1.1974   -14.2131    -8.0381  F       1  <O>11      -0.2002
  26 C14       1.1140   -11.3653    -5.2175  C.ar    1  <O>11      -0.0178
  27 H1        2.8015    -8.8851    -6.2815  H       1  <O>11       0.0433
  28 H2        4.3281    -9.6772    -5.8227  H       1  <O>11       0.0433
  29 H3        3.8487    -8.1500    -5.0440  H       1  <O>11       0.0433
  30 H4        5.2680   -10.1500    -2.2830  H       1  <O>11       0.1465
  31 H5        5.2650    -9.3480    -3.8570  H       1  <O>11       0.1465
  32 H6       -0.7526   -12.9737    -7.0015  H       1  <O>11       0.1737
  33 H7        0.7404    -8.3872    -3.7099  H       1  <O>11       0.0636
  34 H8       -1.6063    -8.9698    -3.9751  H       1  <O>11       0.0619
  35 H9       -2.2289   -11.0713    -5.0270  H       1  <O>11       0.0636
  36 H10       1.8465   -12.0078    -5.5578  H       1  <O>11       0.0655
@<TRIPOS>BOND
     1     1     2    1
     2     2     3   am
     3     3     4   am
     4     3     5    2
     5     2     6    1
     6     6     7   ar
     7     7     8   ar
     8     8     9   ar
     9     9    10   ar
    10    10    11    1
    11    11    12    1
    12    12    13    2
    13    12    14    2
    14    12    15    1
    15    15    16   ar
    16    16    17    1
    17    16    18   ar
    18    18    19    1
    19    18    20   ar
    20    20    21    1
    21    20    22   ar
    22    22    23    1
    23    22    24   ar
    24    15    24   ar
    25    24    25    1
    26    10    26   ar
    27     6    26   ar
    28     1    27    1
    29     1    28    1
    30     1    29    1
    31     4    30    1
    32     4    31    1
    33    11    32    1
    34     7    33    1
    35     8    34    1
    36     9    35    1
    37    26    36    1
@<TRIPOS>MOLECULE
mol84_1_14
 36 37 0 0 0
SMALL
USER_CHARGES
****
VDW energy = -315.71
@<TRIPOS>ATOM
   1 C1        3.4850    -9.0906    -5.4577  C.3     1  <O>11       0.0098
   2 N1        2.7955    -9.8278    -4.4362  N.am    1  <O>11      -0.2587
   3 C2        3.4570   -10.2010    -3.2970  C.2     1  <O>11       0.3037
   4 N2        4.7750    -9.8720    -3.1320  N.am    1  <O>11      -0.3129
   5 O1        2.8700   -10.8280    -2.4280  O.2     1  <O>11      -0.2525
   6 C3        1.4620   -10.1610    -4.6040  C.ar    1  <O>11       0.0392
   7 C4        1.1318   -11.3708    -5.2197  C.ar    1  <O>11      -0.0401
   8 C5       -0.2135   -11.7086    -5.4038  C.ar    1  <O>11      -0.0582
   9 C6       -1.2214   -10.8434    -4.9707  C.ar    1  <O>11      -0.0392
  10 C7       -0.8758    -9.6382    -4.3494  C.ar    1  <O>11       0.0498
  11 N3       -1.9188    -8.7498    -3.9027  N.pl3   1  <O>11      -0.2160
  12 S1       -2.5278    -8.8932    -2.3741  S.O2    1  <O>11       0.0780
  13 O2       -1.3087    -8.6682    -1.2684  O.2     1  <O>11      -0.1498
  14 O3       -3.1814   -10.4076    -2.1779  O.2     1  <O>11      -0.1498
  15 C8       -3.7841    -7.6719    -2.1239  C.ar    1  <O>11       0.1843
  16 C9       -4.4583    -7.5900    -0.8929  C.ar    1  <O>11       0.1907
  17 F1       -4.1316    -8.4535     0.1209  F       1  <O>11      -0.2002
  18 C10      -5.4596    -6.6315    -0.6993  C.ar    1  <O>11       0.1983
  19 F2       -6.1119    -6.5628     0.5041  F       1  <O>11      -0.1993
  20 C11      -5.7942    -5.7477    -1.7275  C.ar    1  <O>11       0.1992
  21 F3       -6.7769    -4.8095    -1.5450  F       1  <O>11      -0.1993
  22 C12      -5.1196    -5.8238    -2.9499  C.ar    1  <O>11       0.1983
  23 F4       -5.4507    -4.9526    -3.9542  F       1  <O>11      -0.1993
  24 C13      -4.1168    -6.7743    -3.1529  C.ar    1  <O>11       0.1907
  25 F5       -3.4496    -6.8457    -4.3484  F       1  <O>11      -0.2002
  26 C14       0.4631    -9.2932    -4.1599  C.ar    1  <O>11      -0.0178
  27 H1        2.8015    -8.8851    -6.2815  H       1  <O>11       0.0433
  28 H2        4.3281    -9.6772    -5.8227  H       1  <O>11       0.0433
  29 H3        3.8487    -8.1500    -5.0440  H       1  <O>11       0.0433
  30 H4        5.2680   -10.1500    -2.2830  H       1  <O>11       0.1465
  31 H5        5.2650    -9.3480    -3.8570  H       1  <O>11       0.1465
  32 H6       -2.2800    -8.0320    -4.5319  H       1  <O>11       0.1737
  33 H7        1.8759   -12.0117    -5.5368  H       1  <O>11       0.0636
  34 H8       -0.4620   -12.5997    -5.8611  H       1  <O>11       0.0619
  35 H9       -2.2137   -11.0914    -5.1080  H       1  <O>11       0.0636
  36 H10       0.7121    -8.4055    -3.6962  H       1  <O>11       0.0655
@<TRIPOS>BOND
     1     1     2    1
     2     2     3   am
     3     3     4   am
     4     3     5    2
     5     2     6    1
     6     6     7   ar
     7     7     8   ar
     8     8     9   ar
     9     9    10   ar
    10    10    11    1
    11    11    12    1
    12    12    13    2
    13    12    14    2
    14    12    15    1
    15    15    16   ar
    16    16    17    1
    17    16    18   ar
    18    18    19    1
    19    18    20   ar
    20    20    21    1
    21    20    22   ar
    22    22    23    1
    23    22    24   ar
    24    15    24   ar
    25    24    25    1
    26    10    26   ar
    27     6    26   ar
    28     1    27    1
    29     1    28    1
    30     1    29    1
    31     4    30    1
    32     4    31    1
    33    11    32    1
    34     7    33    1
    35     8    34    1
    36     9    35    1
    37    26    36    1
@<TRIPOS>MOLECULE
mol84_1_15
 36 37 0 0 0
SMALL
USER_CHARGES
****
VDW energy = -315.33
@<TRIPOS>ATOM
   1 C1        3.4850    -9.0906    -5.4577  C.3     1  <O>11       0.0098
   2 N1        2.7955    -9.8278    -4.4362  N.am    1  <O>11      -0.2587
   3 C2        3.4570   -10.2010    -3.2970  C.2     1  <O>11       0.3037
   4 N2        4.7750    -9.8720    -3.1320  N.am    1  <O>11      -0.3129
   5 O1        2.8700   -10.8280    -2.4280  O.2     1  <O>11      -0.2525
   6 C3        1.4620   -10.1610    -4.6040  C.ar    1  <O>11       0.0392
   7 C4        0.4754    -9.2802    -4.1540  C.ar    1  <O>11      -0.0401
   8 C5       -0.8741    -9.6158    -4.3090  C.ar    1  <O>11      -0.0582
   9 C6       -1.2337   -10.8227    -4.9142  C.ar    1  <O>11      -0.0392
  10 C7       -0.2347   -11.6918    -5.3662  C.ar    1  <O>11       0.0498
  11 N3       -0.6102   -12.9347    -5.9915  N.pl3   1  <O>11      -0.2160
  12 S1        0.5550   -13.9732    -6.5316  S.O2    1  <O>11       0.0780
  13 O2        1.5154   -14.4390    -5.2588  O.2     1  <O>11      -0.1498
  14 O3        1.4855   -13.2136    -7.6789  O.2     1  <O>11      -0.1498
  15 C8       -0.2124   -15.3998    -7.2447  C.ar    1  <O>11       0.1843
  16 C9        0.4343   -16.6475    -7.2042  C.ar    1  <O>11       0.1907
  17 F1        1.6595   -16.7599    -6.5990  F       1  <O>11      -0.2002
  18 C10      -0.1677   -17.7731    -7.7783  C.ar    1  <O>11       0.1983
  19 F2        0.4733   -18.9837    -7.7352  F       1  <O>11      -0.1993
  20 C11      -1.4168   -17.6648    -8.3934  C.ar    1  <O>11       0.1992
  21 F3       -2.0095   -18.7629    -8.9609  F       1  <O>11      -0.1993
  22 C12      -2.0639   -16.4257    -8.4282  C.ar    1  <O>11       0.1983
  23 F4       -3.2902   -16.3260    -9.0311  F       1  <O>11      -0.1993
  24 C13      -1.4737   -15.2968    -7.8559  C.ar    1  <O>11       0.1907
  25 F5       -2.1098   -14.0827    -7.8830  F       1  <O>11      -0.2002
  26 C14       1.1140   -11.3653    -5.2175  C.ar    1  <O>11      -0.0178
  27 H1        2.8015    -8.8851    -6.2815  H       1  <O>11       0.0433
  28 H2        4.3281    -9.6772    -5.8227  H       1  <O>11       0.0433
  29 H3        3.8487    -8.1500    -5.0440  H       1  <O>11       0.0433
  30 H4        5.2680   -10.1500    -2.2830  H       1  <O>11       0.1465
  31 H5        5.2650    -9.3480    -3.8570  H       1  <O>11       0.1465
  32 H6       -1.5970   -13.1723    -6.0997  H       1  <O>11       0.1737
  33 H7        0.7404    -8.3872    -3.7099  H       1  <O>11       0.0636
  34 H8       -1.6063    -8.9698    -3.9751  H       1  <O>11       0.0619
  35 H9       -2.2289   -11.0713    -5.0270  H       1  <O>11       0.0636
  36 H10       1.8465   -12.0078    -5.5578  H       1  <O>11       0.0655
@<TRIPOS>BOND
     1     1     2    1
     2     2     3   am
     3     3     4   am
     4     3     5    2
     5     2     6    1
     6     6     7   ar
     7     7     8   ar
     8     8     9   ar
     9     9    10   ar
    10    10    11    1
    11    11    12    1
    12    12    13    2
    13    12    14    2
    14    12    15    1
    15    15    16   ar
    16    16    17    1
    17    16    18   ar
    18    18    19    1
    19    18    20   ar
    20    20    21    1
    21    20    22   ar
    22    22    23    1
    23    22    24   ar
    24    15    24   ar
    25    24    25    1
    26    10    26   ar
    27     6    26   ar
    28     1    27    1
    29     1    28    1
    30     1    29    1
    31     4    30    1
    32     4    31    1
    33    11    32    1
    34     7    33    1
    35     8    34    1
    36     9    35    1
    37    26    36    1
@<TRIPOS>MOLECULE
mol84_1_16
 36 37 0 0 0
SMALL
USER_CHARGES
****
VDW energy = -315.02
@<TRIPOS>ATOM
   1 C1        3.4850    -9.0906    -5.4577  C.3     1  <O>11       0.0098
   2 N1        2.7955    -9.8278    -4.4362  N.am    1  <O>11      -0.2587
   3 C2        3.4570   -10.2010    -3.2970  C.2     1  <O>11       0.3037
   4 N2        4.7750    -9.8720    -3.1320  N.am    1  <O>11      -0.3129
   5 O1        2.8700   -10.8280    -2.4280  O.2     1  <O>11      -0.2525
   6 C3        1.4620   -10.1610    -4.6040  C.ar    1  <O>11       0.0392
   7 C4        1.0871   -10.9543    -5.6911  C.ar    1  <O>11      -0.0401
   8 C5       -0.2602   -11.2848    -5.8741  C.ar    1  <O>11      -0.0582
   9 C6       -1.2250   -10.8280    -4.9726  C.ar    1  <O>11      -0.0392
  10 C7       -0.8339   -10.0400    -3.8846  C.ar    1  <O>11       0.0498
  11 N3       -1.8322    -9.5727    -2.9563  N.pl3   1  <O>11      -0.2160
  12 S1       -2.9863    -8.5011    -3.4542  S.O2    1  <O>11       0.0780
  13 O2       -3.8707    -9.1733    -4.6893  O.2     1  <O>11      -0.1498
  14 O3       -2.2555    -7.1089    -3.9898  O.2     1  <O>11      -0.1498
  15 C8       -4.0596    -8.1202    -2.0995  C.ar    1  <O>11       0.1843
  16 C9       -5.1293    -7.2243    -2.2725  C.ar    1  <O>11       0.1907
  17 F1       -5.3472    -6.6533    -3.4999  F       1  <O>11      -0.2002
  18 C10      -5.9710    -6.9145    -1.1981  C.ar    1  <O>11       0.1983
  19 F2       -7.0089    -6.0378    -1.3779  F       1  <O>11      -0.1993
  20 C11      -5.7553    -7.4955     0.0534  C.ar    1  <O>11       0.1992
  21 F3       -6.5739    -7.1928     1.1105  F       1  <O>11      -0.1993
  22 C12      -4.6958    -8.3919     0.2249  C.ar    1  <O>11       0.1983
  23 F4       -4.4905    -8.9605     1.4544  F       1  <O>11      -0.1993
  24 C13      -3.8517    -8.7104    -0.8410  C.ar    1  <O>11       0.1907
  25 F5       -2.8168    -9.5943    -0.6764  F       1  <O>11      -0.2002
  26 C14       0.5076    -9.7064    -3.6928  C.ar    1  <O>11      -0.0178
  27 H1        2.8015    -8.8851    -6.2815  H       1  <O>11       0.0433
  28 H2        4.3281    -9.6772    -5.8227  H       1  <O>11       0.0433
  29 H3        3.8487    -8.1500    -5.0440  H       1  <O>11       0.0433
  30 H4        5.2680   -10.1500    -2.2830  H       1  <O>11       0.1465
  31 H5        5.2650    -9.3480    -3.8570  H       1  <O>11       0.1465
  32 H6       -1.8253    -9.9051    -1.9913  H       1  <O>11       0.1737
  33 H7        1.7998   -11.2947    -6.3554  H       1  <O>11       0.0636
  34 H8       -0.5421   -11.8678    -6.6776  H       1  <O>11       0.0619
  35 H9       -2.2190   -11.0700    -5.1083  H       1  <O>11       0.0636
  36 H10       0.7909    -9.1293    -2.8854  H       1  <O>11       0.0655
@<TRIPOS>BOND
     1     1     2    1
     2     2     3   am
     3     3     4   am
     4     3     5    2
     5     2     6    1
     6     6     7   ar
     7     7     8   ar
     8     8     9   ar
     9     9    10   ar
    10    10    11    1
    11    11    12    1
    12    12    13    2
    13    12    14    2
    14    12    15    1
    15    15    16   ar
    16    16    17    1
    17    16    18   ar
    18    18    19    1
    19    18    20   ar
    20    20    21    1
    21    20    22   ar
    22    22    23    1
    23    22    24   ar
    24    15    24   ar
    25    24    25    1
    26    10    26   ar
    27     6    26   ar
    28     1    27    1
    29     1    28    1
    30     1    29    1
    31     4    30    1
    32     4    31    1
    33    11    32    1
    34     7    33    1
    35     8    34    1
    36     9    35    1
    37    26    36    1
@<TRIPOS>MOLECULE
mol84_1_17
 36 37 0 0 0
SMALL
USER_CHARGES
****
VDW energy = -314.64
@<TRIPOS>ATOM
   1 C1        3.4850    -9.0906    -5.4577  C.3     1  <O>11       0.0098
   2 N1        2.7955    -9.8278    -4.4362  N.am    1  <O>11      -0.2587
   3 C2        3.4570   -10.2010    -3.2970  C.2     1  <O>11       0.3037
   4 N2        4.7750    -9.8720    -3.1320  N.am    1  <O>11      -0.3129
   5 O1        2.8700   -10.8280    -2.4280  O.2     1  <O>11      -0.2525
   6 C3        1.4620   -10.1610    -4.6040  C.ar    1  <O>11       0.0392
   7 C4        0.4754    -9.2802    -4.1540  C.ar    1  <O>11      -0.0401
   8 C5       -0.8741    -9.6158    -4.3090  C.ar    1  <O>11      -0.0582
   9 C6       -1.2337   -10.8227    -4.9142  C.ar    1  <O>11      -0.0392
  10 C7       -0.2347   -11.6918    -5.3662  C.ar    1  <O>11       0.0498
  11 N3       -0.6102   -12.9347    -5.9915  N.pl3   1  <O>11      -0.2160
  12 S1        0.5550   -13.9732    -6.5316  S.O2    1  <O>11       0.0780
  13 O2        1.5154   -14.4390    -5.2588  O.2     1  <O>11      -0.1498
  14 O3        1.4855   -13.2136    -7.6789  O.2     1  <O>11      -0.1498
  15 C8       -0.2124   -15.3998    -7.2447  C.ar    1  <O>11       0.1843
  16 C9       -1.0550   -16.2143    -6.4681  C.ar    1  <O>11       0.1907
  17 F1       -1.2913   -15.8939    -5.1560  F       1  <O>11      -0.2002
  18 C10      -1.6526   -17.3488    -7.0291  C.ar    1  <O>11       0.1983
  19 F2       -2.4700   -18.1369    -6.2617  F       1  <O>11      -0.1993
  20 C11      -1.4176   -17.6781    -8.3658  C.ar    1  <O>11       0.1992
  21 F3       -1.9969   -18.7903    -8.9196  F       1  <O>11      -0.1993
  22 C12      -0.5851   -16.8649    -9.1409  C.ar    1  <O>11       0.1983
  23 F4       -0.3601   -17.1918   -10.4523  F       1  <O>11      -0.1993
  24 C13       0.0139   -15.7290    -8.5921  C.ar    1  <O>11       0.1907
  25 F5        0.8248   -14.9267    -9.3526  F       1  <O>11      -0.2002
  26 C14       1.1140   -11.3653    -5.2175  C.ar    1  <O>11      -0.0178
  27 H1        2.8015    -8.8851    -6.2815  H       1  <O>11       0.0433
  28 H2        4.3281    -9.6772    -5.8227  H       1  <O>11       0.0433
  29 H3        3.8487    -8.1500    -5.0440  H       1  <O>11       0.0433
  30 H4        5.2680   -10.1500    -2.2830  H       1  <O>11       0.1465
  31 H5        5.2650    -9.3480    -3.8570  H       1  <O>11       0.1465
  32 H6       -1.5970   -13.1723    -6.0997  H       1  <O>11       0.1737
  33 H7        0.7404    -8.3872    -3.7099  H       1  <O>11       0.0636
  34 H8       -1.6063    -8.9698    -3.9751  H       1  <O>11       0.0619
  35 H9       -2.2289   -11.0713    -5.0270  H       1  <O>11       0.0636
  36 H10       1.8465   -12.0078    -5.5578  H       1  <O>11       0.0655
@<TRIPOS>BOND
     1     1     2    1
     2     2     3   am
     3     3     4   am
     4     3     5    2
     5     2     6    1
     6     6     7   ar
     7     7     8   ar
     8     8     9   ar
     9     9    10   ar
    10    10    11    1
    11    11    12    1
    12    12    13    2
    13    12    14    2
    14    12    15    1
    15    15    16   ar
    16    16    17    1
    17    16    18   ar
    18    18    19    1
    19    18    20   ar
    20    20    21    1
    21    20    22   ar
    22    22    23    1
    23    22    24   ar
    24    15    24   ar
    25    24    25    1
    26    10    26   ar
    27     6    26   ar
    28     1    27    1
    29     1    28    1
    30     1    29    1
    31     4    30    1
    32     4    31    1
    33    11    32    1
    34     7    33    1
    35     8    34    1
    36     9    35    1
    37    26    36    1
@<TRIPOS>MOLECULE
mol84_1_18
 36 37 0 0 0
SMALL
USER_CHARGES
****
VDW energy = -314.61
@<TRIPOS>ATOM
   1 C1        3.4850    -9.0906    -5.4577  C.3     1  <O>11       0.0098
   2 N1        2.7955    -9.8278    -4.4362  N.am    1  <O>11      -0.2587
   3 C2        3.4570   -10.2010    -3.2970  C.2     1  <O>11       0.3037
   4 N2        4.7750    -9.8720    -3.1320  N.am    1  <O>11      -0.3129
   5 O1        2.8700   -10.8280    -2.4280  O.2     1  <O>11      -0.2525
   6 C3        1.4620   -10.1610    -4.6040  C.ar    1  <O>11       0.0392
   7 C4        1.1318   -11.3708    -5.2197  C.ar    1  <O>11      -0.0401
   8 C5       -0.2135   -11.7086    -5.4038  C.ar    1  <O>11      -0.0582
   9 C6       -1.2214   -10.8434    -4.9707  C.ar    1  <O>11      -0.0392
  10 C7       -0.8758    -9.6382    -4.3494  C.ar    1  <O>11       0.0498
  11 N3       -1.9188    -8.7498    -3.9027  N.pl3   1  <O>11      -0.2160
  12 S1       -1.5301    -7.3230    -3.1670  S.O2    1  <O>11       0.0780
  13 O2       -0.6279    -6.3919    -4.2055  O.2     1  <O>11      -0.1498
  14 O3       -0.6504    -7.6303    -1.7919  O.2     1  <O>11      -0.1498
  15 C8       -3.0136    -6.4589    -2.7372  C.ar    1  <O>11       0.1843
  16 C9       -3.9302    -6.0839    -3.7352  C.ar    1  <O>11       0.1907
  17 F1       -3.6774    -6.4002    -5.0452  F       1  <O>11      -0.2002
  18 C10      -5.0977    -5.3905    -3.3962  C.ar    1  <O>11       0.1983
  19 F2       -5.9826    -5.0277    -4.3778  F       1  <O>11      -0.1993
  20 C11      -5.3615    -5.0684    -2.0632  C.ar    1  <O>11       0.1992
  21 F3       -6.5014    -4.3858    -1.7257  F       1  <O>11      -0.1993
  22 C12      -4.4538    -5.4468    -1.0691  C.ar    1  <O>11       0.1983
  23 F4       -4.7191    -5.1300     0.2373  F       1  <O>11      -0.1993
  24 C13      -3.2873    -6.1416    -1.3957  C.ar    1  <O>11       0.1907
  25 F5       -2.3998    -6.5194    -0.4216  F       1  <O>11      -0.2002
  26 C14       0.4631    -9.2932    -4.1599  C.ar    1  <O>11      -0.0178
  27 H1        2.8015    -8.8851    -6.2815  H       1  <O>11       0.0433
  28 H2        4.3281    -9.6772    -5.8227  H       1  <O>11       0.0433
  29 H3        3.8487    -8.1500    -5.0440  H       1  <O>11       0.0433
  30 H4        5.2680   -10.1500    -2.2830  H       1  <O>11       0.1465
  31 H5        5.2650    -9.3480    -3.8570  H       1  <O>11       0.1465
  32 H6       -2.8976    -9.0034    -4.0419  H       1  <O>11       0.1737
  33 H7        1.8759   -12.0117    -5.5368  H       1  <O>11       0.0636
  34 H8       -0.4620   -12.5997    -5.8611  H       1  <O>11       0.0619
  35 H9       -2.2137   -11.0914    -5.1080  H       1  <O>11       0.0636
  36 H10       0.7121    -8.4055    -3.6962  H       1  <O>11       0.0655
@<TRIPOS>BOND
     1     1     2    1
     2     2     3   am
     3     3     4   am
     4     3     5    2
     5     2     6    1
     6     6     7   ar
     7     7     8   ar
     8     8     9   ar
     9     9    10   ar
    10    10    11    1
    11    11    12    1
    12    12    13    2
    13    12    14    2
    14    12    15    1
    15    15    16   ar
    16    16    17    1
    17    16    18   ar
    18    18    19    1
    19    18    20   ar
    20    20    21    1
    21    20    22   ar
    22    22    23    1
    23    22    24   ar
    24    15    24   ar
    25    24    25    1
    26    10    26   ar
    27     6    26   ar
    28     1    27    1
    29     1    28    1
    30     1    29    1
    31     4    30    1
    32     4    31    1
    33    11    32    1
    34     7    33    1
    35     8    34    1
    36     9    35    1
    37    26    36    1
@<TRIPOS>MOLECULE
mol84_1_19
 36 37 0 0 0
SMALL
USER_CHARGES
****
VDW energy = -313.86
@<TRIPOS>ATOM
   1 C1        3.4850    -9.0906    -5.4577  C.3     1  <O>11       0.0098
   2 N1        2.7955    -9.8278    -4.4362  N.am    1  <O>11      -0.2587
   3 C2        3.4570   -10.2010    -3.2970  C.2     1  <O>11       0.3037
   4 N2        2.8005   -10.9036    -2.3234  N.am    1  <O>11      -0.3129
   5 O1        4.6336    -9.9062    -3.1501  O.2     1  <O>11      -0.2525
   6 C3        1.4620   -10.1610    -4.6040  C.ar    1  <O>11       0.0392
   7 C4        0.4754    -9.2802    -4.1540  C.ar    1  <O>11      -0.0401
   8 C5       -0.8741    -9.6158    -4.3090  C.ar    1  <O>11      -0.0582
   9 C6       -1.2337   -10.8227    -4.9142  C.ar    1  <O>11      -0.0392
  10 C7       -0.2347   -11.6918    -5.3662  C.ar    1  <O>11       0.0498
  11 N3       -0.6102   -12.9347    -5.9915  N.pl3   1  <O>11      -0.2160
  12 S1        0.5550   -13.9732    -6.5316  S.O2    1  <O>11       0.0780
  13 O2        1.5154   -14.4390    -5.2588  O.2     1  <O>11      -0.1498
  14 O3        1.4855   -13.2136    -7.6789  O.2     1  <O>11      -0.1498
  15 C8       -0.2124   -15.3998    -7.2447  C.ar    1  <O>11       0.1843
  16 C9       -1.0550   -16.2143    -6.4681  C.ar    1  <O>11       0.1907
  17 F1       -1.2913   -15.8939    -5.1560  F       1  <O>11      -0.2002
  18 C10      -1.6526   -17.3488    -7.0291  C.ar    1  <O>11       0.1983
  19 F2       -2.4700   -18.1369    -6.2617  F       1  <O>11      -0.1993
  20 C11      -1.4176   -17.6781    -8.3658  C.ar    1  <O>11       0.1992
  21 F3       -1.9969   -18.7903    -8.9196  F       1  <O>11      -0.1993
  22 C12      -0.5851   -16.8649    -9.1409  C.ar    1  <O>11       0.1983
  23 F4       -0.3601   -17.1918   -10.4523  F       1  <O>11      -0.1993
  24 C13       0.0139   -15.7290    -8.5921  C.ar    1  <O>11       0.1907
  25 F5        0.8248   -14.9267    -9.3526  F       1  <O>11      -0.2002
  26 C14       1.1140   -11.3653    -5.2175  C.ar    1  <O>11      -0.0178
  27 H1        2.8015    -8.8851    -6.2815  H       1  <O>11       0.0433
  28 H2        4.3281    -9.6772    -5.8227  H       1  <O>11       0.0433
  29 H3        3.8487    -8.1500    -5.0440  H       1  <O>11       0.0433
  30 H4        3.2934   -11.1819    -1.4745  H       1  <O>11       0.1465
  31 H5        1.8185   -11.1504    -2.4462  H       1  <O>11       0.1465
  32 H6       -1.5970   -13.1723    -6.0997  H       1  <O>11       0.1737
  33 H7        0.7404    -8.3872    -3.7099  H       1  <O>11       0.0636
  34 H8       -1.6063    -8.9698    -3.9751  H       1  <O>11       0.0619
  35 H9       -2.2289   -11.0713    -5.0270  H       1  <O>11       0.0636
  36 H10       1.8465   -12.0078    -5.5578  H       1  <O>11       0.0655
@<TRIPOS>BOND
     1     1     2    1
     2     2     3   am
     3     3     4   am
     4     3     5    2
     5     2     6    1
     6     6     7   ar
     7     7     8   ar
     8     8     9   ar
     9     9    10   ar
    10    10    11    1
    11    11    12    1
    12    12    13    2
    13    12    14    2
    14    12    15    1
    15    15    16   ar
    16    16    17    1
    17    16    18   ar
    18    18    19    1
    19    18    20   ar
    20    20    21    1
    21    20    22   ar
    22    22    23    1
    23    22    24   ar
    24    15    24   ar
    25    24    25    1
    26    10    26   ar
    27     6    26   ar
    28     1    27    1
    29     1    28    1
    30     1    29    1
    31     4    30    1
    32     4    31    1
    33    11    32    1
    34     7    33    1
    35     8    34    1
    36     9    35    1
    37    26    36    1
@<TRIPOS>MOLECULE
mol84_1_20
 36 37 0 0 0
SMALL
USER_CHARGES
****
VDW energy = -312.18
@<TRIPOS>ATOM
   1 C1        3.4850    -9.0906    -5.4577  C.3     1  <O>11       0.0098
   2 N1        2.7955    -9.8278    -4.4362  N.am    1  <O>11      -0.2587
   3 C2        3.4570   -10.2010    -3.2970  C.2     1  <O>11       0.3037
   4 N2        4.7750    -9.8720    -3.1320  N.am    1  <O>11      -0.3129
   5 O1        2.8700   -10.8280    -2.4280  O.2     1  <O>11      -0.2525
   6 C3        1.4620   -10.1610    -4.6040  C.ar    1  <O>11       0.0392
   7 C4        1.0871   -10.9543    -5.6911  C.ar    1  <O>11      -0.0401
   8 C5       -0.2602   -11.2848    -5.8741  C.ar    1  <O>11      -0.0582
   9 C6       -1.2250   -10.8280    -4.9726  C.ar    1  <O>11      -0.0392
  10 C7       -0.8339   -10.0400    -3.8846  C.ar    1  <O>11       0.0498
  11 N3       -1.8322    -9.5727    -2.9563  N.pl3   1  <O>11      -0.2160
  12 S1       -2.2234   -10.4838    -1.6354  S.O2    1  <O>11       0.0780
  13 O2       -0.8724   -10.7036    -0.6941  O.2     1  <O>11      -0.1498
  14 O3       -2.7991   -11.9607    -2.1318  O.2     1  <O>11      -0.1498
  15 C8       -3.4694    -9.6513    -0.6939  C.ar    1  <O>11       0.1843
  16 C9       -3.9721   -10.2295     0.4849  C.ar    1  <O>11       0.1907
  17 F1       -3.4853   -11.4382     0.9116  F       1  <O>11      -0.2002
  18 C10      -4.9657    -9.5762     1.2231  C.ar    1  <O>11       0.1983
  19 F2       -5.4501   -10.1507     2.3692  F       1  <O>11      -0.1993
  20 C11      -5.4630    -8.3435     0.7947  C.ar    1  <O>11       0.1992
  21 F3       -6.4390    -7.7009     1.5114  F       1  <O>11      -0.1993
  22 C12      -4.9589    -7.7643    -0.3740  C.ar    1  <O>11       0.1983
  23 F4       -5.4490    -6.5538    -0.7881  F       1  <O>11      -0.1993
  24 C13      -3.9654    -8.4060    -1.1165  C.ar    1  <O>11       0.1907
  25 F5       -3.4650    -7.8363    -2.2587  F       1  <O>11      -0.2002
  26 C14       0.5076    -9.7064    -3.6928  C.ar    1  <O>11      -0.0178
  27 H1        2.8015    -8.8851    -6.2815  H       1  <O>11       0.0433
  28 H2        4.3281    -9.6772    -5.8227  H       1  <O>11       0.0433
  29 H3        3.8487    -8.1500    -5.0440  H       1  <O>11       0.0433
  30 H4        5.2680   -10.1500    -2.2830  H       1  <O>11       0.1465
  31 H5        5.2650    -9.3480    -3.8570  H       1  <O>11       0.1465
  32 H6       -2.2967    -8.6780    -3.1162  H       1  <O>11       0.1737
  33 H7        1.7998   -11.2947    -6.3554  H       1  <O>11       0.0636
  34 H8       -0.5421   -11.8678    -6.6776  H       1  <O>11       0.0619
  35 H9       -2.2190   -11.0700    -5.1083  H       1  <O>11       0.0636
  36 H10       0.7909    -9.1293    -2.8854  H       1  <O>11       0.0655
@<TRIPOS>BOND
     1     1     2    1
     2     2     3   am
     3     3     4   am
     4     3     5    2
     5     2     6    1
     6     6     7   ar
     7     7     8   ar
     8     8     9   ar
     9     9    10   ar
    10    10    11    1
    11    11    12    1
    12    12    13    2
    13    12    14    2
    14    12    15    1
    15    15    16   ar
    16    16    17    1
    17    16    18   ar
    18    18    19    1
    19    18    20   ar
    20    20    21    1
    21    20    22   ar
    22    22    23    1
    23    22    24   ar
    24    15    24   ar
    25    24    25    1
    26    10    26   ar
    27     6    26   ar
    28     1    27    1
    29     1    28    1
    30     1    29    1
    31     4    30    1
    32     4    31    1
    33    11    32    1
    34     7    33    1
    35     8    34    1
    36     9    35    1
    37    26    36    1
@<TRIPOS>MOLECULE
mol84_1_21
 36 37 0 0 0
SMALL
USER_CHARGES
****
VDW energy = -311.87
@<TRIPOS>ATOM
   1 C1        3.4850    -9.0906    -5.4577  C.3     1  <O>11       0.0098
   2 N1        2.7955    -9.8278    -4.4362  N.am    1  <O>11      -0.2587
   3 C2        3.4570   -10.2010    -3.2970  C.2     1  <O>11       0.3037
   4 N2        4.7750    -9.8720    -3.1320  N.am    1  <O>11      -0.3129
   5 O1        2.8700   -10.8280    -2.4280  O.2     1  <O>11      -0.2525
   6 C3        1.4620   -10.1610    -4.6040  C.ar    1  <O>11       0.0392
   7 C4        0.5186    -9.1438    -4.7682  C.ar    1  <O>11      -0.0401
   8 C5       -0.8323    -9.4724    -4.9259  C.ar    1  <O>11      -0.0582
   9 C6       -1.2356   -10.8101    -4.9237  C.ar    1  <O>11      -0.0392
  10 C7       -0.2787   -11.8185    -4.7651  C.ar    1  <O>11       0.0498
  11 N3       -0.6990   -13.1969    -4.7653  N.pl3   1  <O>11      -0.2160
  12 S1       -1.1180   -13.9333    -3.3475  S.O2    1  <O>11       0.0780
  13 O2        0.1765   -13.9090    -2.3068  O.2     1  <O>11      -0.1498
  14 O3       -1.5572   -15.5066    -3.6490  O.2     1  <O>11      -0.1498
  15 C8       -2.4793   -13.0708    -2.6160  C.ar    1  <O>11       0.1843
  16 C9       -2.3542   -11.7148    -2.2664  C.ar    1  <O>11       0.1907
  17 F1       -1.1754   -11.0564    -2.5049  F       1  <O>11      -0.2002
  18 C10      -3.4272   -11.0361    -1.6774  C.ar    1  <O>11       0.1983
  19 F2       -3.2928    -9.7150    -1.3385  F       1  <O>11      -0.1993
  20 C11      -4.6311   -11.7012    -1.4350  C.ar    1  <O>11       0.1992
  21 F3       -5.6841   -11.0427    -0.8547  F       1  <O>11      -0.1993
  22 C12      -4.7588   -13.0481    -1.7885  C.ar    1  <O>11       0.1983
  23 F4       -5.9431   -13.6946    -1.5504  F       1  <O>11      -0.1993
  24 C13      -3.6957   -13.7340    -2.3795  C.ar    1  <O>11       0.1907
  25 F5       -3.8215   -15.0526    -2.7330  F       1  <O>11      -0.2002
  26 C14       1.0712   -11.5009    -4.6087  C.ar    1  <O>11      -0.0178
  27 H1        2.8015    -8.8851    -6.2815  H       1  <O>11       0.0433
  28 H2        4.3281    -9.6772    -5.8227  H       1  <O>11       0.0433
  29 H3        3.8487    -8.1500    -5.0440  H       1  <O>11       0.0433
  30 H4        5.2680   -10.1500    -2.2830  H       1  <O>11       0.1465
  31 H5        5.2650    -9.3480    -3.8570  H       1  <O>11       0.1465
  32 H6       -0.7378   -13.7171    -5.6427  H       1  <O>11       0.1737
  33 H7        0.8163    -8.1557    -4.7732  H       1  <O>11       0.0636
  34 H8       -1.5332    -8.7242    -5.0442  H       1  <O>11       0.0619
  35 H9       -2.2322   -11.0527    -5.0381  H       1  <O>11       0.0636
  36 H10       1.7733   -12.2490    -4.4975  H       1  <O>11       0.0655
@<TRIPOS>BOND
     1     1     2    1
     2     2     3   am
     3     3     4   am
     4     3     5    2
     5     2     6    1
     6     6     7   ar
     7     7     8   ar
     8     8     9   ar
     9     9    10   ar
    10    10    11    1
    11    11    12    1
    12    12    13    2
    13    12    14    2
    14    12    15    1
    15    15    16   ar
    16    16    17    1
    17    16    18   ar
    18    18    19    1
    19    18    20   ar
    20    20    21    1
    21    20    22   ar
    22    22    23    1
    23    22    24   ar
    24    15    24   ar
    25    24    25    1
    26    10    26   ar
    27     6    26   ar
    28     1    27    1
    29     1    28    1
    30     1    29    1
    31     4    30    1
    32     4    31    1
    33    11    32    1
    34     7    33    1
    35     8    34    1
    36     9    35    1
    37    26    36    1
@<TRIPOS>MOLECULE
mol84_1_22
 36 37 0 0 0
SMALL
USER_CHARGES
****
VDW energy = -310.54
@<TRIPOS>ATOM
   1 C1        3.4850    -9.0906    -5.4577  C.3     1  <O>11       0.0098
   2 N1        2.7955    -9.8278    -4.4362  N.am    1  <O>11      -0.2587
   3 C2        3.4570   -10.2010    -3.2970  C.2     1  <O>11       0.3037
   4 N2        4.7750    -9.8720    -3.1320  N.am    1  <O>11      -0.3129
   5 O1        2.8700   -10.8280    -2.4280  O.2     1  <O>11      -0.2525
   6 C3        1.4620   -10.1610    -4.6040  C.ar    1  <O>11       0.0392
   7 C4        0.4754    -9.2802    -4.1540  C.ar    1  <O>11      -0.0401
   8 C5       -0.8741    -9.6158    -4.3090  C.ar    1  <O>11      -0.0582
   9 C6       -1.2337   -10.8227    -4.9142  C.ar    1  <O>11      -0.0392
  10 C7       -0.2347   -11.6918    -5.3662  C.ar    1  <O>11       0.0498
  11 N3       -0.6102   -12.9347    -5.9915  N.pl3   1  <O>11      -0.2160
  12 S1       -0.8106   -14.2937    -5.0744  S.O2    1  <O>11       0.0780
  13 O2        0.6121   -14.6509    -4.2949  O.2     1  <O>11      -0.1498
  14 O3       -1.2401   -15.5647    -6.0539  O.2     1  <O>11      -0.1498
  15 C8       -2.0848   -14.0142    -3.8783  C.ar    1  <O>11       0.1843
  16 C9       -2.0492   -14.6738    -2.6372  C.ar    1  <O>11       0.1907
  17 F1       -1.0159   -15.5280    -2.3497  F       1  <O>11      -0.2002
  18 C10      -3.0631   -14.4614    -1.6960  C.ar    1  <O>11       0.1983
  19 F2       -3.0193   -15.1119    -0.4906  F       1  <O>11      -0.1993
  20 C11      -4.1163   -13.5902    -1.9826  C.ar    1  <O>11       0.1992
  21 F3       -5.1142   -13.3812    -1.0663  F       1  <O>11      -0.1993
  22 C12      -4.1490   -12.9284    -3.2140  C.ar    1  <O>11       0.1983
  23 F4       -5.1836   -12.0732    -3.4886  F       1  <O>11      -0.1993
  24 C13      -3.1411   -13.1307    -4.1592  C.ar    1  <O>11       0.1907
  25 F5       -3.1679   -12.4775    -5.3641  F       1  <O>11      -0.2002
  26 C14       1.1140   -11.3653    -5.2175  C.ar    1  <O>11      -0.0178
  27 H1        2.8015    -8.8851    -6.2815  H       1  <O>11       0.0433
  28 H2        4.3281    -9.6772    -5.8227  H       1  <O>11       0.0433
  29 H3        3.8487    -8.1500    -5.0440  H       1  <O>11       0.0433
  30 H4        5.2680   -10.1500    -2.2830  H       1  <O>11       0.1465
  31 H5        5.2650    -9.3480    -3.8570  H       1  <O>11       0.1465
  32 H6       -0.7526   -12.9737    -7.0015  H       1  <O>11       0.1737
  33 H7        0.7404    -8.3872    -3.7099  H       1  <O>11       0.0636
  34 H8       -1.6063    -8.9698    -3.9751  H       1  <O>11       0.0619
  35 H9       -2.2289   -11.0713    -5.0270  H       1  <O>11       0.0636
  36 H10       1.8465   -12.0078    -5.5578  H       1  <O>11       0.0655
@<TRIPOS>BOND
     1     1     2    1
     2     2     3   am
     3     3     4   am
     4     3     5    2
     5     2     6    1
     6     6     7   ar
     7     7     8   ar
     8     8     9   ar
     9     9    10   ar
    10    10    11    1
    11    11    12    1
    12    12    13    2
    13    12    14    2
    14    12    15    1
    15    15    16   ar
    16    16    17    1
    17    16    18   ar
    18    18    19    1
    19    18    20   ar
    20    20    21    1
    21    20    22   ar
    22    22    23    1
    23    22    24   ar
    24    15    24   ar
    25    24    25    1
    26    10    26   ar
    27     6    26   ar
    28     1    27    1
    29     1    28    1
    30     1    29    1
    31     4    30    1
    32     4    31    1
    33    11    32    1
    34     7    33    1
    35     8    34    1
    36     9    35    1
    37    26    36    1
@<TRIPOS>MOLECULE
mol84_1_23
 36 37 0 0 0
SMALL
USER_CHARGES
****
VDW energy = -310.45
@<TRIPOS>ATOM
   1 C1        3.4850    -9.0906    -5.4577  C.3     1  <O>11       0.0098
   2 N1        2.7955    -9.8278    -4.4362  N.am    1  <O>11      -0.2587
   3 C2        3.4570   -10.2010    -3.2970  C.2     1  <O>11       0.3037
   4 N2        2.8005   -10.9036    -2.3234  N.am    1  <O>11      -0.3129
   5 O1        4.6336    -9.9062    -3.1501  O.2     1  <O>11      -0.2525
   6 C3        1.4620   -10.1610    -4.6040  C.ar    1  <O>11       0.0392
   7 C4        1.0871   -10.9543    -5.6911  C.ar    1  <O>11      -0.0401
   8 C5       -0.2602   -11.2848    -5.8741  C.ar    1  <O>11      -0.0582
   9 C6       -1.2250   -10.8280    -4.9726  C.ar    1  <O>11      -0.0392
  10 C7       -0.8339   -10.0400    -3.8846  C.ar    1  <O>11       0.0498
  11 N3       -1.8322    -9.5727    -2.9563  N.pl3   1  <O>11      -0.2160
  12 S1       -2.9863    -8.5011    -3.4542  S.O2    1  <O>11       0.0780
  13 O2       -3.8707    -9.1733    -4.6893  O.2     1  <O>11      -0.1498
  14 O3       -2.2555    -7.1089    -3.9898  O.2     1  <O>11      -0.1498
  15 C8       -4.0596    -8.1202    -2.0995  C.ar    1  <O>11       0.1843
  16 C9       -5.1293    -7.2243    -2.2725  C.ar    1  <O>11       0.1907
  17 F1       -5.3472    -6.6533    -3.4999  F       1  <O>11      -0.2002
  18 C10      -5.9710    -6.9145    -1.1981  C.ar    1  <O>11       0.1983
  19 F2       -7.0089    -6.0378    -1.3779  F       1  <O>11      -0.1993
  20 C11      -5.7553    -7.4955     0.0534  C.ar    1  <O>11       0.1992
  21 F3       -6.5739    -7.1928     1.1105  F       1  <O>11      -0.1993
  22 C12      -4.6958    -8.3919     0.2249  C.ar    1  <O>11       0.1983
  23 F4       -4.4905    -8.9605     1.4544  F       1  <O>11      -0.1993
  24 C13      -3.8517    -8.7104    -0.8410  C.ar    1  <O>11       0.1907
  25 F5       -2.8168    -9.5943    -0.6764  F       1  <O>11      -0.2002
  26 C14       0.5076    -9.7064    -3.6928  C.ar    1  <O>11      -0.0178
  27 H1        2.8015    -8.8851    -6.2815  H       1  <O>11       0.0433
  28 H2        4.3281    -9.6772    -5.8227  H       1  <O>11       0.0433
  29 H3        3.8487    -8.1500    -5.0440  H       1  <O>11       0.0433
  30 H4        3.2934   -11.1819    -1.4745  H       1  <O>11       0.1465
  31 H5        1.8185   -11.1504    -2.4462  H       1  <O>11       0.1465
  32 H6       -1.8253    -9.9051    -1.9913  H       1  <O>11       0.1737
  33 H7        1.7998   -11.2947    -6.3554  H       1  <O>11       0.0636
  34 H8       -0.5421   -11.8678    -6.6776  H       1  <O>11       0.0619
  35 H9       -2.2190   -11.0700    -5.1083  H       1  <O>11       0.0636
  36 H10       0.7909    -9.1293    -2.8854  H       1  <O>11       0.0655
@<TRIPOS>BOND
     1     1     2    1
     2     2     3   am
     3     3     4   am
     4     3     5    2
     5     2     6    1
     6     6     7   ar
     7     7     8   ar
     8     8     9   ar
     9     9    10   ar
    10    10    11    1
    11    11    12    1
    12    12    13    2
    13    12    14    2
    14    12    15    1
    15    15    16   ar
    16    16    17    1
    17    16    18   ar
    18    18    19    1
    19    18    20   ar
    20    20    21    1
    21    20    22   ar
    22    22    23    1
    23    22    24   ar
    24    15    24   ar
    25    24    25    1
    26    10    26   ar
    27     6    26   ar
    28     1    27    1
    29     1    28    1
    30     1    29    1
    31     4    30    1
    32     4    31    1
    33    11    32    1
    34     7    33    1
    35     8    34    1
    36     9    35    1
    37    26    36    1
@<TRIPOS>MOLECULE
mol84_1_24
 36 37 0 0 0
SMALL
USER_CHARGES
****
VDW energy = -309.86
@<TRIPOS>ATOM
   1 C1        3.4850    -9.0906    -5.4577  C.3     1  <O>11       0.0098
   2 N1        2.7955    -9.8278    -4.4362  N.am    1  <O>11      -0.2587
   3 C2        3.4570   -10.2010    -3.2970  C.2     1  <O>11       0.3037
   4 N2        4.7750    -9.8720    -3.1320  N.am    1  <O>11      -0.3129
   5 O1        2.8700   -10.8280    -2.4280  O.2     1  <O>11      -0.2525
   6 C3        1.4620   -10.1610    -4.6040  C.ar    1  <O>11       0.0392
   7 C4        0.5186    -9.1438    -4.7682  C.ar    1  <O>11      -0.0401
   8 C5       -0.8323    -9.4724    -4.9259  C.ar    1  <O>11      -0.0582
   9 C6       -1.2356   -10.8101    -4.9237  C.ar    1  <O>11      -0.0392
  10 C7       -0.2787   -11.8185    -4.7651  C.ar    1  <O>11       0.0498
  11 N3       -0.6990   -13.1969    -4.7653  N.pl3   1  <O>11      -0.2160
  12 S1        0.4163   -14.4010    -4.5797  S.O2    1  <O>11       0.0780
  13 O2        1.1914   -14.2185    -3.1219  O.2     1  <O>11      -0.1498
  14 O3        1.5274   -14.3217    -5.8119  O.2     1  <O>11      -0.1498
  15 C8       -0.3997   -15.9709    -4.6216  C.ar    1  <O>11       0.1843
  16 C9       -1.3901   -16.2808    -3.6731  C.ar    1  <O>11       0.1907
  17 F1       -1.7321   -15.3569    -2.7194  F       1  <O>11      -0.2002
  18 C10      -2.0271   -17.5268    -3.6995  C.ar    1  <O>11       0.1983
  19 F2       -2.9891   -17.8187    -2.7681  F       1  <O>11      -0.1993
  20 C11      -1.6846   -18.4703    -4.6705  C.ar    1  <O>11       0.1992
  21 F3       -2.3023   -19.6938    -4.6988  F       1  <O>11      -0.1993
  22 C12      -0.7046   -18.1606    -5.6185  C.ar    1  <O>11       0.1983
  23 F4       -0.3744   -19.0894    -6.5701  F       1  <O>11      -0.1993
  24 C13      -0.0648   -16.9194    -5.6033  C.ar    1  <O>11       0.1907
  25 F5        0.8913   -16.6114    -6.5362  F       1  <O>11      -0.2002
  26 C14       1.0712   -11.5009    -4.6087  C.ar    1  <O>11      -0.0178
  27 H1        2.8015    -8.8851    -6.2815  H       1  <O>11       0.0433
  28 H2        4.3281    -9.6772    -5.8227  H       1  <O>11       0.0433
  29 H3        3.8487    -8.1500    -5.0440  H       1  <O>11       0.0433
  30 H4        5.2680   -10.1500    -2.2830  H       1  <O>11       0.1465
  31 H5        5.2650    -9.3480    -3.8570  H       1  <O>11       0.1465
  32 H6       -1.6866   -13.4278    -4.8799  H       1  <O>11       0.1737
  33 H7        0.8163    -8.1557    -4.7732  H       1  <O>11       0.0636
  34 H8       -1.5332    -8.7242    -5.0442  H       1  <O>11       0.0619
  35 H9       -2.2322   -11.0527    -5.0381  H       1  <O>11       0.0636
  36 H10       1.7733   -12.2490    -4.4975  H       1  <O>11       0.0655
@<TRIPOS>BOND
     1     1     2    1
     2     2     3   am
     3     3     4   am
     4     3     5    2
     5     2     6    1
     6     6     7   ar
     7     7     8   ar
     8     8     9   ar
     9     9    10   ar
    10    10    11    1
    11    11    12    1
    12    12    13    2
    13    12    14    2
    14    12    15    1
    15    15    16   ar
    16    16    17    1
    17    16    18   ar
    18    18    19    1
    19    18    20   ar
    20    20    21    1
    21    20    22   ar
    22    22    23    1
    23    22    24   ar
    24    15    24   ar
    25    24    25    1
    26    10    26   ar
    27     6    26   ar
    28     1    27    1
    29     1    28    1
    30     1    29    1
    31     4    30    1
    32     4    31    1
    33    11    32    1
    34     7    33    1
    35     8    34    1
    36     9    35    1
    37    26    36    1
@<TRIPOS>MOLECULE
mol84_1_25
 36 37 0 0 0
SMALL
USER_CHARGES
****
VDW energy = -309.75
@<TRIPOS>ATOM
   1 C1        3.4850    -9.0906    -5.4577  C.3     1  <O>11       0.0098
   2 N1        2.7955    -9.8278    -4.4362  N.am    1  <O>11      -0.2587
   3 C2        3.4570   -10.2010    -3.2970  C.2     1  <O>11       0.3037
   4 N2        4.7750    -9.8720    -3.1320  N.am    1  <O>11      -0.3129
   5 O1        2.8700   -10.8280    -2.4280  O.2     1  <O>11      -0.2525
   6 C3        1.4620   -10.1610    -4.6040  C.ar    1  <O>11       0.0392
   7 C4        1.0871   -10.9543    -5.6911  C.ar    1  <O>11      -0.0401
   8 C5       -0.2602   -11.2848    -5.8741  C.ar    1  <O>11      -0.0582
   9 C6       -1.2250   -10.8280    -4.9726  C.ar    1  <O>11      -0.0392
  10 C7       -0.8339   -10.0400    -3.8846  C.ar    1  <O>11       0.0498
  11 N3       -1.8322    -9.5727    -2.9563  N.pl3   1  <O>11      -0.2160
  12 S1       -1.3895    -8.6417    -1.6659  S.O2    1  <O>11       0.0780
  13 O2       -0.6648    -7.2494    -2.2097  O.2     1  <O>11      -0.1498
  14 O3       -0.3223    -9.4864    -0.7136  O.2     1  <O>11      -0.1498
  15 C8       -2.8257    -8.2279    -0.7181  C.ar    1  <O>11       0.1843
  16 C9       -3.8801    -7.5076    -1.3063  C.ar    1  <O>11       0.1907
  17 F1       -3.7985    -7.1352    -2.6234  F       1  <O>11      -0.2002
  18 C10      -5.0107    -7.1705    -0.5533  C.ar    1  <O>11       0.1983
  19 F2       -6.0312    -6.4659    -1.1366  F       1  <O>11      -0.1993
  20 C11      -5.1001    -7.5499     0.7878  C.ar    1  <O>11       0.1992
  21 F3       -6.2033    -7.2191     1.5314  F       1  <O>11      -0.1993
  22 C12      -4.0550    -8.2722     1.3719  C.ar    1  <O>11       0.1983
  23 F4       -4.1494    -8.6436     2.6874  F       1  <O>11      -0.1993
  24 C13      -2.9237    -8.6164     0.6290  C.ar    1  <O>11       0.1907
  25 F5       -1.9012    -9.3305     1.1983  F       1  <O>11      -0.2002
  26 C14       0.5076    -9.7064    -3.6928  C.ar    1  <O>11      -0.0178
  27 H1        2.8015    -8.8851    -6.2815  H       1  <O>11       0.0433
  28 H2        4.3281    -9.6772    -5.8227  H       1  <O>11       0.0433
  29 H3        3.8487    -8.1500    -5.0440  H       1  <O>11       0.0433
  30 H4        5.2680   -10.1500    -2.2830  H       1  <O>11       0.1465
  31 H5        5.2650    -9.3480    -3.8570  H       1  <O>11       0.1465
  32 H6       -2.8130    -9.8175    -3.0978  H       1  <O>11       0.1737
  33 H7        1.7998   -11.2947    -6.3554  H       1  <O>11       0.0636
  34 H8       -0.5421   -11.8678    -6.6776  H       1  <O>11       0.0619
  35 H9       -2.2190   -11.0700    -5.1083  H       1  <O>11       0.0636
  36 H10       0.7909    -9.1293    -2.8854  H       1  <O>11       0.0655
@<TRIPOS>BOND
     1     1     2    1
     2     2     3   am
     3     3     4   am
     4     3     5    2
     5     2     6    1
     6     6     7   ar
     7     7     8   ar
     8     8     9   ar
     9     9    10   ar
    10    10    11    1
    11    11    12    1
    12    12    13    2
    13    12    14    2
    14    12    15    1
    15    15    16   ar
    16    16    17    1
    17    16    18   ar
    18    18    19    1
    19    18    20   ar
    20    20    21    1
    21    20    22   ar
    22    22    23    1
    23    22    24   ar
    24    15    24   ar
    25    24    25    1
    26    10    26   ar
    27     6    26   ar
    28     1    27    1
    29     1    28    1
    30     1    29    1
    31     4    30    1
    32     4    31    1
    33    11    32    1
    34     7    33    1
    35     8    34    1
    36     9    35    1
    37    26    36    1
@<TRIPOS>MOLECULE
mol84_1_26
 36 37 0 0 0
SMALL
USER_CHARGES
****
VDW energy = -305.78
@<TRIPOS>ATOM
   1 C1        3.4850    -9.0906    -5.4577  C.3     1  <O>11       0.0098
   2 N1        2.7955    -9.8278    -4.4362  N.am    1  <O>11      -0.2587
   3 C2        3.4570   -10.2010    -3.2970  C.2     1  <O>11       0.3037
   4 N2        4.7750    -9.8720    -3.1320  N.am    1  <O>11      -0.3129
   5 O1        2.8700   -10.8280    -2.4280  O.2     1  <O>11      -0.2525
   6 C3        1.4620   -10.1610    -4.6040  C.ar    1  <O>11       0.0392
   7 C4        1.0871   -10.9543    -5.6911  C.ar    1  <O>11      -0.0401
   8 C5       -0.2602   -11.2848    -5.8741  C.ar    1  <O>11      -0.0582
   9 C6       -1.2250   -10.8280    -4.9726  C.ar    1  <O>11      -0.0392
  10 C7       -0.8339   -10.0400    -3.8846  C.ar    1  <O>11       0.0498
  11 N3       -1.8322    -9.5727    -2.9563  N.pl3   1  <O>11      -0.2160
  12 S1       -1.3895    -8.6417    -1.6659  S.O2    1  <O>11       0.0780
  13 O2       -0.6648    -7.2494    -2.2097  O.2     1  <O>11      -0.1498
  14 O3       -0.3223    -9.4864    -0.7136  O.2     1  <O>11      -0.1498
  15 C8       -2.8257    -8.2279    -0.7181  C.ar    1  <O>11       0.1843
  16 C9       -2.7084    -7.4368     0.4383  C.ar    1  <O>11       0.1907
  17 F1       -1.4766    -6.9752     0.8252  F       1  <O>11      -0.2002
  18 C10      -3.8429    -7.1193     1.1939  C.ar    1  <O>11       0.1983
  19 F2       -3.7160    -6.3496     2.3208  F       1  <O>11      -0.1993
  20 C11      -5.1002    -7.5844     0.8027  C.ar    1  <O>11       0.1992
  21 F3       -6.2144    -7.2800     1.5411  F       1  <O>11      -0.1993
  22 C12      -5.2189    -8.3656    -0.3510  C.ar    1  <O>11       0.1983
  23 F4       -6.4554    -8.8171    -0.7310  F       1  <O>11      -0.1993
  24 C13      -4.0940    -8.6859    -1.1140  C.ar    1  <O>11       0.1907
  25 F5       -4.2095    -9.4458    -2.2491  F       1  <O>11      -0.2002
  26 C14       0.5076    -9.7064    -3.6928  C.ar    1  <O>11      -0.0178
  27 H1        2.8015    -8.8851    -6.2815  H       1  <O>11       0.0433
  28 H2        4.3281    -9.6772    -5.8227  H       1  <O>11       0.0433
  29 H3        3.8487    -8.1500    -5.0440  H       1  <O>11       0.0433
  30 H4        5.2680   -10.1500    -2.2830  H       1  <O>11       0.1465
  31 H5        5.2650    -9.3480    -3.8570  H       1  <O>11       0.1465
  32 H6       -2.8130    -9.8175    -3.0978  H       1  <O>11       0.1737
  33 H7        1.7998   -11.2947    -6.3554  H       1  <O>11       0.0636
  34 H8       -0.5421   -11.8678    -6.6776  H       1  <O>11       0.0619
  35 H9       -2.2190   -11.0700    -5.1083  H       1  <O>11       0.0636
  36 H10       0.7909    -9.1293    -2.8854  H       1  <O>11       0.0655
@<TRIPOS>BOND
     1     1     2    1
     2     2     3   am
     3     3     4   am
     4     3     5    2
     5     2     6    1
     6     6     7   ar
     7     7     8   ar
     8     8     9   ar
     9     9    10   ar
    10    10    11    1
    11    11    12    1
    12    12    13    2
    13    12    14    2
    14    12    15    1
    15    15    16   ar
    16    16    17    1
    17    16    18   ar
    18    18    19    1
    19    18    20   ar
    20    20    21    1
    21    20    22   ar
    22    22    23    1
    23    22    24   ar
    24    15    24   ar
    25    24    25    1
    26    10    26   ar
    27     6    26   ar
    28     1    27    1
    29     1    28    1
    30     1    29    1
    31     4    30    1
    32     4    31    1
    33    11    32    1
    34     7    33    1
    35     8    34    1
    36     9    35    1
    37    26    36    1
@<TRIPOS>MOLECULE
mol84_1_27
 36 37 0 0 0
SMALL
USER_CHARGES
****
VDW energy = -273.24
@<TRIPOS>ATOM
   1 C1        3.4850    -9.0906    -5.4577  C.3     1  <O>11       0.0098
   2 N1        2.7955    -9.8278    -4.4362  N.am    1  <O>11      -0.2587
   3 C2        3.4570   -10.2010    -3.2970  C.2     1  <O>11       0.3037
   4 N2        4.7750    -9.8720    -3.1320  N.am    1  <O>11      -0.3129
   5 O1        2.8700   -10.8280    -2.4280  O.2     1  <O>11      -0.2525
   6 C3        1.4620   -10.1610    -4.6040  C.ar    1  <O>11       0.0392
   7 C4        0.8050   -10.8780    -3.6010  C.ar    1  <O>11      -0.0401
   8 C5       -0.5390   -11.2290    -3.7690  C.ar    1  <O>11      -0.0582
   9 C6       -1.2220   -10.8610    -4.9310  C.ar    1  <O>11      -0.0392
  10 C7       -0.5530   -10.1370    -5.9240  C.ar    1  <O>11       0.0498
  11 N3       -1.2620    -9.7580    -7.1200  N.pl3   1  <O>11      -0.2160
  12 S1       -2.5154    -8.6859    -7.0329  S.O2    1  <O>11       0.0780
  13 O2       -3.1393    -8.4381    -8.5524  O.2     1  <O>11      -0.1498
  14 O3       -1.9689    -7.2435    -6.4164  O.2     1  <O>11      -0.1498
  15 C8       -3.7764    -9.3388    -5.9766  C.ar    1  <O>11       0.1843
  16 C9       -4.3996   -10.5601    -6.2875  C.ar    1  <O>11       0.1907
  17 F1       -4.0192   -11.2525    -7.4081  F       1  <O>11      -0.2002
  18 C10      -5.4048   -11.0705    -5.4581  C.ar    1  <O>11       0.1983
  19 F2       -6.0071   -12.2607    -5.7726  F       1  <O>11      -0.1993
  20 C11      -5.7941   -10.3707    -4.3139  C.ar    1  <O>11       0.1992
  21 F3       -6.7808   -10.8637    -3.4999  F       1  <O>11      -0.1993
  22 C12      -5.1701    -9.1592    -4.0001  C.ar    1  <O>11       0.1983
  23 F4       -5.5547    -8.4783    -2.8751  F       1  <O>11      -0.1993
  24 C13      -4.1640    -8.6423    -4.8190  C.ar    1  <O>11       0.1907
  25 F5       -3.5464    -7.4583    -4.5091  F       1  <O>11      -0.2002
  26 C14       0.7870    -9.7810    -5.7650  C.ar    1  <O>11      -0.0178
  27 H1        2.8015    -8.8851    -6.2815  H       1  <O>11       0.0433
  28 H2        4.3281    -9.6772    -5.8227  H       1  <O>11       0.0433
  29 H3        3.8487    -8.1500    -5.0440  H       1  <O>11       0.0433
  30 H4        5.2680   -10.1500    -2.2830  H       1  <O>11       0.1465
  31 H5        5.2650    -9.3480    -3.8570  H       1  <O>11       0.1465
  32 H6       -0.9883   -10.1527    -8.0206  H       1  <O>11       0.1737
  33 H7        1.3081   -11.1472    -2.7411  H       1  <O>11       0.0636
  34 H8       -1.0274   -11.7615    -3.0322  H       1  <O>11       0.0619
  35 H9       -2.2128   -11.1213    -5.0560  H       1  <O>11       0.0636
  36 H10       1.2738    -9.2423    -6.4984  H       1  <O>11       0.0655
@<TRIPOS>BOND
     1     1     2    1
     2     2     3   am
     3     3     4   am
     4     3     5    2
     5     2     6    1
     6     6     7   ar
     7     7     8   ar
     8     8     9   ar
     9     9    10   ar
    10    10    11    1
    11    11    12    1
    12    12    13    2
    13    12    14    2
    14    12    15    1
    15    15    16   ar
    16    16    17    1
    17    16    18   ar
    18    18    19    1
    19    18    20   ar
    20    20    21    1
    21    20    22   ar
    22    22    23    1
    23    22    24   ar
    24    15    24   ar
    25    24    25    1
    26    10    26   ar
    27     6    26   ar
    28     1    27    1
    29     1    28    1
    30     1    29    1
    31     4    30    1
    32     4    31    1
    33    11    32    1
    34     7    33    1
    35     8    34    1
    36     9    35    1
    37    26    36    1
@<TRIPOS>MOLECULE
mol84_1_28
 36 37 0 0 0
SMALL
USER_CHARGES
****
VDW energy = -273.15
@<TRIPOS>ATOM
   1 C1        3.4850    -9.0906    -5.4577  C.3     1  <O>11       0.0098
   2 N1        2.7955    -9.8278    -4.4362  N.am    1  <O>11      -0.2587
   3 C2        3.4570   -10.2010    -3.2970  C.2     1  <O>11       0.3037
   4 N2        4.7750    -9.8720    -3.1320  N.am    1  <O>11      -0.3129
   5 O1        2.8700   -10.8280    -2.4280  O.2     1  <O>11      -0.2525
   6 C3        1.4620   -10.1610    -4.6040  C.ar    1  <O>11       0.0392
   7 C4        0.8050   -10.8780    -3.6010  C.ar    1  <O>11      -0.0401
   8 C5       -0.5390   -11.2290    -3.7690  C.ar    1  <O>11      -0.0582
   9 C6       -1.2220   -10.8610    -4.9310  C.ar    1  <O>11      -0.0392
  10 C7       -0.5530   -10.1370    -5.9240  C.ar    1  <O>11       0.0498
  11 N3       -1.2620    -9.7580    -7.1200  N.pl3   1  <O>11      -0.2160
  12 S1       -1.7889   -10.9181    -8.1710  S.O2    1  <O>11       0.0780
  13 O2       -2.5665   -10.1961    -9.4490  O.2     1  <O>11      -0.1498
  14 O3       -2.8396   -11.9390    -7.3881  O.2     1  <O>11      -0.1498
  15 C8       -0.4038   -11.8431    -8.7695  C.ar    1  <O>11       0.1843
  16 C9        0.6298   -11.1982    -9.4712  C.ar    1  <O>11       0.1907
  17 F1        0.5683    -9.8446    -9.6815  F       1  <O>11      -0.2002
  18 C10       1.7194   -11.9319    -9.9543  C.ar    1  <O>11       0.1983
  19 F2        2.7197   -11.2928   -10.6392  F       1  <O>11      -0.1993
  20 C11       1.7884   -13.3102    -9.7403  C.ar    1  <O>11       0.1992
  21 F3        2.8511   -14.0347   -10.2147  F       1  <O>11      -0.1993
  22 C12       0.7643   -13.9516    -9.0367  C.ar    1  <O>11       0.1983
  23 F4        0.8386   -15.3037    -8.8279  F       1  <O>11      -0.1993
  24 C13      -0.3259   -13.2288    -8.5477  C.ar    1  <O>11       0.1907
  25 F5       -1.3274   -13.8549    -7.8516  F       1  <O>11      -0.2002
  26 C14       0.7870    -9.7810    -5.7650  C.ar    1  <O>11      -0.0178
  27 H1        2.8015    -8.8851    -6.2815  H       1  <O>11       0.0433
  28 H2        4.3281    -9.6772    -5.8227  H       1  <O>11       0.0433
  29 H3        3.8487    -8.1500    -5.0440  H       1  <O>11       0.0433
  30 H4        5.2680   -10.1500    -2.2830  H       1  <O>11       0.1465
  31 H5        5.2650    -9.3480    -3.8570  H       1  <O>11       0.1465
  32 H6       -1.4383    -8.7720    -7.3163  H       1  <O>11       0.1737
  33 H7        1.3081   -11.1472    -2.7411  H       1  <O>11       0.0636
  34 H8       -1.0274   -11.7615    -3.0322  H       1  <O>11       0.0619
  35 H9       -2.2128   -11.1213    -5.0560  H       1  <O>11       0.0636
  36 H10       1.2738    -9.2423    -6.4984  H       1  <O>11       0.0655
@<TRIPOS>BOND
     1     1     2    1
     2     2     3   am
     3     3     4   am
     4     3     5    2
     5     2     6    1
     6     6     7   ar
     7     7     8   ar
     8     8     9   ar
     9     9    10   ar
    10    10    11    1
    11    11    12    1
    12    12    13    2
    13    12    14    2
    14    12    15    1
    15    15    16   ar
    16    16    17    1
    17    16    18   ar
    18    18    19    1
    19    18    20   ar
    20    20    21    1
    21    20    22   ar
    22    22    23    1
    23    22    24   ar
    24    15    24   ar
    25    24    25    1
    26    10    26   ar
    27     6    26   ar
    28     1    27    1
    29     1    28    1
    30     1    29    1
    31     4    30    1
    32     4    31    1
    33    11    32    1
    34     7    33    1
    35     8    34    1
    36     9    35    1
    37    26    36    1
@<TRIPOS>MOLECULE
mol84_1_29
 36 37 0 0 0
SMALL
USER_CHARGES
****
VDW energy = -272.39
@<TRIPOS>ATOM
   1 C1        3.4850    -9.0906    -5.4577  C.3     1  <O>11       0.0098
   2 N1        2.7955    -9.8278    -4.4362  N.am    1  <O>11      -0.2587
   3 C2        3.4570   -10.2010    -3.2970  C.2     1  <O>11       0.3037
   4 N2        4.7750    -9.8720    -3.1320  N.am    1  <O>11      -0.3129
   5 O1        2.8700   -10.8280    -2.4280  O.2     1  <O>11      -0.2525
   6 C3        1.4620   -10.1610    -4.6040  C.ar    1  <O>11       0.0392
   7 C4        0.8050   -10.8780    -3.6010  C.ar    1  <O>11      -0.0401
   8 C5       -0.5390   -11.2290    -3.7690  C.ar    1  <O>11      -0.0582
   9 C6       -1.2220   -10.8610    -4.9310  C.ar    1  <O>11      -0.0392
  10 C7       -0.5530   -10.1370    -5.9240  C.ar    1  <O>11       0.0498
  11 N3       -1.2620    -9.7580    -7.1200  N.pl3   1  <O>11      -0.2160
  12 S1       -2.0668    -8.3170    -7.1820  S.O2    1  <O>11       0.0780
  13 O2       -0.9938    -7.0721    -6.9406  O.2     1  <O>11      -0.1498
  14 O3       -3.2318    -8.2817    -5.9984  O.2     1  <O>11      -0.1498
  15 C8       -2.8317    -8.1375    -8.7679  C.ar    1  <O>11       0.1843
  16 C9       -2.0496    -8.1363    -9.9362  C.ar    1  <O>11       0.1907
  17 F1       -0.6898    -8.2868    -9.8452  F       1  <O>11      -0.2002
  18 C10      -2.6536    -7.9829   -11.1894  C.ar    1  <O>11       0.1983
  19 F2       -1.8809    -7.9806   -12.3212  F       1  <O>11      -0.1993
  20 C11      -4.0385    -7.8322   -11.2879  C.ar    1  <O>11       0.1992
  21 F3       -4.6353    -7.6775   -12.5123  F       1  <O>11      -0.1993
  22 C12      -4.8180    -7.8401   -10.1270  C.ar    1  <O>11       0.1983
  23 F4       -6.1764    -7.6941   -10.2302  F       1  <O>11      -0.1993
  24 C13      -4.2260    -7.9955    -8.8718  C.ar    1  <O>11       0.1907
  25 F5       -4.9894    -8.0104    -7.7332  F       1  <O>11      -0.2002
  26 C14       0.7870    -9.7810    -5.7650  C.ar    1  <O>11      -0.0178
  27 H1        2.8015    -8.8851    -6.2815  H       1  <O>11       0.0433
  28 H2        4.3281    -9.6772    -5.8227  H       1  <O>11       0.0433
  29 H3        3.8487    -8.1500    -5.0440  H       1  <O>11       0.0433
  30 H4        5.2680   -10.1500    -2.2830  H       1  <O>11       0.1465
  31 H5        5.2650    -9.3480    -3.8570  H       1  <O>11       0.1465
  32 H6       -1.2657   -10.3810    -7.9285  H       1  <O>11       0.1737
  33 H7        1.3081   -11.1472    -2.7411  H       1  <O>11       0.0636
  34 H8       -1.0274   -11.7615    -3.0322  H       1  <O>11       0.0619
  35 H9       -2.2128   -11.1213    -5.0560  H       1  <O>11       0.0636
  36 H10       1.2738    -9.2423    -6.4984  H       1  <O>11       0.0655
@<TRIPOS>BOND
     1     1     2    1
     2     2     3   am
     3     3     4   am
     4     3     5    2
     5     2     6    1
     6     6     7   ar
     7     7     8   ar
     8     8     9   ar
     9     9    10   ar
    10    10    11    1
    11    11    12    1
    12    12    13    2
    13    12    14    2
    14    12    15    1
    15    15    16   ar
    16    16    17    1
    17    16    18   ar
    18    18    19    1
    19    18    20   ar
    20    20    21    1
    21    20    22   ar
    22    22    23    1
    23    22    24   ar
    24    15    24   ar
    25    24    25    1
    26    10    26   ar
    27     6    26   ar
    28     1    27    1
    29     1    28    1
    30     1    29    1
    31     4    30    1
    32     4    31    1
    33    11    32    1
    34     7    33    1
    35     8    34    1
    36     9    35    1
    37    26    36    1
@<TRIPOS>MOLECULE
mol84_1_30
 36 37 0 0 0
SMALL
USER_CHARGES
****
VDW energy = -272.23
@<TRIPOS>ATOM
   1 C1        3.4850    -9.0906    -5.4577  C.3     1  <O>11       0.0098
   2 N1        2.7955    -9.8278    -4.4362  N.am    1  <O>11      -0.2587
   3 C2        3.4570   -10.2010    -3.2970  C.2     1  <O>11       0.3037
   4 N2        4.7750    -9.8720    -3.1320  N.am    1  <O>11      -0.3129
   5 O1        2.8700   -10.8280    -2.4280  O.2     1  <O>11      -0.2525
   6 C3        1.4620   -10.1610    -4.6040  C.ar    1  <O>11       0.0392
   7 C4        0.8050   -10.8780    -3.6010  C.ar    1  <O>11      -0.0401
   8 C5       -0.5390   -11.2290    -3.7690  C.ar    1  <O>11      -0.0582
   9 C6       -1.2220   -10.8610    -4.9310  C.ar    1  <O>11      -0.0392
  10 C7       -0.5530   -10.1370    -5.9240  C.ar    1  <O>11       0.0498
  11 N3       -1.2620    -9.7580    -7.1200  N.pl3   1  <O>11      -0.2160
  12 S1       -2.0668    -8.3170    -7.1820  S.O2    1  <O>11       0.0780
  13 O2       -0.9938    -7.0721    -6.9406  O.2     1  <O>11      -0.1498
  14 O3       -3.2318    -8.2817    -5.9984  O.2     1  <O>11      -0.1498
  15 C8       -2.8317    -8.1375    -8.7679  C.ar    1  <O>11       0.1843
  16 C9       -3.7841    -9.0743    -9.2058  C.ar    1  <O>11       0.1907
  17 F1       -4.1292   -10.1244    -8.3945  F       1  <O>11      -0.2002
  18 C10      -4.3804    -8.9384   -10.4648  C.ar    1  <O>11       0.1983
  19 F2       -5.3056    -9.8592   -10.8822  F       1  <O>11      -0.1993
  20 C11      -4.0347    -7.8691   -11.2939  C.ar    1  <O>11       0.1992
  21 F3       -4.6123    -7.7331   -12.5297  F       1  <O>11      -0.1993
  22 C12      -3.0925    -6.9331   -10.8565  C.ar    1  <O>11       0.1983
  23 F4       -2.7591    -5.8849   -11.6735  F       1  <O>11      -0.1993
  24 C13      -2.4937    -7.0574    -9.6011  C.ar    1  <O>11       0.1907
  25 F5       -1.5749    -6.1367    -9.1678  F       1  <O>11      -0.2002
  26 C14       0.7870    -9.7810    -5.7650  C.ar    1  <O>11      -0.0178
  27 H1        2.8015    -8.8851    -6.2815  H       1  <O>11       0.0433
  28 H2        4.3281    -9.6772    -5.8227  H       1  <O>11       0.0433
  29 H3        3.8487    -8.1500    -5.0440  H       1  <O>11       0.0433
  30 H4        5.2680   -10.1500    -2.2830  H       1  <O>11       0.1465
  31 H5        5.2650    -9.3480    -3.8570  H       1  <O>11       0.1465
  32 H6       -1.2657   -10.3810    -7.9285  H       1  <O>11       0.1737
  33 H7        1.3081   -11.1472    -2.7411  H       1  <O>11       0.0636
  34 H8       -1.0274   -11.7615    -3.0322  H       1  <O>11       0.0619
  35 H9       -2.2128   -11.1213    -5.0560  H       1  <O>11       0.0636
  36 H10       1.2738    -9.2423    -6.4984  H       1  <O>11       0.0655
@<TRIPOS>BOND
     1     1     2    1
     2     2     3   am
     3     3     4   am
     4     3     5    2
     5     2     6    1
     6     6     7   ar
     7     7     8   ar
     8     8     9   ar
     9     9    10   ar
    10    10    11    1
    11    11    12    1
    12    12    13    2
    13    12    14    2
    14    12    15    1
    15    15    16   ar
    16    16    17    1
    17    16    18   ar
    18    18    19    1
    19    18    20   ar
    20    20    21    1
    21    20    22   ar
    22    22    23    1
    23    22    24   ar
    24    15    24   ar
    25    24    25    1
    26    10    26   ar
    27     6    26   ar
    28     1    27    1
    29     1    28    1
    30     1    29    1
    31     4    30    1
    32     4    31    1
    33    11    32    1
    34     7    33    1
    35     8    34    1
    36     9    35    1
    37    26    36    1
@<TRIPOS>MOLECULE
mol84_2_1
 36 37 0 0 0
SMALL
USER_CHARGES
****
VDW energy = -325.91
@<TRIPOS>ATOM
   1 C1        3.4850    -9.0906    -5.4577  C.3     1  <O>11       0.0098
   2 N1        2.7955    -9.8278    -4.4362  N.am    1  <O>11      -0.2587
   3 C2        3.4570   -10.2010    -3.2970  C.2     1  <O>11       0.3037
   4 N2        4.7750    -9.8720    -3.1320  N.am    1  <O>11      -0.3129
   5 O1        2.8700   -10.8280    -2.4280  O.2     1  <O>11      -0.2525
   6 C3        1.4620   -10.1610    -4.6040  C.ar    1  <O>11       0.0392
   7 C4        0.4754    -9.2802    -4.1540  C.ar    1  <O>11      -0.0401
   8 C5       -0.8741    -9.6158    -4.3090  C.ar    1  <O>11      -0.0582
   9 C6       -1.2337   -10.8227    -4.9142  C.ar    1  <O>11      -0.0392
  10 C7       -0.2347   -11.6918    -5.3662  C.ar    1  <O>11       0.0498
  11 N3       -0.6102   -12.9347    -5.9915  N.pl3   1  <O>11      -0.2160
  12 S1       -1.3781   -14.1025    -5.1100  S.O2    1  <O>11       0.0780
  13 O2       -1.6876   -15.4147    -6.0792  O.2     1  <O>11      -0.1498
  14 O3       -2.8087   -13.5002    -4.5204  O.2     1  <O>11      -0.1498
  15 C8       -0.3451   -14.5958    -3.7604  C.ar    1  <O>11       0.1843
  16 C9        0.9276   -15.1411    -4.0036  C.ar    1  <O>11       0.1907
  17 F1        1.3733   -15.2780    -5.2936  F       1  <O>11      -0.2002
  18 C10       1.7392   -15.5402    -2.9378  C.ar    1  <O>11       0.1983
  19 F2        2.9786   -16.0750    -3.1876  F       1  <O>11      -0.1993
  20 C11       1.2919   -15.3983    -1.6207  C.ar    1  <O>11       0.1992
  21 F3        2.0820   -15.7923    -0.5716  F       1  <O>11      -0.1993
  22 C12       0.0279   -14.8495    -1.3784  C.ar    1  <O>11       0.1983
  23 F4       -0.4048   -14.7120    -0.0865  F       1  <O>11      -0.1993
  24 C13      -0.7880   -14.4469    -2.4357  C.ar    1  <O>11       0.1907
  25 F5       -2.0237   -13.9026    -2.1988  F       1  <O>11      -0.2002
  26 C14       1.1140   -11.3653    -5.2175  C.ar    1  <O>11      -0.0178
  27 H1        2.8015    -8.8851    -6.2815  H       1  <O>11       0.0433
  28 H2        4.3281    -9.6772    -5.8227  H       1  <O>11       0.0433
  29 H3        3.8487    -8.1500    -5.0440  H       1  <O>11       0.0433
  30 H4        5.2680   -10.1500    -2.2830  H       1  <O>11       0.1465
  31 H5        5.2650    -9.3480    -3.8570  H       1  <O>11       0.1465
  32 H6       -0.4013   -13.0934    -6.9765  H       1  <O>11       0.1737
  33 H7        0.7404    -8.3872    -3.7099  H       1  <O>11       0.0636
  34 H8       -1.6063    -8.9698    -3.9751  H       1  <O>11       0.0619
  35 H9       -2.2289   -11.0713    -5.0270  H       1  <O>11       0.0636
  36 H10       1.8465   -12.0078    -5.5578  H       1  <O>11       0.0655
@<TRIPOS>BOND
     1     1     2    1
     2     2     3   am
     3     3     4   am
     4     3     5    2
     5     2     6    1
     6     6     7   ar
     7     7     8   ar
     8     8     9   ar
     9     9    10   ar
    10    10    11    1
    11    11    12    1
    12    12    13    2
    13    12    14    2
    14    12    15    1
    15    15    16   ar
    16    16    17    1
    17    16    18   ar
    18    18    19    1
    19    18    20   ar
    20    20    21    1
    21    20    22   ar
    22    22    23    1
    23    22    24   ar
    24    15    24   ar
    25    24    25    1
    26    10    26   ar
    27     6    26   ar
    28     1    27    1
    29     1    28    1
    30     1    29    1
    31     4    30    1
    32     4    31    1
    33    11    32    1
    34     7    33    1
    35     8    34    1
    36     9    35    1
    37    26    36    1
@<TRIPOS>MOLECULE
mol84_2_2
 36 37 0 0 0
SMALL
USER_CHARGES
****
VDW energy = -325.32
@<TRIPOS>ATOM
   1 C1        3.4850    -9.0906    -5.4577  C.3     1  <O>11       0.0098
   2 N1        2.7955    -9.8278    -4.4362  N.am    1  <O>11      -0.2587
   3 C2        3.4570   -10.2010    -3.2970  C.2     1  <O>11       0.3037
   4 N2        4.7750    -9.8720    -3.1320  N.am    1  <O>11      -0.3129
   5 O1        2.8700   -10.8280    -2.4280  O.2     1  <O>11      -0.2525
   6 C3        1.4620   -10.1610    -4.6040  C.ar    1  <O>11       0.0392
   7 C4        0.4754    -9.2802    -4.1540  C.ar    1  <O>11      -0.0401
   8 C5       -0.8741    -9.6158    -4.3090  C.ar    1  <O>11      -0.0582
   9 C6       -1.2337   -10.8227    -4.9142  C.ar    1  <O>11      -0.0392
  10 C7       -0.2347   -11.6918    -5.3662  C.ar    1  <O>11       0.0498
  11 N3       -0.6102   -12.9347    -5.9915  N.pl3   1  <O>11      -0.2160
  12 S1       -0.8402   -12.9990    -7.6266  S.O2    1  <O>11       0.0780
  13 O2       -1.2624   -14.5433    -8.0665  O.2     1  <O>11      -0.1498
  14 O3        0.5639   -12.5672    -8.4006  O.2     1  <O>11      -0.1498
  15 C8       -2.1334   -11.8806    -8.0835  C.ar    1  <O>11       0.1843
  16 C9       -3.4269   -12.0381    -7.5560  C.ar    1  <O>11       0.1907
  17 F1       -3.6816   -13.0565    -6.6731  F       1  <O>11      -0.2002
  18 C10      -4.4506   -11.1608    -7.9250  C.ar    1  <O>11       0.1983
  19 F2       -5.7109   -11.3268    -7.4064  F       1  <O>11      -0.1993
  20 C11      -4.1953   -10.1179    -8.8206  C.ar    1  <O>11       0.1992
  21 F3       -5.1969    -9.2571    -9.1896  F       1  <O>11      -0.1993
  22 C12      -2.9064    -9.9571    -9.3405  C.ar    1  <O>11       0.1983
  23 F4       -2.6617    -8.9335   -10.2167  F       1  <O>11      -0.1993
  24 C13      -1.8783   -10.8267    -8.9766  C.ar    1  <O>11       0.1907
  25 F5       -0.6135   -10.6655    -9.4801  F       1  <O>11      -0.2002
  26 C14       1.1140   -11.3653    -5.2175  C.ar    1  <O>11      -0.0178
  27 H1        2.8015    -8.8851    -6.2815  H       1  <O>11       0.0433
  28 H2        4.3281    -9.6772    -5.8227  H       1  <O>11       0.0433
  29 H3        3.8487    -8.1500    -5.0440  H       1  <O>11       0.0433
  30 H4        5.2680   -10.1500    -2.2830  H       1  <O>11       0.1465
  31 H5        5.2650    -9.3480    -3.8570  H       1  <O>11       0.1465
  32 H6       -0.7349   -13.7730    -5.4253  H       1  <O>11       0.1737
  33 H7        0.7404    -8.3872    -3.7099  H       1  <O>11       0.0636
  34 H8       -1.6063    -8.9698    -3.9751  H       1  <O>11       0.0619
  35 H9       -2.2289   -11.0713    -5.0270  H       1  <O>11       0.0636
  36 H10       1.8465   -12.0078    -5.5578  H       1  <O>11       0.0655
@<TRIPOS>BOND
     1     1     2    1
     2     2     3   am
     3     3     4   am
     4     3     5    2
     5     2     6    1
     6     6     7   ar
     7     7     8   ar
     8     8     9   ar
     9     9    10   ar
    10    10    11    1
    11    11    12    1
    12    12    13    2
    13    12    14    2
    14    12    15    1
    15    15    16   ar
    16    16    17    1
    17    16    18   ar
    18    18    19    1
    19    18    20   ar
    20    20    21    1
    21    20    22   ar
    22    22    23    1
    23    22    24   ar
    24    15    24   ar
    25    24    25    1
    26    10    26   ar
    27     6    26   ar
    28     1    27    1
    29     1    28    1
    30     1    29    1
    31     4    30    1
    32     4    31    1
    33    11    32    1
    34     7    33    1
    35     8    34    1
    36     9    35    1
    37    26    36    1
@<TRIPOS>MOLECULE
mol84_2_3
 36 37 0 0 0
SMALL
USER_CHARGES
****
VDW energy = -323.56
@<TRIPOS>ATOM
   1 C1        3.4850    -9.0906    -5.4577  C.3     1  <O>11       0.0098
   2 N1        2.7955    -9.8278    -4.4362  N.am    1  <O>11      -0.2587
   3 C2        3.4570   -10.2010    -3.2970  C.2     1  <O>11       0.3037
   4 N2        4.7750    -9.8720    -3.1320  N.am    1  <O>11      -0.3129
   5 O1        2.8700   -10.8280    -2.4280  O.2     1  <O>11      -0.2525
   6 C3        1.4620   -10.1610    -4.6040  C.ar    1  <O>11       0.0392
   7 C4        1.1318   -11.3708    -5.2197  C.ar    1  <O>11      -0.0401
   8 C5       -0.2135   -11.7086    -5.4038  C.ar    1  <O>11      -0.0582
   9 C6       -1.2214   -10.8434    -4.9707  C.ar    1  <O>11      -0.0392
  10 C7       -0.8758    -9.6382    -4.3494  C.ar    1  <O>11       0.0498
  11 N3       -1.9188    -8.7498    -3.9027  N.pl3   1  <O>11      -0.2160
  12 S1       -2.5267    -8.8949    -2.3730  S.O2    1  <O>11       0.0780
  13 O2       -3.7061    -7.7507    -2.1346  O.2     1  <O>11      -0.1498
  14 O3       -1.3070    -8.6711    -1.2689  O.2     1  <O>11      -0.1498
  15 C8       -3.2205   -10.5098    -2.1661  C.ar    1  <O>11       0.1843
  16 C9       -4.2761   -10.9392    -2.9893  C.ar    1  <O>11       0.1907
  17 F1       -4.7597   -10.1054    -3.9651  F       1  <O>11      -0.2002
  18 C10      -4.8308   -12.2110    -2.8188  C.ar    1  <O>11       0.1983
  19 F2       -5.8640   -12.6180    -3.6260  F       1  <O>11      -0.1993
  20 C11      -4.3382   -13.0670    -1.8292  C.ar    1  <O>11       0.1992
  21 F3       -4.8816   -14.3138    -1.6546  F       1  <O>11      -0.1993
  22 C12      -3.2832   -12.6421    -1.0143  C.ar    1  <O>11       0.1983
  23 F4       -2.8042   -13.4849    -0.0470  F       1  <O>11      -0.1993
  24 C13      -2.7225   -11.3755    -1.1782  C.ar    1  <O>11       0.1907
  25 F5       -1.6841   -10.9612    -0.3850  F       1  <O>11      -0.2002
  26 C14       0.4631    -9.2932    -4.1599  C.ar    1  <O>11      -0.0178
  27 H1        2.8015    -8.8851    -6.2815  H       1  <O>11       0.0433
  28 H2        4.3281    -9.6772    -5.8227  H       1  <O>11       0.0433
  29 H3        3.8487    -8.1500    -5.0440  H       1  <O>11       0.0433
  30 H4        5.2680   -10.1500    -2.2830  H       1  <O>11       0.1465
  31 H5        5.2650    -9.3480    -3.8570  H       1  <O>11       0.1465
  32 H6       -2.2817    -8.0333    -4.5302  H       1  <O>11       0.1737
  33 H7        1.8759   -12.0117    -5.5368  H       1  <O>11       0.0636
  34 H8       -0.4620   -12.5997    -5.8611  H       1  <O>11       0.0619
  35 H9       -2.2137   -11.0914    -5.1080  H       1  <O>11       0.0636
  36 H10       0.7121    -8.4055    -3.6962  H       1  <O>11       0.0655
@<TRIPOS>BOND
     1     1     2    1
     2     2     3   am
     3     3     4   am
     4     3     5    2
     5     2     6    1
     6     6     7   ar
     7     7     8   ar
     8     8     9   ar
     9     9    10   ar
    10    10    11    1
    11    11    12    1
    12    12    13    2
    13    12    14    2
    14    12    15    1
    15    15    16   ar
    16    16    17    1
    17    16    18   ar
    18    18    19    1
    19    18    20   ar
    20    20    21    1
    21    20    22   ar
    22    22    23    1
    23    22    24   ar
    24    15    24   ar
    25    24    25    1
    26    10    26   ar
    27     6    26   ar
    28     1    27    1
    29     1    28    1
    30     1    29    1
    31     4    30    1
    32     4    31    1
    33    11    32    1
    34     7    33    1
    35     8    34    1
    36     9    35    1
    37    26    36    1
@<TRIPOS>MOLECULE
mol84_2_4
 36 37 0 0 0
SMALL
USER_CHARGES
****
VDW energy = -322.55
@<TRIPOS>ATOM
   1 C1        3.4850    -9.0906    -5.4577  C.3     1  <O>11       0.0098
   2 N1        2.7955    -9.8278    -4.4362  N.am    1  <O>11      -0.2587
   3 C2        3.4570   -10.2010    -3.2970  C.2     1  <O>11       0.3037
   4 N2        4.7750    -9.8720    -3.1320  N.am    1  <O>11      -0.3129
   5 O1        2.8700   -10.8280    -2.4280  O.2     1  <O>11      -0.2525
   6 C3        1.4620   -10.1610    -4.6040  C.ar    1  <O>11       0.0392
   7 C4        1.1318   -11.3708    -5.2197  C.ar    1  <O>11      -0.0401
   8 C5       -0.2135   -11.7086    -5.4038  C.ar    1  <O>11      -0.0582
   9 C6       -1.2214   -10.8434    -4.9707  C.ar    1  <O>11      -0.0392
  10 C7       -0.8758    -9.6382    -4.3494  C.ar    1  <O>11       0.0498
  11 N3       -1.9188    -8.7498    -3.9027  N.pl3   1  <O>11      -0.2160
  12 S1       -2.9107    -8.0218    -5.0056  S.O2    1  <O>11       0.0780
  13 O2       -3.7188    -9.1825    -5.8753  O.2     1  <O>11      -0.1498
  14 O3       -2.0024    -7.0897    -6.0367  O.2     1  <O>11      -0.1498
  15 C8       -4.0797    -6.9972    -4.1597  C.ar    1  <O>11       0.1843
  16 C9       -3.7402    -6.3950    -2.9356  C.ar    1  <O>11       0.1907
  17 F1       -2.4917    -6.5937    -2.4034  F       1  <O>11      -0.2002
  18 C10      -4.6673    -5.5941    -2.2626  C.ar    1  <O>11       0.1983
  19 F2       -4.3259    -5.0144    -1.0659  F       1  <O>11      -0.1993
  20 C11      -5.9396    -5.3840    -2.8030  C.ar    1  <O>11       0.1992
  21 F3       -6.8546    -4.6031    -2.1448  F       1  <O>11      -0.1993
  22 C12      -6.2752    -5.9780    -4.0245  C.ar    1  <O>11       0.1983
  23 F4       -7.5225    -5.7682    -4.5497  F       1  <O>11      -0.1993
  24 C13      -5.3559    -6.7773    -4.7039  C.ar    1  <O>11       0.1907
  25 F5       -5.6816    -7.3538    -5.9042  F       1  <O>11      -0.2002
  26 C14       0.4631    -9.2932    -4.1599  C.ar    1  <O>11      -0.0178
  27 H1        2.8015    -8.8851    -6.2815  H       1  <O>11       0.0433
  28 H2        4.3281    -9.6772    -5.8227  H       1  <O>11       0.0433
  29 H3        3.8487    -8.1500    -5.0440  H       1  <O>11       0.0433
  30 H4        5.2680   -10.1500    -2.2830  H       1  <O>11       0.1465
  31 H5        5.2650    -9.3480    -3.8570  H       1  <O>11       0.1465
  32 H6       -2.0436    -8.5701    -2.9071  H       1  <O>11       0.1737
  33 H7        1.8759   -12.0117    -5.5368  H       1  <O>11       0.0636
  34 H8       -0.4620   -12.5997    -5.8611  H       1  <O>11       0.0619
  35 H9       -2.2137   -11.0914    -5.1080  H       1  <O>11       0.0636
  36 H10       0.7121    -8.4055    -3.6962  H       1  <O>11       0.0655
@<TRIPOS>BOND
     1     1     2    1
     2     2     3   am
     3     3     4   am
     4     3     5    2
     5     2     6    1
     6     6     7   ar
     7     7     8   ar
     8     8     9   ar
     9     9    10   ar
    10    10    11    1
    11    11    12    1
    12    12    13    2
    13    12    14    2
    14    12    15    1
    15    15    16   ar
    16    16    17    1
    17    16    18   ar
    18    18    19    1
    19    18    20   ar
    20    20    21    1
    21    20    22   ar
    22    22    23    1
    23    22    24   ar
    24    15    24   ar
    25    24    25    1
    26    10    26   ar
    27     6    26   ar
    28     1    27    1
    29     1    28    1
    30     1    29    1
    31     4    30    1
    32     4    31    1
    33    11    32    1
    34     7    33    1
    35     8    34    1
    36     9    35    1
    37    26    36    1
@<TRIPOS>MOLECULE
mol84_2_5
 36 37 0 0 0
SMALL
USER_CHARGES
****
VDW energy = -322.44
@<TRIPOS>ATOM
   1 C1        3.4850    -9.0906    -5.4577  C.3     1  <O>11       0.0098
   2 N1        2.7955    -9.8278    -4.4362  N.am    1  <O>11      -0.2587
   3 C2        3.4570   -10.2010    -3.2970  C.2     1  <O>11       0.3037
   4 N2        4.7750    -9.8720    -3.1320  N.am    1  <O>11      -0.3129
   5 O1        2.8700   -10.8280    -2.4280  O.2     1  <O>11      -0.2525
   6 C3        1.4620   -10.1610    -4.6040  C.ar    1  <O>11       0.0392
   7 C4        1.1318   -11.3708    -5.2197  C.ar    1  <O>11      -0.0401
   8 C5       -0.2135   -11.7086    -5.4038  C.ar    1  <O>11      -0.0582
   9 C6       -1.2214   -10.8434    -4.9707  C.ar    1  <O>11      -0.0392
  10 C7       -0.8758    -9.6382    -4.3494  C.ar    1  <O>11       0.0498
  11 N3       -1.9188    -8.7498    -3.9027  N.pl3   1  <O>11      -0.2160
  12 S1       -2.9107    -8.0218    -5.0056  S.O2    1  <O>11       0.0780
  13 O2       -3.7188    -9.1825    -5.8753  O.2     1  <O>11      -0.1498
  14 O3       -2.0024    -7.0897    -6.0367  O.2     1  <O>11      -0.1498
  15 C8       -4.0797    -6.9972    -4.1597  C.ar    1  <O>11       0.1843
  16 C9       -5.3565    -6.7780    -4.7056  C.ar    1  <O>11       0.1907
  17 F1       -5.6995    -7.3728    -5.8930  F       1  <O>11      -0.2002
  18 C10      -6.2761    -5.9603    -4.0424  C.ar    1  <O>11       0.1983
  19 F2       -7.5186    -5.7503    -4.5870  F       1  <O>11      -0.1993
  20 C11      -5.9336    -5.3556    -2.8292  C.ar    1  <O>11       0.1992
  21 F3       -6.8301    -4.5489    -2.1766  F       1  <O>11      -0.1993
  22 C12      -4.6652    -5.5791    -2.2826  C.ar    1  <O>11       0.1983
  23 F4       -4.3353    -4.9849    -1.0937  F       1  <O>11      -0.1993
  24 C13      -3.7418    -6.3947    -2.9365  C.ar    1  <O>11       0.1907
  25 F5       -2.5014    -6.6199    -2.3981  F       1  <O>11      -0.2002
  26 C14       0.4631    -9.2932    -4.1599  C.ar    1  <O>11      -0.0178
  27 H1        2.8015    -8.8851    -6.2815  H       1  <O>11       0.0433
  28 H2        4.3281    -9.6772    -5.8227  H       1  <O>11       0.0433
  29 H3        3.8487    -8.1500    -5.0440  H       1  <O>11       0.0433
  30 H4        5.2680   -10.1500    -2.2830  H       1  <O>11       0.1465
  31 H5        5.2650    -9.3480    -3.8570  H       1  <O>11       0.1465
  32 H6       -2.0436    -8.5701    -2.9071  H       1  <O>11       0.1737
  33 H7        1.8759   -12.0117    -5.5368  H       1  <O>11       0.0636
  34 H8       -0.4620   -12.5997    -5.8611  H       1  <O>11       0.0619
  35 H9       -2.2137   -11.0914    -5.1080  H       1  <O>11       0.0636
  36 H10       0.7121    -8.4055    -3.6962  H       1  <O>11       0.0655
@<TRIPOS>BOND
     1     1     2    1
     2     2     3   am
     3     3     4   am
     4     3     5    2
     5     2     6    1
     6     6     7   ar
     7     7     8   ar
     8     8     9   ar
     9     9    10   ar
    10    10    11    1
    11    11    12    1
    12    12    13    2
    13    12    14    2
    14    12    15    1
    15    15    16   ar
    16    16    17    1
    17    16    18   ar
    18    18    19    1
    19    18    20   ar
    20    20    21    1
    21    20    22   ar
    22    22    23    1
    23    22    24   ar
    24    15    24   ar
    25    24    25    1
    26    10    26   ar
    27     6    26   ar
    28     1    27    1
    29     1    28    1
    30     1    29    1
    31     4    30    1
    32     4    31    1
    33    11    32    1
    34     7    33    1
    35     8    34    1
    36     9    35    1
    37    26    36    1
@<TRIPOS>MOLECULE
mol84_2_6
 36 37 0 0 0
SMALL
USER_CHARGES
****
VDW energy = -321.99
@<TRIPOS>ATOM
   1 C1        3.4850    -9.0906    -5.4577  C.3     1  <O>11       0.0098
   2 N1        2.7955    -9.8278    -4.4362  N.am    1  <O>11      -0.2587
   3 C2        3.4570   -10.2010    -3.2970  C.2     1  <O>11       0.3037
   4 N2        4.7750    -9.8720    -3.1320  N.am    1  <O>11      -0.3129
   5 O1        2.8700   -10.8280    -2.4280  O.2     1  <O>11      -0.2525
   6 C3        1.4620   -10.1610    -4.6040  C.ar    1  <O>11       0.0392
   7 C4        1.1318   -11.3708    -5.2197  C.ar    1  <O>11      -0.0401
   8 C5       -0.2135   -11.7086    -5.4038  C.ar    1  <O>11      -0.0582
   9 C6       -1.2214   -10.8434    -4.9707  C.ar    1  <O>11      -0.0392
  10 C7       -0.8758    -9.6382    -4.3494  C.ar    1  <O>11       0.0498
  11 N3       -1.9188    -8.7498    -3.9027  N.pl3   1  <O>11      -0.2160
  12 S1       -2.9107    -8.0218    -5.0056  S.O2    1  <O>11       0.0780
  13 O2       -3.7188    -9.1825    -5.8753  O.2     1  <O>11      -0.1498
  14 O3       -2.0024    -7.0897    -6.0367  O.2     1  <O>11      -0.1498
  15 C8       -4.0797    -6.9972    -4.1597  C.ar    1  <O>11       0.1843
  16 C9       -4.9692    -7.5574    -3.2263  C.ar    1  <O>11       0.1907
  17 F1       -4.9196    -8.9025    -2.9625  F       1  <O>11      -0.2002
  18 C10      -5.8995    -6.7496    -2.5659  C.ar    1  <O>11       0.1983
  19 F2       -6.7658    -7.3084    -1.6593  F       1  <O>11      -0.1993
  20 C11      -5.9510    -5.3770    -2.8272  C.ar    1  <O>11       0.1992
  21 F3       -6.8645    -4.5807    -2.1857  F       1  <O>11      -0.1993
  22 C12      -5.0612    -4.8184    -3.7513  C.ar    1  <O>11       0.1983
  23 F4       -5.1156    -3.4734    -4.0028  F       1  <O>11      -0.1993
  24 C13      -4.1286    -5.6165    -4.4137  C.ar    1  <O>11       0.1907
  25 F5       -3.2518    -5.0687    -5.3139  F       1  <O>11      -0.2002
  26 C14       0.4631    -9.2932    -4.1599  C.ar    1  <O>11      -0.0178
  27 H1        2.8015    -8.8851    -6.2815  H       1  <O>11       0.0433
  28 H2        4.3281    -9.6772    -5.8227  H       1  <O>11       0.0433
  29 H3        3.8487    -8.1500    -5.0440  H       1  <O>11       0.0433
  30 H4        5.2680   -10.1500    -2.2830  H       1  <O>11       0.1465
  31 H5        5.2650    -9.3480    -3.8570  H       1  <O>11       0.1465
  32 H6       -2.0436    -8.5701    -2.9071  H       1  <O>11       0.1737
  33 H7        1.8759   -12.0117    -5.5368  H       1  <O>11       0.0636
  34 H8       -0.4620   -12.5997    -5.8611  H       1  <O>11       0.0619
  35 H9       -2.2137   -11.0914    -5.1080  H       1  <O>11       0.0636
  36 H10       0.7121    -8.4055    -3.6962  H       1  <O>11       0.0655
@<TRIPOS>BOND
     1     1     2    1
     2     2     3   am
     3     3     4   am
     4     3     5    2
     5     2     6    1
     6     6     7   ar
     7     7     8   ar
     8     8     9   ar
     9     9    10   ar
    10    10    11    1
    11    11    12    1
    12    12    13    2
    13    12    14    2
    14    12    15    1
    15    15    16   ar
    16    16    17    1
    17    16    18   ar
    18    18    19    1
    19    18    20   ar
    20    20    21    1
    21    20    22   ar
    22    22    23    1
    23    22    24   ar
    24    15    24   ar
    25    24    25    1
    26    10    26   ar
    27     6    26   ar
    28     1    27    1
    29     1    28    1
    30     1    29    1
    31     4    30    1
    32     4    31    1
    33    11    32    1
    34     7    33    1
    35     8    34    1
    36     9    35    1
    37    26    36    1
@<TRIPOS>MOLECULE
mol84_2_7
 36 37 0 0 0
SMALL
USER_CHARGES
****
VDW energy = -321.88
@<TRIPOS>ATOM
   1 C1        3.4850    -9.0906    -5.4577  C.3     1  <O>11       0.0098
   2 N1        2.7955    -9.8278    -4.4362  N.am    1  <O>11      -0.2587
   3 C2        3.4570   -10.2010    -3.2970  C.2     1  <O>11       0.3037
   4 N2        4.7750    -9.8720    -3.1320  N.am    1  <O>11      -0.3129
   5 O1        2.8700   -10.8280    -2.4280  O.2     1  <O>11      -0.2525
   6 C3        1.4620   -10.1610    -4.6040  C.ar    1  <O>11       0.0392
   7 C4        1.1318   -11.3708    -5.2197  C.ar    1  <O>11      -0.0401
   8 C5       -0.2135   -11.7086    -5.4038  C.ar    1  <O>11      -0.0582
   9 C6       -1.2214   -10.8434    -4.9707  C.ar    1  <O>11      -0.0392
  10 C7       -0.8758    -9.6382    -4.3494  C.ar    1  <O>11       0.0498
  11 N3       -1.9188    -8.7498    -3.9027  N.pl3   1  <O>11      -0.2160
  12 S1       -2.9107    -8.0218    -5.0056  S.O2    1  <O>11       0.0780
  13 O2       -3.7188    -9.1825    -5.8753  O.2     1  <O>11      -0.1498
  14 O3       -2.0024    -7.0897    -6.0367  O.2     1  <O>11      -0.1498
  15 C8       -4.0797    -6.9972    -4.1597  C.ar    1  <O>11       0.1843
  16 C9       -3.6380    -5.9352    -3.3514  C.ar    1  <O>11       0.1907
  17 F1       -2.2946    -5.6863    -3.2301  F       1  <O>11      -0.2002
  18 C10      -4.5613    -5.1325    -2.6751  C.ar    1  <O>11       0.1983
  19 F2       -4.1181    -4.1007    -1.8854  F       1  <O>11      -0.1993
  20 C11      -5.9320    -5.3785    -2.7992  C.ar    1  <O>11       0.1992
  21 F3       -6.8418    -4.5971    -2.1345  F       1  <O>11      -0.1993
  22 C12      -6.3719    -6.4313    -3.6090  C.ar    1  <O>11       0.1983
  23 F4       -7.7156    -6.6673    -3.7275  F       1  <O>11      -0.1993
  24 C13      -5.4579    -7.2364    -4.2887  C.ar    1  <O>11       0.1907
  25 F5       -5.8884    -8.2636    -5.0879  F       1  <O>11      -0.2002
  26 C14       0.4631    -9.2932    -4.1599  C.ar    1  <O>11      -0.0178
  27 H1        2.8015    -8.8851    -6.2815  H       1  <O>11       0.0433
  28 H2        4.3281    -9.6772    -5.8227  H       1  <O>11       0.0433
  29 H3        3.8487    -8.1500    -5.0440  H       1  <O>11       0.0433
  30 H4        5.2680   -10.1500    -2.2830  H       1  <O>11       0.1465
  31 H5        5.2650    -9.3480    -3.8570  H       1  <O>11       0.1465
  32 H6       -2.0436    -8.5701    -2.9071  H       1  <O>11       0.1737
  33 H7        1.8759   -12.0117    -5.5368  H       1  <O>11       0.0636
  34 H8       -0.4620   -12.5997    -5.8611  H       1  <O>11       0.0619
  35 H9       -2.2137   -11.0914    -5.1080  H       1  <O>11       0.0636
  36 H10       0.7121    -8.4055    -3.6962  H       1  <O>11       0.0655
@<TRIPOS>BOND
     1     1     2    1
     2     2     3   am
     3     3     4   am
     4     3     5    2
     5     2     6    1
     6     6     7   ar
     7     7     8   ar
     8     8     9   ar
     9     9    10   ar
    10    10    11    1
    11    11    12    1
    12    12    13    2
    13    12    14    2
    14    12    15    1
    15    15    16   ar
    16    16    17    1
    17    16    18   ar
    18    18    19    1
    19    18    20   ar
    20    20    21    1
    21    20    22   ar
    22    22    23    1
    23    22    24   ar
    24    15    24   ar
    25    24    25    1
    26    10    26   ar
    27     6    26   ar
    28     1    27    1
    29     1    28    1
    30     1    29    1
    31     4    30    1
    32     4    31    1
    33    11    32    1
    34     7    33    1
    35     8    34    1
    36     9    35    1
    37    26    36    1
@<TRIPOS>MOLECULE
mol84_2_8
 36 37 0 0 0
SMALL
USER_CHARGES
****
VDW energy = -321.03
@<TRIPOS>ATOM
   1 C1        3.4850    -9.0906    -5.4577  C.3     1  <O>11       0.0098
   2 N1        2.7955    -9.8278    -4.4362  N.am    1  <O>11      -0.2587
   3 C2        3.4570   -10.2010    -3.2970  C.2     1  <O>11       0.3037
   4 N2        4.7750    -9.8720    -3.1320  N.am    1  <O>11      -0.3129
   5 O1        2.8700   -10.8280    -2.4280  O.2     1  <O>11      -0.2525
   6 C3        1.4620   -10.1610    -4.6040  C.ar    1  <O>11       0.0392
   7 C4        1.1318   -11.3708    -5.2197  C.ar    1  <O>11      -0.0401
   8 C5       -0.2135   -11.7086    -5.4038  C.ar    1  <O>11      -0.0582
   9 C6       -1.2214   -10.8434    -4.9707  C.ar    1  <O>11      -0.0392
  10 C7       -0.8758    -9.6382    -4.3494  C.ar    1  <O>11       0.0498
  11 N3       -1.9188    -8.7498    -3.9027  N.pl3   1  <O>11      -0.2160
  12 S1       -1.5277    -7.3232    -3.1662  S.O2    1  <O>11       0.0780
  13 O2       -2.9173    -6.5096    -2.7613  O.2     1  <O>11      -0.1498
  14 O3       -0.6245    -6.3937    -4.2041  O.2     1  <O>11      -0.1498
  15 C8       -0.5895    -7.6541    -1.7026  C.ar    1  <O>11       0.1843
  16 C9       -1.1411    -8.4271    -0.6660  C.ar    1  <O>11       0.1907
  17 F1       -2.4077    -8.9367    -0.7980  F       1  <O>11      -0.2002
  18 C10      -0.4037    -8.6797     0.4943  C.ar    1  <O>11       0.1983
  19 F2       -0.9542    -9.4326     1.5017  F       1  <O>11      -0.1993
  20 C11       0.8898    -8.1670     0.6320  C.ar    1  <O>11       0.1992
  21 F3        1.6159    -8.4078     1.7700  F       1  <O>11      -0.1993
  22 C12       1.4413    -7.4033    -0.4025  C.ar    1  <O>11       0.1983
  23 F4        2.7088    -6.9042    -0.2626  F       1  <O>11      -0.1993
  24 C13       0.7134    -7.1475    -1.5645  C.ar    1  <O>11       0.1907
  25 F5        1.2557    -6.4053    -2.5815  F       1  <O>11      -0.2002
  26 C14       0.4631    -9.2932    -4.1599  C.ar    1  <O>11      -0.0178
  27 H1        2.8015    -8.8851    -6.2815  H       1  <O>11       0.0433
  28 H2        4.3281    -9.6772    -5.8227  H       1  <O>11       0.0433
  29 H3        3.8487    -8.1500    -5.0440  H       1  <O>11       0.0433
  30 H4        5.2680   -10.1500    -2.2830  H       1  <O>11       0.1465
  31 H5        5.2650    -9.3480    -3.8570  H       1  <O>11       0.1465
  32 H6       -2.8968    -9.0020    -4.0400  H       1  <O>11       0.1737
  33 H7        1.8759   -12.0117    -5.5368  H       1  <O>11       0.0636
  34 H8       -0.4620   -12.5997    -5.8611  H       1  <O>11       0.0619
  35 H9       -2.2137   -11.0914    -5.1080  H       1  <O>11       0.0636
  36 H10       0.7121    -8.4055    -3.6962  H       1  <O>11       0.0655
@<TRIPOS>BOND
     1     1     2    1
     2     2     3   am
     3     3     4   am
     4     3     5    2
     5     2     6    1
     6     6     7   ar
     7     7     8   ar
     8     8     9   ar
     9     9    10   ar
    10    10    11    1
    11    11    12    1
    12    12    13    2
    13    12    14    2
    14    12    15    1
    15    15    16   ar
    16    16    17    1
    17    16    18   ar
    18    18    19    1
    19    18    20   ar
    20    20    21    1
    21    20    22   ar
    22    22    23    1
    23    22    24   ar
    24    15    24   ar
    25    24    25    1
    26    10    26   ar
    27     6    26   ar
    28     1    27    1
    29     1    28    1
    30     1    29    1
    31     4    30    1
    32     4    31    1
    33    11    32    1
    34     7    33    1
    35     8    34    1
    36     9    35    1
    37    26    36    1
@<TRIPOS>MOLECULE
mol84_2_9
 36 37 0 0 0
SMALL
USER_CHARGES
****
VDW energy = -320.78
@<TRIPOS>ATOM
   1 C1        3.4850    -9.0906    -5.4577  C.3     1  <O>11       0.0098
   2 N1        2.7955    -9.8278    -4.4362  N.am    1  <O>11      -0.2587
   3 C2        3.4570   -10.2010    -3.2970  C.2     1  <O>11       0.3037
   4 N2        4.7750    -9.8720    -3.1320  N.am    1  <O>11      -0.3129
   5 O1        2.8700   -10.8280    -2.4280  O.2     1  <O>11      -0.2525
   6 C3        1.4620   -10.1610    -4.6040  C.ar    1  <O>11       0.0392
   7 C4        0.4754    -9.2802    -4.1540  C.ar    1  <O>11      -0.0401
   8 C5       -0.8741    -9.6158    -4.3090  C.ar    1  <O>11      -0.0582
   9 C6       -1.2337   -10.8227    -4.9142  C.ar    1  <O>11      -0.0392
  10 C7       -0.2347   -11.6918    -5.3662  C.ar    1  <O>11       0.0498
  11 N3       -0.6102   -12.9347    -5.9915  N.pl3   1  <O>11      -0.2160
  12 S1       -1.3781   -14.1025    -5.1100  S.O2    1  <O>11       0.0780
  13 O2       -1.6876   -15.4147    -6.0792  O.2     1  <O>11      -0.1498
  14 O3       -2.8087   -13.5002    -4.5204  O.2     1  <O>11      -0.1498
  15 C8       -0.3451   -14.5958    -3.7604  C.ar    1  <O>11       0.1843
  16 C9        0.0584   -13.6564    -2.7956  C.ar    1  <O>11       0.1907
  17 F1       -0.3629   -12.3549    -2.8962  F       1  <O>11      -0.2002
  18 C10       0.8828   -14.0441    -1.7354  C.ar    1  <O>11       0.1983
  19 F2        1.2737   -13.1170    -0.8013  F       1  <O>11      -0.1993
  20 C11       1.3109   -15.3705    -1.6251  C.ar    1  <O>11       0.1992
  21 F3        2.1234   -15.7554    -0.5897  F       1  <O>11      -0.1993
  22 C12       0.9039   -16.3070    -2.5817  C.ar    1  <O>11       0.1983
  23 F4        1.3256   -17.6049    -2.4685  F       1  <O>11      -0.1993
  24 C13       0.0801   -15.9294    -3.6421  C.ar    1  <O>11       0.1907
  25 F5       -0.3249   -16.8479    -4.5757  F       1  <O>11      -0.2002
  26 C14       1.1140   -11.3653    -5.2175  C.ar    1  <O>11      -0.0178
  27 H1        2.8015    -8.8851    -6.2815  H       1  <O>11       0.0433
  28 H2        4.3281    -9.6772    -5.8227  H       1  <O>11       0.0433
  29 H3        3.8487    -8.1500    -5.0440  H       1  <O>11       0.0433
  30 H4        5.2680   -10.1500    -2.2830  H       1  <O>11       0.1465
  31 H5        5.2650    -9.3480    -3.8570  H       1  <O>11       0.1465
  32 H6       -0.4013   -13.0934    -6.9765  H       1  <O>11       0.1737
  33 H7        0.7404    -8.3872    -3.7099  H       1  <O>11       0.0636
  34 H8       -1.6063    -8.9698    -3.9751  H       1  <O>11       0.0619
  35 H9       -2.2289   -11.0713    -5.0270  H       1  <O>11       0.0636
  36 H10       1.8465   -12.0078    -5.5578  H       1  <O>11       0.0655
@<TRIPOS>BOND
     1     1     2    1
     2     2     3   am
     3     3     4   am
     4     3     5    2
     5     2     6    1
     6     6     7   ar
     7     7     8   ar
     8     8     9   ar
     9     9    10   ar
    10    10    11    1
    11    11    12    1
    12    12    13    2
    13    12    14    2
    14    12    15    1
    15    15    16   ar
    16    16    17    1
    17    16    18   ar
    18    18    19    1
    19    18    20   ar
    20    20    21    1
    21    20    22   ar
    22    22    23    1
    23    22    24   ar
    24    15    24   ar
    25    24    25    1
    26    10    26   ar
    27     6    26   ar
    28     1    27    1
    29     1    28    1
    30     1    29    1
    31     4    30    1
    32     4    31    1
    33    11    32    1
    34     7    33    1
    35     8    34    1
    36     9    35    1
    37    26    36    1
@<TRIPOS>MOLECULE
mol84_2_10
 36 37 0 0 0
SMALL
USER_CHARGES
****
VDW energy = -320.38
@<TRIPOS>ATOM
   1 C1        3.4850    -9.0906    -5.4577  C.3     1  <O>11       0.0098
   2 N1        2.7955    -9.8278    -4.4362  N.am    1  <O>11      -0.2587
   3 C2        3.4570   -10.2010    -3.2970  C.2     1  <O>11       0.3037
   4 N2        2.8005   -10.9036    -2.3234  N.am    1  <O>11      -0.3129
   5 O1        4.6336    -9.9062    -3.1501  O.2     1  <O>11      -0.2525
   6 C3        1.4620   -10.1610    -4.6040  C.ar    1  <O>11       0.0392
   7 C4        0.4754    -9.2802    -4.1540  C.ar    1  <O>11      -0.0401
   8 C5       -0.8741    -9.6158    -4.3090  C.ar    1  <O>11      -0.0582
   9 C6       -1.2337   -10.8227    -4.9142  C.ar    1  <O>11      -0.0392
  10 C7       -0.2347   -11.6918    -5.3662  C.ar    1  <O>11       0.0498
  11 N3       -0.6102   -12.9347    -5.9915  N.pl3   1  <O>11      -0.2160
  12 S1       -1.3781   -14.1025    -5.1100  S.O2    1  <O>11       0.0780
  13 O2       -2.8099   -13.5014    -4.5222  O.2     1  <O>11      -0.1498
  14 O3       -0.4104   -14.5658    -3.8428  O.2     1  <O>11      -0.1498
  15 C8       -1.7052   -15.5009    -6.1442  C.ar    1  <O>11       0.1843
  16 C9       -2.5074   -15.3634    -7.2904  C.ar    1  <O>11       0.1907
  17 F1       -3.0268   -14.1357    -7.6134  F       1  <O>11      -0.2002
  18 C10      -2.7740   -16.4703    -8.1014  C.ar    1  <O>11       0.1983
  19 F2       -3.5620   -16.3248    -9.2162  F       1  <O>11      -0.1993
  20 C11      -2.2429   -17.7230    -7.7798  C.ar    1  <O>11       0.1992
  21 F3       -2.5050   -18.8131    -8.5693  F       1  <O>11      -0.1993
  22 C12      -1.4391   -17.8585    -6.6426  C.ar    1  <O>11       0.1983
  23 F4       -0.9209   -19.0876    -6.3327  F       1  <O>11      -0.1993
  24 C13      -1.1664   -16.7592    -5.8285  C.ar    1  <O>11       0.1907
  25 F5       -0.3731   -16.8897    -4.7181  F       1  <O>11      -0.2002
  26 C14       1.1140   -11.3653    -5.2175  C.ar    1  <O>11      -0.0178
  27 H1        2.8015    -8.8851    -6.2815  H       1  <O>11       0.0433
  28 H2        4.3281    -9.6772    -5.8227  H       1  <O>11       0.0433
  29 H3        3.8487    -8.1500    -5.0440  H       1  <O>11       0.0433
  30 H4        3.2934   -11.1819    -1.4745  H       1  <O>11       0.1465
  31 H5        1.8185   -11.1504    -2.4462  H       1  <O>11       0.1465
  32 H6       -0.4013   -13.0934    -6.9765  H       1  <O>11       0.1737
  33 H7        0.7404    -8.3872    -3.7099  H       1  <O>11       0.0636
  34 H8       -1.6063    -8.9698    -3.9751  H       1  <O>11       0.0619
  35 H9       -2.2289   -11.0713    -5.0270  H       1  <O>11       0.0636
  36 H10       1.8465   -12.0078    -5.5578  H       1  <O>11       0.0655
@<TRIPOS>BOND
     1     1     2    1
     2     2     3   am
     3     3     4   am
     4     3     5    2
     5     2     6    1
     6     6     7   ar
     7     7     8   ar
     8     8     9   ar
     9     9    10   ar
    10    10    11    1
    11    11    12    1
    12    12    13    2
    13    12    14    2
    14    12    15    1
    15    15    16   ar
    16    16    17    1
    17    16    18   ar
    18    18    19    1
    19    18    20   ar
    20    20    21    1
    21    20    22   ar
    22    22    23    1
    23    22    24   ar
    24    15    24   ar
    25    24    25    1
    26    10    26   ar
    27     6    26   ar
    28     1    27    1
    29     1    28    1
    30     1    29    1
    31     4    30    1
    32     4    31    1
    33    11    32    1
    34     7    33    1
    35     8    34    1
    36     9    35    1
    37    26    36    1
@<TRIPOS>MOLECULE
mol84_2_11
 36 37 0 0 0
SMALL
USER_CHARGES
****
VDW energy = -320.36
@<TRIPOS>ATOM
   1 C1        3.4850    -9.0906    -5.4577  C.3     1  <O>11       0.0098
   2 N1        2.7955    -9.8278    -4.4362  N.am    1  <O>11      -0.2587
   3 C2        3.4570   -10.2010    -3.2970  C.2     1  <O>11       0.3037
   4 N2        4.7750    -9.8720    -3.1320  N.am    1  <O>11      -0.3129
   5 O1        2.8700   -10.8280    -2.4280  O.2     1  <O>11      -0.2525
   6 C3        1.4620   -10.1610    -4.6040  C.ar    1  <O>11       0.0392
   7 C4        1.1318   -11.3708    -5.2197  C.ar    1  <O>11      -0.0401
   8 C5       -0.2135   -11.7086    -5.4038  C.ar    1  <O>11      -0.0582
   9 C6       -1.2214   -10.8434    -4.9707  C.ar    1  <O>11      -0.0392
  10 C7       -0.8758    -9.6382    -4.3494  C.ar    1  <O>11       0.0498
  11 N3       -1.9188    -8.7498    -3.9027  N.pl3   1  <O>11      -0.2160
  12 S1       -2.5267    -8.8949    -2.3730  S.O2    1  <O>11       0.0780
  13 O2       -1.3078    -8.6688    -1.2685  O.2     1  <O>11      -0.1498
  14 O3       -3.1772   -10.4100    -2.1772  O.2     1  <O>11      -0.1498
  15 C8       -3.7849    -7.6760    -2.1216  C.ar    1  <O>11       0.1843
  16 C9       -4.0178    -7.1510    -0.8385  C.ar    1  <O>11       0.1907
  17 F1       -3.2560    -7.5780     0.2193  F       1  <O>11      -0.2002
  18 C10      -5.0185    -6.1958    -0.6384  C.ar    1  <O>11       0.1983
  19 F2       -5.2396    -5.6932     0.6199  F       1  <O>11      -0.1993
  20 C11      -5.7946    -5.7533    -1.7139  C.ar    1  <O>11       0.1992
  21 F3       -6.7807    -4.8199    -1.5225  F       1  <O>11      -0.1993
  22 C12      -5.5584    -6.2709    -2.9921  C.ar    1  <O>11       0.1983
  23 F4       -6.3210    -5.8334    -4.0421  F       1  <O>11      -0.1993
  24 C13      -4.5609    -7.2231    -3.2014  C.ar    1  <O>11       0.1907
  25 F5       -4.3241    -7.7254    -4.4548  F       1  <O>11      -0.2002
  26 C14       0.4631    -9.2932    -4.1599  C.ar    1  <O>11      -0.0178
  27 H1        2.8015    -8.8851    -6.2815  H       1  <O>11       0.0433
  28 H2        4.3281    -9.6772    -5.8227  H       1  <O>11       0.0433
  29 H3        3.8487    -8.1500    -5.0440  H       1  <O>11       0.0433
  30 H4        5.2680   -10.1500    -2.2830  H       1  <O>11       0.1465
  31 H5        5.2650    -9.3480    -3.8570  H       1  <O>11       0.1465
  32 H6       -2.2817    -8.0333    -4.5302  H       1  <O>11       0.1737
  33 H7        1.8759   -12.0117    -5.5368  H       1  <O>11       0.0636
  34 H8       -0.4620   -12.5997    -5.8611  H       1  <O>11       0.0619
  35 H9       -2.2137   -11.0914    -5.1080  H       1  <O>11       0.0636
  36 H10       0.7121    -8.4055    -3.6962  H       1  <O>11       0.0655
@<TRIPOS>BOND
     1     1     2    1
     2     2     3   am
     3     3     4   am
     4     3     5    2
     5     2     6    1
     6     6     7   ar
     7     7     8   ar
     8     8     9   ar
     9     9    10   ar
    10    10    11    1
    11    11    12    1
    12    12    13    2
    13    12    14    2
    14    12    15    1
    15    15    16   ar
    16    16    17    1
    17    16    18   ar
    18    18    19    1
    19    18    20   ar
    20    20    21    1
    21    20    22   ar
    22    22    23    1
    23    22    24   ar
    24    15    24   ar
    25    24    25    1
    26    10    26   ar
    27     6    26   ar
    28     1    27    1
    29     1    28    1
    30     1    29    1
    31     4    30    1
    32     4    31    1
    33    11    32    1
    34     7    33    1
    35     8    34    1
    36     9    35    1
    37    26    36    1
@<TRIPOS>MOLECULE
mol84_2_12
 36 37 0 0 0
SMALL
USER_CHARGES
****
VDW energy = -319.68
@<TRIPOS>ATOM
   1 C1        3.4850    -9.0906    -5.4577  C.3     1  <O>11       0.0098
   2 N1        2.7955    -9.8278    -4.4362  N.am    1  <O>11      -0.2587
   3 C2        3.4570   -10.2010    -3.2970  C.2     1  <O>11       0.3037
   4 N2        4.7750    -9.8720    -3.1320  N.am    1  <O>11      -0.3129
   5 O1        2.8700   -10.8280    -2.4280  O.2     1  <O>11      -0.2525
   6 C3        1.4620   -10.1610    -4.6040  C.ar    1  <O>11       0.0392
   7 C4        0.4754    -9.2802    -4.1540  C.ar    1  <O>11      -0.0401
   8 C5       -0.8741    -9.6158    -4.3090  C.ar    1  <O>11      -0.0582
   9 C6       -1.2337   -10.8227    -4.9142  C.ar    1  <O>11      -0.0392
  10 C7       -0.2347   -11.6918    -5.3662  C.ar    1  <O>11       0.0498
  11 N3       -0.6102   -12.9347    -5.9915  N.pl3   1  <O>11      -0.2160
  12 S1       -1.3781   -14.1025    -5.1100  S.O2    1  <O>11       0.0780
  13 O2       -2.8099   -13.5014    -4.5222  O.2     1  <O>11      -0.1498
  14 O3       -0.4104   -14.5658    -3.8428  O.2     1  <O>11      -0.1498
  15 C8       -1.7052   -15.5009    -6.1442  C.ar    1  <O>11       0.1843
  16 C9       -2.8224   -16.3183    -5.8995  C.ar    1  <O>11       0.1907
  17 F1       -3.6685   -16.0205    -4.8617  F       1  <O>11      -0.2002
  18 C10      -3.0748   -17.4288    -6.7102  C.ar    1  <O>11       0.1983
  19 F2       -4.1667   -18.2221    -6.4593  F       1  <O>11      -0.1993
  20 C11      -2.2186   -17.7340    -7.7726  C.ar    1  <O>11       0.1992
  21 F3       -2.4588   -18.8247    -8.5682  F       1  <O>11      -0.1993
  22 C12      -1.1103   -16.9166    -8.0201  C.ar    1  <O>11       0.1983
  23 F4       -0.2754   -17.2198    -9.0624  F       1  <O>11      -0.1993
  24 C13      -0.8516   -15.8056    -7.2174  C.ar    1  <O>11       0.1907
  25 F5        0.2300   -15.0003    -7.4637  F       1  <O>11      -0.2002
  26 C14       1.1140   -11.3653    -5.2175  C.ar    1  <O>11      -0.0178
  27 H1        2.8015    -8.8851    -6.2815  H       1  <O>11       0.0433
  28 H2        4.3281    -9.6772    -5.8227  H       1  <O>11       0.0433
  29 H3        3.8487    -8.1500    -5.0440  H       1  <O>11       0.0433
  30 H4        5.2680   -10.1500    -2.2830  H       1  <O>11       0.1465
  31 H5        5.2650    -9.3480    -3.8570  H       1  <O>11       0.1465
  32 H6       -0.4013   -13.0934    -6.9765  H       1  <O>11       0.1737
  33 H7        0.7404    -8.3872    -3.7099  H       1  <O>11       0.0636
  34 H8       -1.6063    -8.9698    -3.9751  H       1  <O>11       0.0619
  35 H9       -2.2289   -11.0713    -5.0270  H       1  <O>11       0.0636
  36 H10       1.8465   -12.0078    -5.5578  H       1  <O>11       0.0655
@<TRIPOS>BOND
     1     1     2    1
     2     2     3   am
     3     3     4   am
     4     3     5    2
     5     2     6    1
     6     6     7   ar
     7     7     8   ar
     8     8     9   ar
     9     9    10   ar
    10    10    11    1
    11    11    12    1
    12    12    13    2
    13    12    14    2
    14    12    15    1
    15    15    16   ar
    16    16    17    1
    17    16    18   ar
    18    18    19    1
    19    18    20   ar
    20    20    21    1
    21    20    22   ar
    22    22    23    1
    23    22    24   ar
    24    15    24   ar
    25    24    25    1
    26    10    26   ar
    27     6    26   ar
    28     1    27    1
    29     1    28    1
    30     1    29    1
    31     4    30    1
    32     4    31    1
    33    11    32    1
    34     7    33    1
    35     8    34    1
    36     9    35    1
    37    26    36    1
@<TRIPOS>MOLECULE
mol84_2_13
 36 37 0 0 0
SMALL
USER_CHARGES
****
VDW energy = -319.33
@<TRIPOS>ATOM
   1 C1        3.4850    -9.0906    -5.4577  C.3     1  <O>11       0.0098
   2 N1        2.7955    -9.8278    -4.4362  N.am    1  <O>11      -0.2587
   3 C2        3.4570   -10.2010    -3.2970  C.2     1  <O>11       0.3037
   4 N2        4.7750    -9.8720    -3.1320  N.am    1  <O>11      -0.3129
   5 O1        2.8700   -10.8280    -2.4280  O.2     1  <O>11      -0.2525
   6 C3        1.4620   -10.1610    -4.6040  C.ar    1  <O>11       0.0392
   7 C4        1.0871   -10.9543    -5.6911  C.ar    1  <O>11      -0.0401
   8 C5       -0.2602   -11.2848    -5.8741  C.ar    1  <O>11      -0.0582
   9 C6       -1.2250   -10.8280    -4.9726  C.ar    1  <O>11      -0.0392
  10 C7       -0.8339   -10.0400    -3.8846  C.ar    1  <O>11       0.0498
  11 N3       -1.8322    -9.5727    -2.9563  N.pl3   1  <O>11      -0.2160
  12 S1       -2.2221   -10.4858    -1.6354  S.O2    1  <O>11       0.0780
  13 O2       -3.3913    -9.7079    -0.7496  O.2     1  <O>11      -0.1498
  14 O3       -0.8707   -10.7058    -0.6961  O.2     1  <O>11      -0.1498
  15 C8       -2.8332   -12.0592    -2.1671  C.ar    1  <O>11       0.1843
  16 C9       -3.9778   -12.1380    -2.9795  C.ar    1  <O>11       0.1907
  17 F1       -4.6140   -10.9877    -3.3711  F       1  <O>11      -0.2002
  18 C10      -4.4663   -13.3815    -3.3909  C.ar    1  <O>11       0.1983
  19 F2       -5.5872   -13.4463    -4.1809  F       1  <O>11      -0.1993
  20 C11      -3.8187   -14.5570    -2.9989  C.ar    1  <O>11       0.1992
  21 F3       -4.2962   -15.7796    -3.3957  F       1  <O>11      -0.1993
  22 C12      -2.6757   -14.4783    -2.1958  C.ar    1  <O>11       0.1983
  23 F4       -2.0450   -15.6327    -1.8155  F       1  <O>11      -0.1993
  24 C13      -2.1802   -13.2418    -1.7820  C.ar    1  <O>11       0.1907
  25 F5       -1.0563   -13.1636    -1.0010  F       1  <O>11      -0.2002
  26 C14       0.5076    -9.7064    -3.6928  C.ar    1  <O>11      -0.0178
  27 H1        2.8015    -8.8851    -6.2815  H       1  <O>11       0.0433
  28 H2        4.3281    -9.6772    -5.8227  H       1  <O>11       0.0433
  29 H3        3.8487    -8.1500    -5.0440  H       1  <O>11       0.0433
  30 H4        5.2680   -10.1500    -2.2830  H       1  <O>11       0.1465
  31 H5        5.2650    -9.3480    -3.8570  H       1  <O>11       0.1465
  32 H6       -2.2981    -8.6801    -3.1153  H       1  <O>11       0.1737
  33 H7        1.7998   -11.2947    -6.3554  H       1  <O>11       0.0636
  34 H8       -0.5421   -11.8678    -6.6776  H       1  <O>11       0.0619
  35 H9       -2.2190   -11.0700    -5.1083  H       1  <O>11       0.0636
  36 H10       0.7909    -9.1293    -2.8854  H       1  <O>11       0.0655
@<TRIPOS>BOND
     1     1     2    1
     2     2     3   am
     3     3     4   am
     4     3     5    2
     5     2     6    1
     6     6     7   ar
     7     7     8   ar
     8     8     9   ar
     9     9    10   ar
    10    10    11    1
    11    11    12    1
    12    12    13    2
    13    12    14    2
    14    12    15    1
    15    15    16   ar
    16    16    17    1
    17    16    18   ar
    18    18    19    1
    19    18    20   ar
    20    20    21    1
    21    20    22   ar
    22    22    23    1
    23    22    24   ar
    24    15    24   ar
    25    24    25    1
    26    10    26   ar
    27     6    26   ar
    28     1    27    1
    29     1    28    1
    30     1    29    1
    31     4    30    1
    32     4    31    1
    33    11    32    1
    34     7    33    1
    35     8    34    1
    36     9    35    1
    37    26    36    1
@<TRIPOS>MOLECULE
mol84_2_14
 36 37 0 0 0
SMALL
USER_CHARGES
****
VDW energy = -319.19
@<TRIPOS>ATOM
   1 C1        3.4850    -9.0906    -5.4577  C.3     1  <O>11       0.0098
   2 N1        2.7955    -9.8278    -4.4362  N.am    1  <O>11      -0.2587
   3 C2        3.4570   -10.2010    -3.2970  C.2     1  <O>11       0.3037
   4 N2        4.7750    -9.8720    -3.1320  N.am    1  <O>11      -0.3129
   5 O1        2.8700   -10.8280    -2.4280  O.2     1  <O>11      -0.2525
   6 C3        1.4620   -10.1610    -4.6040  C.ar    1  <O>11       0.0392
   7 C4        1.0871   -10.9543    -5.6911  C.ar    1  <O>11      -0.0401
   8 C5       -0.2602   -11.2848    -5.8741  C.ar    1  <O>11      -0.0582
   9 C6       -1.2250   -10.8280    -4.9726  C.ar    1  <O>11      -0.0392
  10 C7       -0.8339   -10.0400    -3.8846  C.ar    1  <O>11       0.0498
  11 N3       -1.8322    -9.5727    -2.9563  N.pl3   1  <O>11      -0.2160
  12 S1       -2.9860    -8.5007    -3.4564  S.O2    1  <O>11       0.0780
  13 O2       -3.8701    -9.1736    -4.6902  O.2     1  <O>11      -0.1498
  14 O3       -2.2542    -7.1106    -3.9941  O.2     1  <O>11      -0.1498
  15 C8       -4.0589    -8.1165    -2.1025  C.ar    1  <O>11       0.1843
  16 C9       -3.5430    -7.5342    -0.9316  C.ar    1  <O>11       0.1907
  17 F1       -2.2035    -7.2515    -0.8462  F       1  <O>11      -0.2002
  18 C10      -4.3890    -7.2404     0.1417  C.ar    1  <O>11       0.1983
  19 F2       -3.8732    -6.6754     1.2816  F       1  <O>11      -0.1993
  20 C11      -5.7560    -7.5217     0.0581  C.ar    1  <O>11       0.1992
  21 F3       -6.5897    -7.2398     1.1096  F       1  <O>11      -0.1993
  22 C12      -6.2706    -8.0952    -1.1098  C.ar    1  <O>11       0.1983
  23 F4       -7.6104    -8.3679    -1.1866  F       1  <O>11      -0.1993
  24 C13      -5.4341    -8.3902    -2.1863  C.ar    1  <O>11       0.1907
  25 F5       -5.9387    -8.9456    -3.3336  F       1  <O>11      -0.2002
  26 C14       0.5076    -9.7064    -3.6928  C.ar    1  <O>11      -0.0178
  27 H1        2.8015    -8.8851    -6.2815  H       1  <O>11       0.0433
  28 H2        4.3281    -9.6772    -5.8227  H       1  <O>11       0.0433
  29 H3        3.8487    -8.1500    -5.0440  H       1  <O>11       0.0433
  30 H4        5.2680   -10.1500    -2.2830  H       1  <O>11       0.1465
  31 H5        5.2650    -9.3480    -3.8570  H       1  <O>11       0.1465
  32 H6       -1.8259    -9.9026    -1.9919  H       1  <O>11       0.1737
  33 H7        1.7998   -11.2947    -6.3554  H       1  <O>11       0.0636
  34 H8       -0.5421   -11.8678    -6.6776  H       1  <O>11       0.0619
  35 H9       -2.2190   -11.0700    -5.1083  H       1  <O>11       0.0636
  36 H10       0.7909    -9.1293    -2.8854  H       1  <O>11       0.0655
@<TRIPOS>BOND
     1     1     2    1
     2     2     3   am
     3     3     4   am
     4     3     5    2
     5     2     6    1
     6     6     7   ar
     7     7     8   ar
     8     8     9   ar
     9     9    10   ar
    10    10    11    1
    11    11    12    1
    12    12    13    2
    13    12    14    2
    14    12    15    1
    15    15    16   ar
    16    16    17    1
    17    16    18   ar
    18    18    19    1
    19    18    20   ar
    20    20    21    1
    21    20    22   ar
    22    22    23    1
    23    22    24   ar
    24    15    24   ar
    25    24    25    1
    26    10    26   ar
    27     6    26   ar
    28     1    27    1
    29     1    28    1
    30     1    29    1
    31     4    30    1
    32     4    31    1
    33    11    32    1
    34     7    33    1
    35     8    34    1
    36     9    35    1
    37    26    36    1
@<TRIPOS>MOLECULE
mol84_2_15
 36 37 0 0 0
SMALL
USER_CHARGES
****
VDW energy = -319.08
@<TRIPOS>ATOM
   1 C1        3.4850    -9.0906    -5.4577  C.3     1  <O>11       0.0098
   2 N1        2.7955    -9.8278    -4.4362  N.am    1  <O>11      -0.2587
   3 C2        3.4570   -10.2010    -3.2970  C.2     1  <O>11       0.3037
   4 N2        4.7750    -9.8720    -3.1320  N.am    1  <O>11      -0.3129
   5 O1        2.8700   -10.8280    -2.4280  O.2     1  <O>11      -0.2525
   6 C3        1.4620   -10.1610    -4.6040  C.ar    1  <O>11       0.0392
   7 C4        0.4754    -9.2802    -4.1540  C.ar    1  <O>11      -0.0401
   8 C5       -0.8741    -9.6158    -4.3090  C.ar    1  <O>11      -0.0582
   9 C6       -1.2337   -10.8227    -4.9142  C.ar    1  <O>11      -0.0392
  10 C7       -0.2347   -11.6918    -5.3662  C.ar    1  <O>11       0.0498
  11 N3       -0.6102   -12.9347    -5.9915  N.pl3   1  <O>11      -0.2160
  12 S1       -0.8402   -12.9990    -7.6266  S.O2    1  <O>11       0.0780
  13 O2        0.5643   -12.5696    -8.4010  O.2     1  <O>11      -0.1498
  14 O3       -2.0527   -11.9494    -8.0569  O.2     1  <O>11      -0.1498
  15 C8       -1.2921   -14.6452    -8.0932  C.ar    1  <O>11       0.1843
  16 C9       -1.5435   -14.9569    -9.4407  C.ar    1  <O>11       0.1907
  17 F1       -1.4244   -13.9815   -10.3978  F       1  <O>11      -0.2002
  18 C10      -1.9104   -16.2549    -9.8076  C.ar    1  <O>11       0.1983
  19 F2       -2.1573   -16.5466   -11.1262  F       1  <O>11      -0.1993
  20 C11      -2.0283   -17.2542    -8.8369  C.ar    1  <O>11       0.1992
  21 F3       -2.3924   -18.5280    -9.1906  F       1  <O>11      -0.1993
  22 C12      -1.7716   -16.9456    -7.4966  C.ar    1  <O>11       0.1983
  23 F4       -1.8878   -17.9283    -6.5500  F       1  <O>11      -0.1993
  24 C13      -1.4033   -15.6535    -7.1215  C.ar    1  <O>11       0.1907
  25 F5       -1.1448   -15.3521    -5.8095  F       1  <O>11      -0.2002
  26 C14       1.1140   -11.3653    -5.2175  C.ar    1  <O>11      -0.0178
  27 H1        2.8015    -8.8851    -6.2815  H       1  <O>11       0.0433
  28 H2        4.3281    -9.6772    -5.8227  H       1  <O>11       0.0433
  29 H3        3.8487    -8.1500    -5.0440  H       1  <O>11       0.0433
  30 H4        5.2680   -10.1500    -2.2830  H       1  <O>11       0.1465
  31 H5        5.2650    -9.3480    -3.8570  H       1  <O>11       0.1465
  32 H6       -0.7349   -13.7730    -5.4253  H       1  <O>11       0.1737
  33 H7        0.7404    -8.3872    -3.7099  H       1  <O>11       0.0636
  34 H8       -1.6063    -8.9698    -3.9751  H       1  <O>11       0.0619
  35 H9       -2.2289   -11.0713    -5.0270  H       1  <O>11       0.0636
  36 H10       1.8465   -12.0078    -5.5578  H       1  <O>11       0.0655
@<TRIPOS>BOND
     1     1     2    1
     2     2     3   am
     3     3     4   am
     4     3     5    2
     5     2     6    1
     6     6     7   ar
     7     7     8   ar
     8     8     9   ar
     9     9    10   ar
    10    10    11    1
    11    11    12    1
    12    12    13    2
    13    12    14    2
    14    12    15    1
    15    15    16   ar
    16    16    17    1
    17    16    18   ar
    18    18    19    1
    19    18    20   ar
    20    20    21    1
    21    20    22   ar
    22    22    23    1
    23    22    24   ar
    24    15    24   ar
    25    24    25    1
    26    10    26   ar
    27     6    26   ar
    28     1    27    1
    29     1    28    1
    30     1    29    1
    31     4    30    1
    32     4    31    1
    33    11    32    1
    34     7    33    1
    35     8    34    1
    36     9    35    1
    37    26    36    1
@<TRIPOS>MOLECULE
mol84_2_16
 36 37 0 0 0
SMALL
USER_CHARGES
****
VDW energy = -319.07
@<TRIPOS>ATOM
   1 C1        3.4850    -9.0906    -5.4577  C.3     1  <O>11       0.0098
   2 N1        2.7955    -9.8278    -4.4362  N.am    1  <O>11      -0.2587
   3 C2        3.4570   -10.2010    -3.2970  C.2     1  <O>11       0.3037
   4 N2        4.7750    -9.8720    -3.1320  N.am    1  <O>11      -0.3129
   5 O1        2.8700   -10.8280    -2.4280  O.2     1  <O>11      -0.2525
   6 C3        1.4620   -10.1610    -4.6040  C.ar    1  <O>11       0.0392
   7 C4        1.1318   -11.3708    -5.2197  C.ar    1  <O>11      -0.0401
   8 C5       -0.2135   -11.7086    -5.4038  C.ar    1  <O>11      -0.0582
   9 C6       -1.2214   -10.8434    -4.9707  C.ar    1  <O>11      -0.0392
  10 C7       -0.8758    -9.6382    -4.3494  C.ar    1  <O>11       0.0498
  11 N3       -1.9188    -8.7498    -3.9027  N.pl3   1  <O>11      -0.2160
  12 S1       -2.5047    -7.5878    -4.9209  S.O2    1  <O>11       0.0780
  13 O2       -3.1441    -8.3075    -6.2736  O.2     1  <O>11      -0.1498
  14 O3       -1.2716    -6.5690    -5.3663  O.2     1  <O>11      -0.1498
  15 C8       -3.7652    -6.6614    -4.0933  C.ar    1  <O>11       0.1843
  16 C9       -4.4217    -5.6087    -4.7546  C.ar    1  <O>11       0.1907
  17 F1       -4.0907    -5.3091    -6.0516  F       1  <O>11      -0.2002
  18 C10      -5.4101    -4.8705    -4.0973  C.ar    1  <O>11       0.1983
  19 F2       -6.0416    -3.8421    -4.7518  F       1  <O>11      -0.1993
  20 C11      -5.7551    -5.1749    -2.7770  C.ar    1  <O>11       0.1992
  21 F3       -6.7207    -4.4510    -2.1259  F       1  <O>11      -0.1993
  22 C12      -5.1064    -6.2268    -2.1211  C.ar    1  <O>11       0.1983
  23 F4       -5.4488    -6.5211    -0.8282  F       1  <O>11      -0.1993
  24 C13      -4.1201    -6.9699    -2.7697  C.ar    1  <O>11       0.1907
  25 F5       -3.4891    -8.0052    -2.1301  F       1  <O>11      -0.2002
  26 C14       0.4631    -9.2932    -4.1599  C.ar    1  <O>11      -0.0178
  27 H1        2.8015    -8.8851    -6.2815  H       1  <O>11       0.0433
  28 H2        4.3281    -9.6772    -5.8227  H       1  <O>11       0.0433
  29 H3        3.8487    -8.1500    -5.0440  H       1  <O>11       0.0433
  30 H4        5.2680   -10.1500    -2.2830  H       1  <O>11       0.1465
  31 H5        5.2650    -9.3480    -3.8570  H       1  <O>11       0.1465
  32 H6       -2.2938    -8.8378    -2.9590  H       1  <O>11       0.1737
  33 H7        1.8759   -12.0117    -5.5368  H       1  <O>11       0.0636
  34 H8       -0.4620   -12.5997    -5.8611  H       1  <O>11       0.0619
  35 H9       -2.2137   -11.0914    -5.1080  H       1  <O>11       0.0636
  36 H10       0.7121    -8.4055    -3.6962  H       1  <O>11       0.0655
@<TRIPOS>BOND
     1     1     2    1
     2     2     3   am
     3     3     4   am
     4     3     5    2
     5     2     6    1
     6     6     7   ar
     7     7     8   ar
     8     8     9   ar
     9     9    10   ar
    10    10    11    1
    11    11    12    1
    12    12    13    2
    13    12    14    2
    14    12    15    1
    15    15    16   ar
    16    16    17    1
    17    16    18   ar
    18    18    19    1
    19    18    20   ar
    20    20    21    1
    21    20    22   ar
    22    22    23    1
    23    22    24   ar
    24    15    24   ar
    25    24    25    1
    26    10    26   ar
    27     6    26   ar
    28     1    27    1
    29     1    28    1
    30     1    29    1
    31     4    30    1
    32     4    31    1
    33    11    32    1
    34     7    33    1
    35     8    34    1
    36     9    35    1
    37    26    36    1
@<TRIPOS>MOLECULE
mol84_2_17
 36 37 0 0 0
SMALL
USER_CHARGES
****
VDW energy = -318.93
@<TRIPOS>ATOM
   1 C1        3.4850    -9.0906    -5.4577  C.3     1  <O>11       0.0098
   2 N1        2.7955    -9.8278    -4.4362  N.am    1  <O>11      -0.2587
   3 C2        3.4570   -10.2010    -3.2970  C.2     1  <O>11       0.3037
   4 N2        4.7750    -9.8720    -3.1320  N.am    1  <O>11      -0.3129
   5 O1        2.8700   -10.8280    -2.4280  O.2     1  <O>11      -0.2525
   6 C3        1.4620   -10.1610    -4.6040  C.ar    1  <O>11       0.0392
   7 C4        0.4754    -9.2802    -4.1540  C.ar    1  <O>11      -0.0401
   8 C5       -0.8741    -9.6158    -4.3090  C.ar    1  <O>11      -0.0582
   9 C6       -1.2337   -10.8227    -4.9142  C.ar    1  <O>11      -0.0392
  10 C7       -0.2347   -11.6918    -5.3662  C.ar    1  <O>11       0.0498
  11 N3       -0.6102   -12.9347    -5.9915  N.pl3   1  <O>11      -0.2160
  12 S1       -1.3781   -14.1025    -5.1100  S.O2    1  <O>11       0.0780
  13 O2       -2.8099   -13.5014    -4.5222  O.2     1  <O>11      -0.1498
  14 O3       -0.4104   -14.5658    -3.8428  O.2     1  <O>11      -0.1498
  15 C8       -1.7052   -15.5009    -6.1442  C.ar    1  <O>11       0.1843
  16 C9       -2.5074   -15.3634    -7.2904  C.ar    1  <O>11       0.1907
  17 F1       -3.0268   -14.1357    -7.6134  F       1  <O>11      -0.2002
  18 C10      -2.7740   -16.4703    -8.1014  C.ar    1  <O>11       0.1983
  19 F2       -3.5620   -16.3248    -9.2162  F       1  <O>11      -0.1993
  20 C11      -2.2429   -17.7230    -7.7798  C.ar    1  <O>11       0.1992
  21 F3       -2.5050   -18.8131    -8.5693  F       1  <O>11      -0.1993
  22 C12      -1.4391   -17.8585    -6.6426  C.ar    1  <O>11       0.1983
  23 F4       -0.9209   -19.0876    -6.3327  F       1  <O>11      -0.1993
  24 C13      -1.1664   -16.7592    -5.8285  C.ar    1  <O>11       0.1907
  25 F5       -0.3731   -16.8897    -4.7181  F       1  <O>11      -0.2002
  26 C14       1.1140   -11.3653    -5.2175  C.ar    1  <O>11      -0.0178
  27 H1        2.8015    -8.8851    -6.2815  H       1  <O>11       0.0433
  28 H2        4.3281    -9.6772    -5.8227  H       1  <O>11       0.0433
  29 H3        3.8487    -8.1500    -5.0440  H       1  <O>11       0.0433
  30 H4        5.2680   -10.1500    -2.2830  H       1  <O>11       0.1465
  31 H5        5.2650    -9.3480    -3.8570  H       1  <O>11       0.1465
  32 H6       -0.4013   -13.0934    -6.9765  H       1  <O>11       0.1737
  33 H7        0.7404    -8.3872    -3.7099  H       1  <O>11       0.0636
  34 H8       -1.6063    -8.9698    -3.9751  H       1  <O>11       0.0619
  35 H9       -2.2289   -11.0713    -5.0270  H       1  <O>11       0.0636
  36 H10       1.8465   -12.0078    -5.5578  H       1  <O>11       0.0655
@<TRIPOS>BOND
     1     1     2    1
     2     2     3   am
     3     3     4   am
     4     3     5    2
     5     2     6    1
     6     6     7   ar
     7     7     8   ar
     8     8     9   ar
     9     9    10   ar
    10    10    11    1
    11    11    12    1
    12    12    13    2
    13    12    14    2
    14    12    15    1
    15    15    16   ar
    16    16    17    1
    17    16    18   ar
    18    18    19    1
    19    18    20   ar
    20    20    21    1
    21    20    22   ar
    22    22    23    1
    23    22    24   ar
    24    15    24   ar
    25    24    25    1
    26    10    26   ar
    27     6    26   ar
    28     1    27    1
    29     1    28    1
    30     1    29    1
    31     4    30    1
    32     4    31    1
    33    11    32    1
    34     7    33    1
    35     8    34    1
    36     9    35    1
    37    26    36    1
@<TRIPOS>MOLECULE
mol84_2_18
 36 37 0 0 0
SMALL
USER_CHARGES
****
VDW energy = -317.70
@<TRIPOS>ATOM
   1 C1        3.4850    -9.0906    -5.4577  C.3     1  <O>11       0.0098
   2 N1        2.7955    -9.8278    -4.4362  N.am    1  <O>11      -0.2587
   3 C2        3.4570   -10.2010    -3.2970  C.2     1  <O>11       0.3037
   4 N2        4.7750    -9.8720    -3.1320  N.am    1  <O>11      -0.3129
   5 O1        2.8700   -10.8280    -2.4280  O.2     1  <O>11      -0.2525
   6 C3        1.4620   -10.1610    -4.6040  C.ar    1  <O>11       0.0392
   7 C4        1.1318   -11.3708    -5.2197  C.ar    1  <O>11      -0.0401
   8 C5       -0.2135   -11.7086    -5.4038  C.ar    1  <O>11      -0.0582
   9 C6       -1.2214   -10.8434    -4.9707  C.ar    1  <O>11      -0.0392
  10 C7       -0.8758    -9.6382    -4.3494  C.ar    1  <O>11       0.0498
  11 N3       -1.9188    -8.7498    -3.9027  N.pl3   1  <O>11      -0.2160
  12 S1       -2.9107    -8.0218    -5.0056  S.O2    1  <O>11       0.0780
  13 O2       -3.7188    -9.1825    -5.8753  O.2     1  <O>11      -0.1498
  14 O3       -2.0024    -7.0897    -6.0367  O.2     1  <O>11      -0.1498
  15 C8       -4.0797    -6.9972    -4.1597  C.ar    1  <O>11       0.1843
  16 C9       -5.0378    -6.2669    -4.8842  C.ar    1  <O>11       0.1907
  17 F1       -5.0727    -6.3610    -6.2522  F       1  <O>11      -0.2002
  18 C10      -5.9545    -5.4496    -4.2165  C.ar    1  <O>11       0.1983
  19 F2       -6.8831    -4.7380    -4.9348  F       1  <O>11      -0.1993
  20 C11      -5.9268    -5.3539    -2.8219  C.ar    1  <O>11       0.1992
  21 F3       -6.8207    -4.5502    -2.1620  F       1  <O>11      -0.1993
  22 C12      -4.9775    -6.0859    -2.1004  C.ar    1  <O>11       0.1983
  23 F4       -4.9554    -5.9890    -0.7346  F       1  <O>11      -0.1993
  24 C13      -4.0600    -6.9051    -2.7581  C.ar    1  <O>11       0.1907
  25 F5       -3.1343    -7.6281    -2.0515  F       1  <O>11      -0.2002
  26 C14       0.4631    -9.2932    -4.1599  C.ar    1  <O>11      -0.0178
  27 H1        2.8015    -8.8851    -6.2815  H       1  <O>11       0.0433
  28 H2        4.3281    -9.6772    -5.8227  H       1  <O>11       0.0433
  29 H3        3.8487    -8.1500    -5.0440  H       1  <O>11       0.0433
  30 H4        5.2680   -10.1500    -2.2830  H       1  <O>11       0.1465
  31 H5        5.2650    -9.3480    -3.8570  H       1  <O>11       0.1465
  32 H6       -2.0436    -8.5701    -2.9071  H       1  <O>11       0.1737
  33 H7        1.8759   -12.0117    -5.5368  H       1  <O>11       0.0636
  34 H8       -0.4620   -12.5997    -5.8611  H       1  <O>11       0.0619
  35 H9       -2.2137   -11.0914    -5.1080  H       1  <O>11       0.0636
  36 H10       0.7121    -8.4055    -3.6962  H       1  <O>11       0.0655
@<TRIPOS>BOND
     1     1     2    1
     2     2     3   am
     3     3     4   am
     4     3     5    2
     5     2     6    1
     6     6     7   ar
     7     7     8   ar
     8     8     9   ar
     9     9    10   ar
    10    10    11    1
    11    11    12    1
    12    12    13    2
    13    12    14    2
    14    12    15    1
    15    15    16   ar
    16    16    17    1
    17    16    18   ar
    18    18    19    1
    19    18    20   ar
    20    20    21    1
    21    20    22   ar
    22    22    23    1
    23    22    24   ar
    24    15    24   ar
    25    24    25    1
    26    10    26   ar
    27     6    26   ar
    28     1    27    1
    29     1    28    1
    30     1    29    1
    31     4    30    1
    32     4    31    1
    33    11    32    1
    34     7    33    1
    35     8    34    1
    36     9    35    1
    37    26    36    1
@<TRIPOS>MOLECULE
mol84_2_19
 36 37 0 0 0
SMALL
USER_CHARGES
****
VDW energy = -316.34
@<TRIPOS>ATOM
   1 C1        3.4850    -9.0906    -5.4577  C.3     1  <O>11       0.0098
   2 N1        2.7955    -9.8278    -4.4362  N.am    1  <O>11      -0.2587
   3 C2        3.4570   -10.2010    -3.2970  C.2     1  <O>11       0.3037
   4 N2        2.8005   -10.9036    -2.3234  N.am    1  <O>11      -0.3129
   5 O1        4.6336    -9.9062    -3.1501  O.2     1  <O>11      -0.2525
   6 C3        1.4620   -10.1610    -4.6040  C.ar    1  <O>11       0.0392
   7 C4        0.4754    -9.2802    -4.1540  C.ar    1  <O>11      -0.0401
   8 C5       -0.8741    -9.6158    -4.3090  C.ar    1  <O>11      -0.0582
   9 C6       -1.2337   -10.8227    -4.9142  C.ar    1  <O>11      -0.0392
  10 C7       -0.2347   -11.6918    -5.3662  C.ar    1  <O>11       0.0498
  11 N3       -0.6102   -12.9347    -5.9915  N.pl3   1  <O>11      -0.2160
  12 S1       -1.3781   -14.1025    -5.1100  S.O2    1  <O>11       0.0780
  13 O2       -2.8099   -13.5014    -4.5222  O.2     1  <O>11      -0.1498
  14 O3       -0.4104   -14.5658    -3.8428  O.2     1  <O>11      -0.1498
  15 C8       -1.7052   -15.5009    -6.1442  C.ar    1  <O>11       0.1843
  16 C9       -2.3548   -16.6329    -5.6220  C.ar    1  <O>11       0.1907
  17 F1       -2.7475   -16.6456    -4.3078  F       1  <O>11      -0.2002
  18 C10      -2.6038   -17.7414    -6.4364  C.ar    1  <O>11       0.1983
  19 F2       -3.2354   -18.8429    -5.9144  F       1  <O>11      -0.1993
  20 C11      -2.2103   -17.7319    -7.7780  C.ar    1  <O>11       0.1992
  21 F3       -2.4479   -18.8183    -8.5802  F       1  <O>11      -0.1993
  22 C12      -1.5697   -16.6027    -8.2994  C.ar    1  <O>11       0.1983
  23 F4       -1.1870   -16.5984    -9.6143  F       1  <O>11      -0.1993
  24 C13      -1.3186   -15.4914    -7.4946  C.ar    1  <O>11       0.1907
  25 F5       -0.6973   -14.3819    -8.0066  F       1  <O>11      -0.2002
  26 C14       1.1140   -11.3653    -5.2175  C.ar    1  <O>11      -0.0178
  27 H1        2.8015    -8.8851    -6.2815  H       1  <O>11       0.0433
  28 H2        4.3281    -9.6772    -5.8227  H       1  <O>11       0.0433
  29 H3        3.8487    -8.1500    -5.0440  H       1  <O>11       0.0433
  30 H4        3.2934   -11.1819    -1.4745  H       1  <O>11       0.1465
  31 H5        1.8185   -11.1504    -2.4462  H       1  <O>11       0.1465
  32 H6       -0.4013   -13.0934    -6.9765  H       1  <O>11       0.1737
  33 H7        0.7404    -8.3872    -3.7099  H       1  <O>11       0.0636
  34 H8       -1.6063    -8.9698    -3.9751  H       1  <O>11       0.0619
  35 H9       -2.2289   -11.0713    -5.0270  H       1  <O>11       0.0636
  36 H10       1.8465   -12.0078    -5.5578  H       1  <O>11       0.0655
@<TRIPOS>BOND
     1     1     2    1
     2     2     3   am
     3     3     4   am
     4     3     5    2
     5     2     6    1
     6     6     7   ar
     7     7     8   ar
     8     8     9   ar
     9     9    10   ar
    10    10    11    1
    11    11    12    1
    12    12    13    2
    13    12    14    2
    14    12    15    1
    15    15    16   ar
    16    16    17    1
    17    16    18   ar
    18    18    19    1
    19    18    20   ar
    20    20    21    1
    21    20    22   ar
    22    22    23    1
    23    22    24   ar
    24    15    24   ar
    25    24    25    1
    26    10    26   ar
    27     6    26   ar
    28     1    27    1
    29     1    28    1
    30     1    29    1
    31     4    30    1
    32     4    31    1
    33    11    32    1
    34     7    33    1
    35     8    34    1
    36     9    35    1
    37    26    36    1
@<TRIPOS>MOLECULE
mol84_2_20
 36 37 0 0 0
SMALL
USER_CHARGES
****
VDW energy = -315.72
@<TRIPOS>ATOM
   1 C1        3.4850    -9.0906    -5.4577  C.3     1  <O>11       0.0098
   2 N1        2.7955    -9.8278    -4.4362  N.am    1  <O>11      -0.2587
   3 C2        3.4570   -10.2010    -3.2970  C.2     1  <O>11       0.3037
   4 N2        4.7750    -9.8720    -3.1320  N.am    1  <O>11      -0.3129
   5 O1        2.8700   -10.8280    -2.4280  O.2     1  <O>11      -0.2525
   6 C3        1.4620   -10.1610    -4.6040  C.ar    1  <O>11       0.0392
   7 C4        1.1318   -11.3708    -5.2197  C.ar    1  <O>11      -0.0401
   8 C5       -0.2135   -11.7086    -5.4038  C.ar    1  <O>11      -0.0582
   9 C6       -1.2214   -10.8434    -4.9707  C.ar    1  <O>11      -0.0392
  10 C7       -0.8758    -9.6382    -4.3494  C.ar    1  <O>11       0.0498
  11 N3       -1.9188    -8.7498    -3.9027  N.pl3   1  <O>11      -0.2160
  12 S1       -2.5267    -8.8949    -2.3730  S.O2    1  <O>11       0.0780
  13 O2       -1.3078    -8.6688    -1.2685  O.2     1  <O>11      -0.1498
  14 O3       -3.1772   -10.4100    -2.1772  O.2     1  <O>11      -0.1498
  15 C8       -3.7849    -7.6760    -2.1216  C.ar    1  <O>11       0.1843
  16 C9       -4.4588    -7.5955    -0.8905  C.ar    1  <O>11       0.1907
  17 F1       -4.1283    -8.4585     0.1231  F       1  <O>11      -0.2002
  18 C10      -5.4597    -6.6393    -0.6957  C.ar    1  <O>11       0.1983
  19 F2       -6.1137    -6.5727     0.5095  F       1  <O>11      -0.1993
  20 C11      -5.7970    -5.7537    -1.7237  C.ar    1  <O>11       0.1992
  21 F3       -6.7811    -4.8168    -1.5396  F       1  <O>11      -0.1993
  22 C12      -5.1217    -5.8295    -2.9467  C.ar    1  <O>11       0.1983
  23 F4       -5.4556    -4.9592    -3.9499  F       1  <O>11      -0.1993
  24 C13      -4.1205    -6.7793    -3.1495  C.ar    1  <O>11       0.1907
  25 F5       -3.4536    -6.8495    -4.3451  F       1  <O>11      -0.2002
  26 C14       0.4631    -9.2932    -4.1599  C.ar    1  <O>11      -0.0178
  27 H1        2.8015    -8.8851    -6.2815  H       1  <O>11       0.0433
  28 H2        4.3281    -9.6772    -5.8227  H       1  <O>11       0.0433
  29 H3        3.8487    -8.1500    -5.0440  H       1  <O>11       0.0433
  30 H4        5.2680   -10.1500    -2.2830  H       1  <O>11       0.1465
  31 H5        5.2650    -9.3480    -3.8570  H       1  <O>11       0.1465
  32 H6       -2.2817    -8.0333    -4.5302  H       1  <O>11       0.1737
  33 H7        1.8759   -12.0117    -5.5368  H       1  <O>11       0.0636
  34 H8       -0.4620   -12.5997    -5.8611  H       1  <O>11       0.0619
  35 H9       -2.2137   -11.0914    -5.1080  H       1  <O>11       0.0636
  36 H10       0.7121    -8.4055    -3.6962  H       1  <O>11       0.0655
@<TRIPOS>BOND
     1     1     2    1
     2     2     3   am
     3     3     4   am
     4     3     5    2
     5     2     6    1
     6     6     7   ar
     7     7     8   ar
     8     8     9   ar
     9     9    10   ar
    10    10    11    1
    11    11    12    1
    12    12    13    2
    13    12    14    2
    14    12    15    1
    15    15    16   ar
    16    16    17    1
    17    16    18   ar
    18    18    19    1
    19    18    20   ar
    20    20    21    1
    21    20    22   ar
    22    22    23    1
    23    22    24   ar
    24    15    24   ar
    25    24    25    1
    26    10    26   ar
    27     6    26   ar
    28     1    27    1
    29     1    28    1
    30     1    29    1
    31     4    30    1
    32     4    31    1
    33    11    32    1
    34     7    33    1
    35     8    34    1
    36     9    35    1
    37    26    36    1
@<TRIPOS>MOLECULE
mol84_2_21
 36 37 0 0 0
SMALL
USER_CHARGES
****
VDW energy = -315.26
@<TRIPOS>ATOM
   1 C1        3.4850    -9.0906    -5.4577  C.3     1  <O>11       0.0098
   2 N1        2.7955    -9.8278    -4.4362  N.am    1  <O>11      -0.2587
   3 C2        3.4570   -10.2010    -3.2970  C.2     1  <O>11       0.3037
   4 N2        4.7750    -9.8720    -3.1320  N.am    1  <O>11      -0.3129
   5 O1        2.8700   -10.8280    -2.4280  O.2     1  <O>11      -0.2525
   6 C3        1.4620   -10.1610    -4.6040  C.ar    1  <O>11       0.0392
   7 C4        1.1318   -11.3708    -5.2197  C.ar    1  <O>11      -0.0401
   8 C5       -0.2135   -11.7086    -5.4038  C.ar    1  <O>11      -0.0582
   9 C6       -1.2214   -10.8434    -4.9707  C.ar    1  <O>11      -0.0392
  10 C7       -0.8758    -9.6382    -4.3494  C.ar    1  <O>11       0.0498
  11 N3       -1.9188    -8.7498    -3.9027  N.pl3   1  <O>11      -0.2160
  12 S1       -1.5277    -7.3232    -3.1662  S.O2    1  <O>11       0.0780
  13 O2       -0.6265    -6.3924    -4.2046  O.2     1  <O>11      -0.1498
  14 O3       -0.6466    -7.6321    -1.7932  O.2     1  <O>11      -0.1498
  15 C8       -3.0100    -6.4585    -2.7336  C.ar    1  <O>11       0.1843
  16 C9       -3.0256    -5.0534    -2.6933  C.ar    1  <O>11       0.1907
  17 F1       -1.8887    -4.3517    -3.0040  F       1  <O>11      -0.2002
  18 C10      -4.1937    -4.3709    -2.3415  C.ar    1  <O>11       0.1983
  19 F2       -4.1959    -2.9987    -2.3017  F       1  <O>11      -0.1993
  20 C11      -5.3569    -5.0810    -2.0288  C.ar    1  <O>11       0.1992
  21 F3       -6.5042    -4.4168    -1.6787  F       1  <O>11      -0.1993
  22 C12      -5.3432    -6.4793    -2.0754  C.ar    1  <O>11       0.1983
  23 F4       -6.4855    -7.1697    -1.7689  F       1  <O>11      -0.1993
  24 C13      -4.1827    -7.1686    -2.4269  C.ar    1  <O>11       0.1907
  25 F5       -4.1705    -8.5383    -2.4796  F       1  <O>11      -0.2002
  26 C14       0.4631    -9.2932    -4.1599  C.ar    1  <O>11      -0.0178
  27 H1        2.8015    -8.8851    -6.2815  H       1  <O>11       0.0433
  28 H2        4.3281    -9.6772    -5.8227  H       1  <O>11       0.0433
  29 H3        3.8487    -8.1500    -5.0440  H       1  <O>11       0.0433
  30 H4        5.2680   -10.1500    -2.2830  H       1  <O>11       0.1465
  31 H5        5.2650    -9.3480    -3.8570  H       1  <O>11       0.1465
  32 H6       -2.8968    -9.0020    -4.0400  H       1  <O>11       0.1737
  33 H7        1.8759   -12.0117    -5.5368  H       1  <O>11       0.0636
  34 H8       -0.4620   -12.5997    -5.8611  H       1  <O>11       0.0619
  35 H9       -2.2137   -11.0914    -5.1080  H       1  <O>11       0.0636
  36 H10       0.7121    -8.4055    -3.6962  H       1  <O>11       0.0655
@<TRIPOS>BOND
     1     1     2    1
     2     2     3   am
     3     3     4   am
     4     3     5    2
     5     2     6    1
     6     6     7   ar
     7     7     8   ar
     8     8     9   ar
     9     9    10   ar
    10    10    11    1
    11    11    12    1
    12    12    13    2
    13    12    14    2
    14    12    15    1
    15    15    16   ar
    16    16    17    1
    17    16    18   ar
    18    18    19    1
    19    18    20   ar
    20    20    21    1
    21    20    22   ar
    22    22    23    1
    23    22    24   ar
    24    15    24   ar
    25    24    25    1
    26    10    26   ar
    27     6    26   ar
    28     1    27    1
    29     1    28    1
    30     1    29    1
    31     4    30    1
    32     4    31    1
    33    11    32    1
    34     7    33    1
    35     8    34    1
    36     9    35    1
    37    26    36    1
@<TRIPOS>MOLECULE
mol84_2_22
 36 37 0 0 0
SMALL
USER_CHARGES
****
VDW energy = -315.04
@<TRIPOS>ATOM
   1 C1        3.4850    -9.0906    -5.4577  C.3     1  <O>11       0.0098
   2 N1        2.7955    -9.8278    -4.4362  N.am    1  <O>11      -0.2587
   3 C2        3.4570   -10.2010    -3.2970  C.2     1  <O>11       0.3037
   4 N2        4.7750    -9.8720    -3.1320  N.am    1  <O>11      -0.3129
   5 O1        2.8700   -10.8280    -2.4280  O.2     1  <O>11      -0.2525
   6 C3        1.4620   -10.1610    -4.6040  C.ar    1  <O>11       0.0392
   7 C4        0.4754    -9.2802    -4.1540  C.ar    1  <O>11      -0.0401
   8 C5       -0.8741    -9.6158    -4.3090  C.ar    1  <O>11      -0.0582
   9 C6       -1.2337   -10.8227    -4.9142  C.ar    1  <O>11      -0.0392
  10 C7       -0.2347   -11.6918    -5.3662  C.ar    1  <O>11       0.0498
  11 N3       -0.6102   -12.9347    -5.9915  N.pl3   1  <O>11      -0.2160
  12 S1       -1.3781   -14.1025    -5.1100  S.O2    1  <O>11       0.0780
  13 O2       -2.8099   -13.5014    -4.5222  O.2     1  <O>11      -0.1498
  14 O3       -0.4104   -14.5658    -3.8428  O.2     1  <O>11      -0.1498
  15 C8       -1.7052   -15.5009    -6.1442  C.ar    1  <O>11       0.1843
  16 C9       -2.3548   -16.6329    -5.6220  C.ar    1  <O>11       0.1907
  17 F1       -2.7475   -16.6456    -4.3078  F       1  <O>11      -0.2002
  18 C10      -2.6038   -17.7414    -6.4364  C.ar    1  <O>11       0.1983
  19 F2       -3.2354   -18.8429    -5.9144  F       1  <O>11      -0.1993
  20 C11      -2.2103   -17.7319    -7.7780  C.ar    1  <O>11       0.1992
  21 F3       -2.4479   -18.8183    -8.5802  F       1  <O>11      -0.1993
  22 C12      -1.5697   -16.6027    -8.2994  C.ar    1  <O>11       0.1983
  23 F4       -1.1870   -16.5984    -9.6143  F       1  <O>11      -0.1993
  24 C13      -1.3186   -15.4914    -7.4946  C.ar    1  <O>11       0.1907
  25 F5       -0.6973   -14.3819    -8.0066  F       1  <O>11      -0.2002
  26 C14       1.1140   -11.3653    -5.2175  C.ar    1  <O>11      -0.0178
  27 H1        2.8015    -8.8851    -6.2815  H       1  <O>11       0.0433
  28 H2        4.3281    -9.6772    -5.8227  H       1  <O>11       0.0433
  29 H3        3.8487    -8.1500    -5.0440  H       1  <O>11       0.0433
  30 H4        5.2680   -10.1500    -2.2830  H       1  <O>11       0.1465
  31 H5        5.2650    -9.3480    -3.8570  H       1  <O>11       0.1465
  32 H6       -0.4013   -13.0934    -6.9765  H       1  <O>11       0.1737
  33 H7        0.7404    -8.3872    -3.7099  H       1  <O>11       0.0636
  34 H8       -1.6063    -8.9698    -3.9751  H       1  <O>11       0.0619
  35 H9       -2.2289   -11.0713    -5.0270  H       1  <O>11       0.0636
  36 H10       1.8465   -12.0078    -5.5578  H       1  <O>11       0.0655
@<TRIPOS>BOND
     1     1     2    1
     2     2     3   am
     3     3     4   am
     4     3     5    2
     5     2     6    1
     6     6     7   ar
     7     7     8   ar
     8     8     9   ar
     9     9    10   ar
    10    10    11    1
    11    11    12    1
    12    12    13    2
    13    12    14    2
    14    12    15    1
    15    15    16   ar
    16    16    17    1
    17    16    18   ar
    18    18    19    1
    19    18    20   ar
    20    20    21    1
    21    20    22   ar
    22    22    23    1
    23    22    24   ar
    24    15    24   ar
    25    24    25    1
    26    10    26   ar
    27     6    26   ar
    28     1    27    1
    29     1    28    1
    30     1    29    1
    31     4    30    1
    32     4    31    1
    33    11    32    1
    34     7    33    1
    35     8    34    1
    36     9    35    1
    37    26    36    1
@<TRIPOS>MOLECULE
mol84_2_23
 36 37 0 0 0
SMALL
USER_CHARGES
****
VDW energy = -315.03
@<TRIPOS>ATOM
   1 C1        3.4850    -9.0906    -5.4577  C.3     1  <O>11       0.0098
   2 N1        2.7955    -9.8278    -4.4362  N.am    1  <O>11      -0.2587
   3 C2        3.4570   -10.2010    -3.2970  C.2     1  <O>11       0.3037
   4 N2        4.7750    -9.8720    -3.1320  N.am    1  <O>11      -0.3129
   5 O1        2.8700   -10.8280    -2.4280  O.2     1  <O>11      -0.2525
   6 C3        1.4620   -10.1610    -4.6040  C.ar    1  <O>11       0.0392
   7 C4        1.0871   -10.9543    -5.6911  C.ar    1  <O>11      -0.0401
   8 C5       -0.2602   -11.2848    -5.8741  C.ar    1  <O>11      -0.0582
   9 C6       -1.2250   -10.8280    -4.9726  C.ar    1  <O>11      -0.0392
  10 C7       -0.8339   -10.0400    -3.8846  C.ar    1  <O>11       0.0498
  11 N3       -1.8322    -9.5727    -2.9563  N.pl3   1  <O>11      -0.2160
  12 S1       -2.9860    -8.5007    -3.4564  S.O2    1  <O>11       0.0780
  13 O2       -3.8701    -9.1736    -4.6902  O.2     1  <O>11      -0.1498
  14 O3       -2.2542    -7.1106    -3.9941  O.2     1  <O>11      -0.1498
  15 C8       -4.0589    -8.1165    -2.1025  C.ar    1  <O>11       0.1843
  16 C9       -5.1278    -7.2202    -2.2765  C.ar    1  <O>11       0.1907
  17 F1       -5.3454    -6.6523    -3.5060  F       1  <O>11      -0.2002
  18 C10      -5.9689    -6.9090    -1.2043  C.ar    1  <O>11       0.1983
  19 F2       -7.0071    -6.0292    -1.3851  F       1  <O>11      -0.1993
  20 C11      -5.7547    -7.4888     0.0498  C.ar    1  <O>11       0.1992
  21 F3       -6.5739    -7.1837     1.1062  F       1  <O>11      -0.1993
  22 C12      -4.6949    -8.3861     0.2214  C.ar    1  <O>11       0.1983
  23 F4       -4.4902    -8.9517     1.4516  F       1  <O>11      -0.1993
  24 C13      -3.8516    -8.7037    -0.8433  C.ar    1  <O>11       0.1907
  25 F5       -2.8174    -9.5881    -0.6778  F       1  <O>11      -0.2002
  26 C14       0.5076    -9.7064    -3.6928  C.ar    1  <O>11      -0.0178
  27 H1        2.8015    -8.8851    -6.2815  H       1  <O>11       0.0433
  28 H2        4.3281    -9.6772    -5.8227  H       1  <O>11       0.0433
  29 H3        3.8487    -8.1500    -5.0440  H       1  <O>11       0.0433
  30 H4        5.2680   -10.1500    -2.2830  H       1  <O>11       0.1465
  31 H5        5.2650    -9.3480    -3.8570  H       1  <O>11       0.1465
  32 H6       -1.8259    -9.9026    -1.9919  H       1  <O>11       0.1737
  33 H7        1.7998   -11.2947    -6.3554  H       1  <O>11       0.0636
  34 H8       -0.5421   -11.8678    -6.6776  H       1  <O>11       0.0619
  35 H9       -2.2190   -11.0700    -5.1083  H       1  <O>11       0.0636
  36 H10       0.7909    -9.1293    -2.8854  H       1  <O>11       0.0655
@<TRIPOS>BOND
     1     1     2    1
     2     2     3   am
     3     3     4   am
     4     3     5    2
     5     2     6    1
     6     6     7   ar
     7     7     8   ar
     8     8     9   ar
     9     9    10   ar
    10    10    11    1
    11    11    12    1
    12    12    13    2
    13    12    14    2
    14    12    15    1
    15    15    16   ar
    16    16    17    1
    17    16    18   ar
    18    18    19    1
    19    18    20   ar
    20    20    21    1
    21    20    22   ar
    22    22    23    1
    23    22    24   ar
    24    15    24   ar
    25    24    25    1
    26    10    26   ar
    27     6    26   ar
    28     1    27    1
    29     1    28    1
    30     1    29    1
    31     4    30    1
    32     4    31    1
    33    11    32    1
    34     7    33    1
    35     8    34    1
    36     9    35    1
    37    26    36    1
@<TRIPOS>MOLECULE
mol84_2_24
 36 37 0 0 0
SMALL
USER_CHARGES
****
VDW energy = -314.57
@<TRIPOS>ATOM
   1 C1        3.4850    -9.0906    -5.4577  C.3     1  <O>11       0.0098
   2 N1        2.7955    -9.8278    -4.4362  N.am    1  <O>11      -0.2587
   3 C2        3.4570   -10.2010    -3.2970  C.2     1  <O>11       0.3037
   4 N2        4.7750    -9.8720    -3.1320  N.am    1  <O>11      -0.3129
   5 O1        2.8700   -10.8280    -2.4280  O.2     1  <O>11      -0.2525
   6 C3        1.4620   -10.1610    -4.6040  C.ar    1  <O>11       0.0392
   7 C4        1.1318   -11.3708    -5.2197  C.ar    1  <O>11      -0.0401
   8 C5       -0.2135   -11.7086    -5.4038  C.ar    1  <O>11      -0.0582
   9 C6       -1.2214   -10.8434    -4.9707  C.ar    1  <O>11      -0.0392
  10 C7       -0.8758    -9.6382    -4.3494  C.ar    1  <O>11       0.0498
  11 N3       -1.9188    -8.7498    -3.9027  N.pl3   1  <O>11      -0.2160
  12 S1       -1.5277    -7.3232    -3.1662  S.O2    1  <O>11       0.0780
  13 O2       -0.6265    -6.3924    -4.2046  O.2     1  <O>11      -0.1498
  14 O3       -0.6466    -7.6321    -1.7932  O.2     1  <O>11      -0.1498
  15 C8       -3.0100    -6.4585    -2.7336  C.ar    1  <O>11       0.1843
  16 C9       -3.9280    -6.0819    -3.7295  C.ar    1  <O>11       0.1907
  17 F1       -3.6772    -6.3990    -5.0402  F       1  <O>11      -0.2002
  18 C10      -5.0937    -5.3899    -3.3886  C.ar    1  <O>11       0.1983
  19 F2       -5.9810    -5.0238    -4.3702  F       1  <O>11      -0.1993
  20 C11      -5.3569    -5.0686    -2.0536  C.ar    1  <O>11       0.1992
  21 F3       -6.4966    -4.3859    -1.7141  F       1  <O>11      -0.1993
  22 C12      -4.4465    -5.4492    -1.0617  C.ar    1  <O>11       0.1983
  23 F4       -4.7096    -5.1326     0.2444  F       1  <O>11      -0.1993
  24 C13      -3.2815    -6.1414    -1.3923  C.ar    1  <O>11       0.1907
  25 F5       -2.3926    -6.5209    -0.4203  F       1  <O>11      -0.2002
  26 C14       0.4631    -9.2932    -4.1599  C.ar    1  <O>11      -0.0178
  27 H1        2.8015    -8.8851    -6.2815  H       1  <O>11       0.0433
  28 H2        4.3281    -9.6772    -5.8227  H       1  <O>11       0.0433
  29 H3        3.8487    -8.1500    -5.0440  H       1  <O>11       0.0433
  30 H4        5.2680   -10.1500    -2.2830  H       1  <O>11       0.1465
  31 H5        5.2650    -9.3480    -3.8570  H       1  <O>11       0.1465
  32 H6       -2.8968    -9.0020    -4.0400  H       1  <O>11       0.1737
  33 H7        1.8759   -12.0117    -5.5368  H       1  <O>11       0.0636
  34 H8       -0.4620   -12.5997    -5.8611  H       1  <O>11       0.0619
  35 H9       -2.2137   -11.0914    -5.1080  H       1  <O>11       0.0636
  36 H10       0.7121    -8.4055    -3.6962  H       1  <O>11       0.0655
@<TRIPOS>BOND
     1     1     2    1
     2     2     3   am
     3     3     4   am
     4     3     5    2
     5     2     6    1
     6     6     7   ar
     7     7     8   ar
     8     8     9   ar
     9     9    10   ar
    10    10    11    1
    11    11    12    1
    12    12    13    2
    13    12    14    2
    14    12    15    1
    15    15    16   ar
    16    16    17    1
    17    16    18   ar
    18    18    19    1
    19    18    20   ar
    20    20    21    1
    21    20    22   ar
    22    22    23    1
    23    22    24   ar
    24    15    24   ar
    25    24    25    1
    26    10    26   ar
    27     6    26   ar
    28     1    27    1
    29     1    28    1
    30     1    29    1
    31     4    30    1
    32     4    31    1
    33    11    32    1
    34     7    33    1
    35     8    34    1
    36     9    35    1
    37    26    36    1
@<TRIPOS>MOLECULE
mol84_2_25
 36 37 0 0 0
SMALL
USER_CHARGES
****
VDW energy = -314.13
@<TRIPOS>ATOM
   1 C1        3.4850    -9.0906    -5.4577  C.3     1  <O>11       0.0098
   2 N1        2.7955    -9.8278    -4.4362  N.am    1  <O>11      -0.2587
   3 C2        3.4570   -10.2010    -3.2970  C.2     1  <O>11       0.3037
   4 N2        2.8005   -10.9036    -2.3234  N.am    1  <O>11      -0.3129
   5 O1        4.6336    -9.9062    -3.1501  O.2     1  <O>11      -0.2525
   6 C3        1.4620   -10.1610    -4.6040  C.ar    1  <O>11       0.0392
   7 C4        1.1318   -11.3708    -5.2197  C.ar    1  <O>11      -0.0401
   8 C5       -0.2135   -11.7086    -5.4038  C.ar    1  <O>11      -0.0582
   9 C6       -1.2214   -10.8434    -4.9707  C.ar    1  <O>11      -0.0392
  10 C7       -0.8758    -9.6382    -4.3494  C.ar    1  <O>11       0.0498
  11 N3       -1.9188    -8.7498    -3.9027  N.pl3   1  <O>11      -0.2160
  12 S1       -1.5277    -7.3232    -3.1662  S.O2    1  <O>11       0.0780
  13 O2       -2.9173    -6.5096    -2.7613  O.2     1  <O>11      -0.1498
  14 O3       -0.6245    -6.3937    -4.2041  O.2     1  <O>11      -0.1498
  15 C8       -0.5895    -7.6541    -1.7026  C.ar    1  <O>11       0.1843
  16 C9       -1.1411    -8.4271    -0.6660  C.ar    1  <O>11       0.1907
  17 F1       -2.4077    -8.9367    -0.7980  F       1  <O>11      -0.2002
  18 C10      -0.4037    -8.6797     0.4943  C.ar    1  <O>11       0.1983
  19 F2       -0.9542    -9.4326     1.5017  F       1  <O>11      -0.1993
  20 C11       0.8898    -8.1670     0.6320  C.ar    1  <O>11       0.1992
  21 F3        1.6159    -8.4078     1.7700  F       1  <O>11      -0.1993
  22 C12       1.4413    -7.4033    -0.4025  C.ar    1  <O>11       0.1983
  23 F4        2.7088    -6.9042    -0.2626  F       1  <O>11      -0.1993
  24 C13       0.7134    -7.1475    -1.5645  C.ar    1  <O>11       0.1907
  25 F5        1.2557    -6.4053    -2.5815  F       1  <O>11      -0.2002
  26 C14       0.4631    -9.2932    -4.1599  C.ar    1  <O>11      -0.0178
  27 H1        2.8015    -8.8851    -6.2815  H       1  <O>11       0.0433
  28 H2        4.3281    -9.6772    -5.8227  H       1  <O>11       0.0433
  29 H3        3.8487    -8.1500    -5.0440  H       1  <O>11       0.0433
  30 H4        3.2934   -11.1819    -1.4745  H       1  <O>11       0.1465
  31 H5        1.8185   -11.1504    -2.4462  H       1  <O>11       0.1465
  32 H6       -2.8968    -9.0020    -4.0400  H       1  <O>11       0.1737
  33 H7        1.8759   -12.0117    -5.5368  H       1  <O>11       0.0636
  34 H8       -0.4620   -12.5997    -5.8611  H       1  <O>11       0.0619
  35 H9       -2.2137   -11.0914    -5.1080  H       1  <O>11       0.0636
  36 H10       0.7121    -8.4055    -3.6962  H       1  <O>11       0.0655
@<TRIPOS>BOND
     1     1     2    1
     2     2     3   am
     3     3     4   am
     4     3     5    2
     5     2     6    1
     6     6     7   ar
     7     7     8   ar
     8     8     9   ar
     9     9    10   ar
    10    10    11    1
    11    11    12    1
    12    12    13    2
    13    12    14    2
    14    12    15    1
    15    15    16   ar
    16    16    17    1
    17    16    18   ar
    18    18    19    1
    19    18    20   ar
    20    20    21    1
    21    20    22   ar
    22    22    23    1
    23    22    24   ar
    24    15    24   ar
    25    24    25    1
    26    10    26   ar
    27     6    26   ar
    28     1    27    1
    29     1    28    1
    30     1    29    1
    31     4    30    1
    32     4    31    1
    33    11    32    1
    34     7    33    1
    35     8    34    1
    36     9    35    1
    37    26    36    1
@<TRIPOS>MOLECULE
mol84_2_26
 36 37 0 0 0
SMALL
USER_CHARGES
****
VDW energy = -313.63
@<TRIPOS>ATOM
   1 C1        3.4850    -9.0906    -5.4577  C.3     1  <O>11       0.0098
   2 N1        2.7955    -9.8278    -4.4362  N.am    1  <O>11      -0.2587
   3 C2        3.4570   -10.2010    -3.2970  C.2     1  <O>11       0.3037
   4 N2        2.8005   -10.9036    -2.3234  N.am    1  <O>11      -0.3129
   5 O1        4.6336    -9.9062    -3.1501  O.2     1  <O>11      -0.2525
   6 C3        1.4620   -10.1610    -4.6040  C.ar    1  <O>11       0.0392
   7 C4        1.0871   -10.9543    -5.6911  C.ar    1  <O>11      -0.0401
   8 C5       -0.2602   -11.2848    -5.8741  C.ar    1  <O>11      -0.0582
   9 C6       -1.2250   -10.8280    -4.9726  C.ar    1  <O>11      -0.0392
  10 C7       -0.8339   -10.0400    -3.8846  C.ar    1  <O>11       0.0498
  11 N3       -1.8322    -9.5727    -2.9563  N.pl3   1  <O>11      -0.2160
  12 S1       -2.2221   -10.4858    -1.6354  S.O2    1  <O>11       0.0780
  13 O2       -0.8715   -10.7040    -0.6945  O.2     1  <O>11      -0.1498
  14 O3       -2.7948   -11.9628    -2.1328  O.2     1  <O>11      -0.1498
  15 C8       -3.4698    -9.6560    -0.6938  C.ar    1  <O>11       0.1843
  16 C9       -3.9721   -10.2354     0.4844  C.ar    1  <O>11       0.1907
  17 F1       -3.4816   -11.4434     0.9107  F       1  <O>11      -0.2002
  18 C10      -4.9651    -9.5847     1.2224  C.ar    1  <O>11       0.1983
  19 F2       -5.4509   -10.1620     2.3693  F       1  <O>11      -0.1993
  20 C11      -5.4650    -8.3508     0.7953  C.ar    1  <O>11       0.1992
  21 F3       -6.4423    -7.7102     1.5129  F       1  <O>11      -0.1993
  22 C12      -4.9603    -7.7710    -0.3737  C.ar    1  <O>11       0.1983
  23 F4       -5.4531    -6.5620    -0.7871  F       1  <O>11      -0.1993
  24 C13      -3.9684    -8.4124    -1.1156  C.ar    1  <O>11       0.1907
  25 F5       -3.4684    -7.8416    -2.2573  F       1  <O>11      -0.2002
  26 C14       0.5076    -9.7064    -3.6928  C.ar    1  <O>11      -0.0178
  27 H1        2.8015    -8.8851    -6.2815  H       1  <O>11       0.0433
  28 H2        4.3281    -9.6772    -5.8227  H       1  <O>11       0.0433
  29 H3        3.8487    -8.1500    -5.0440  H       1  <O>11       0.0433
  30 H4        3.2934   -11.1819    -1.4745  H       1  <O>11       0.1465
  31 H5        1.8185   -11.1504    -2.4462  H       1  <O>11       0.1465
  32 H6       -2.2981    -8.6801    -3.1153  H       1  <O>11       0.1737
  33 H7        1.7998   -11.2947    -6.3554  H       1  <O>11       0.0636
  34 H8       -0.5421   -11.8678    -6.6776  H       1  <O>11       0.0619
  35 H9       -2.2190   -11.0700    -5.1083  H       1  <O>11       0.0636
  36 H10       0.7909    -9.1293    -2.8854  H       1  <O>11       0.0655
@<TRIPOS>BOND
     1     1     2    1
     2     2     3   am
     3     3     4   am
     4     3     5    2
     5     2     6    1
     6     6     7   ar
     7     7     8   ar
     8     8     9   ar
     9     9    10   ar
    10    10    11    1
    11    11    12    1
    12    12    13    2
    13    12    14    2
    14    12    15    1
    15    15    16   ar
    16    16    17    1
    17    16    18   ar
    18    18    19    1
    19    18    20   ar
    20    20    21    1
    21    20    22   ar
    22    22    23    1
    23    22    24   ar
    24    15    24   ar
    25    24    25    1
    26    10    26   ar
    27     6    26   ar
    28     1    27    1
    29     1    28    1
    30     1    29    1
    31     4    30    1
    32     4    31    1
    33    11    32    1
    34     7    33    1
    35     8    34    1
    36     9    35    1
    37    26    36    1
@<TRIPOS>MOLECULE
mol84_2_27
 36 37 0 0 0
SMALL
USER_CHARGES
****
VDW energy = -312.23
@<TRIPOS>ATOM
   1 C1        3.4850    -9.0906    -5.4577  C.3     1  <O>11       0.0098
   2 N1        2.7955    -9.8278    -4.4362  N.am    1  <O>11      -0.2587
   3 C2        3.4570   -10.2010    -3.2970  C.2     1  <O>11       0.3037
   4 N2        4.7750    -9.8720    -3.1320  N.am    1  <O>11      -0.3129
   5 O1        2.8700   -10.8280    -2.4280  O.2     1  <O>11      -0.2525
   6 C3        1.4620   -10.1610    -4.6040  C.ar    1  <O>11       0.0392
   7 C4        0.5186    -9.1438    -4.7682  C.ar    1  <O>11      -0.0401
   8 C5       -0.8323    -9.4724    -4.9259  C.ar    1  <O>11      -0.0582
   9 C6       -1.2356   -10.8101    -4.9237  C.ar    1  <O>11      -0.0392
  10 C7       -0.2787   -11.8185    -4.7651  C.ar    1  <O>11       0.0498
  11 N3       -0.6990   -13.1969    -4.7653  N.pl3   1  <O>11      -0.2160
  12 S1       -1.6587   -13.7667    -3.5469  S.O2    1  <O>11       0.0780
  13 O2       -3.0830   -12.9138    -3.5184  O.2     1  <O>11      -0.1498
  14 O3       -0.8755   -13.5850    -2.0941  O.2     1  <O>11      -0.1498
  15 C8       -2.0025   -15.4810    -3.8211  C.ar    1  <O>11       0.1843
  16 C9       -2.8042   -16.1975    -2.9155  C.ar    1  <O>11       0.1907
  17 F1       -3.3318   -15.5590    -1.8221  F       1  <O>11      -0.2002
  18 C10      -3.0671   -17.5540    -3.1268  C.ar    1  <O>11       0.1983
  19 F2       -3.8482   -18.2444    -2.2335  F       1  <O>11      -0.1993
  20 C11      -2.5361   -18.2086    -4.2423  C.ar    1  <O>11       0.1992
  21 F3       -2.7870   -19.5402    -4.4521  F       1  <O>11      -0.1993
  22 C12      -1.7436   -17.4939    -5.1472  C.ar    1  <O>11       0.1983
  23 F4       -1.2267   -18.1398    -6.2385  F       1  <O>11      -0.1993
  24 C13      -1.4774   -16.1397    -4.9452  C.ar    1  <O>11       0.1907
  25 F5       -0.7069   -15.4370    -5.8351  F       1  <O>11      -0.2002
  26 C14       1.0712   -11.5009    -4.6087  C.ar    1  <O>11      -0.0178
  27 H1        2.8015    -8.8851    -6.2815  H       1  <O>11       0.0433
  28 H2        4.3281    -9.6772    -5.8227  H       1  <O>11       0.0433
  29 H3        3.8487    -8.1500    -5.0440  H       1  <O>11       0.0433
  30 H4        5.2680   -10.1500    -2.2830  H       1  <O>11       0.1465
  31 H5        5.2650    -9.3480    -3.8570  H       1  <O>11       0.1465
  32 H6       -0.4036   -13.8199    -5.5161  H       1  <O>11       0.1737
  33 H7        0.8163    -8.1557    -4.7732  H       1  <O>11       0.0636
  34 H8       -1.5332    -8.7242    -5.0442  H       1  <O>11       0.0619
  35 H9       -2.2322   -11.0527    -5.0381  H       1  <O>11       0.0636
  36 H10       1.7733   -12.2490    -4.4975  H       1  <O>11       0.0655
@<TRIPOS>BOND
     1     1     2    1
     2     2     3   am
     3     3     4   am
     4     3     5    2
     5     2     6    1
     6     6     7   ar
     7     7     8   ar
     8     8     9   ar
     9     9    10   ar
    10    10    11    1
    11    11    12    1
    12    12    13    2
    13    12    14    2
    14    12    15    1
    15    15    16   ar
    16    16    17    1
    17    16    18   ar
    18    18    19    1
    19    18    20   ar
    20    20    21    1
    21    20    22   ar
    22    22    23    1
    23    22    24   ar
    24    15    24   ar
    25    24    25    1
    26    10    26   ar
    27     6    26   ar
    28     1    27    1
    29     1    28    1
    30     1    29    1
    31     4    30    1
    32     4    31    1
    33    11    32    1
    34     7    33    1
    35     8    34    1
    36     9    35    1
    37    26    36    1
@<TRIPOS>MOLECULE
mol84_2_28
 36 37 0 0 0
SMALL
USER_CHARGES
****
VDW energy = -312.19
@<TRIPOS>ATOM
   1 C1        3.4850    -9.0906    -5.4577  C.3     1  <O>11       0.0098
   2 N1        2.7955    -9.8278    -4.4362  N.am    1  <O>11      -0.2587
   3 C2        3.4570   -10.2010    -3.2970  C.2     1  <O>11       0.3037
   4 N2        4.7750    -9.8720    -3.1320  N.am    1  <O>11      -0.3129
   5 O1        2.8700   -10.8280    -2.4280  O.2     1  <O>11      -0.2525
   6 C3        1.4620   -10.1610    -4.6040  C.ar    1  <O>11       0.0392
   7 C4        1.0871   -10.9543    -5.6911  C.ar    1  <O>11      -0.0401
   8 C5       -0.2602   -11.2848    -5.8741  C.ar    1  <O>11      -0.0582
   9 C6       -1.2250   -10.8280    -4.9726  C.ar    1  <O>11      -0.0392
  10 C7       -0.8339   -10.0400    -3.8846  C.ar    1  <O>11       0.0498
  11 N3       -1.8322    -9.5727    -2.9563  N.pl3   1  <O>11      -0.2160
  12 S1       -2.2221   -10.4858    -1.6354  S.O2    1  <O>11       0.0780
  13 O2       -0.8715   -10.7040    -0.6945  O.2     1  <O>11      -0.1498
  14 O3       -2.7948   -11.9628    -2.1328  O.2     1  <O>11      -0.1498
  15 C8       -3.4698    -9.6560    -0.6938  C.ar    1  <O>11       0.1843
  16 C9       -3.9721   -10.2354     0.4844  C.ar    1  <O>11       0.1907
  17 F1       -3.4816   -11.4434     0.9107  F       1  <O>11      -0.2002
  18 C10      -4.9651    -9.5847     1.2224  C.ar    1  <O>11       0.1983
  19 F2       -5.4509   -10.1620     2.3693  F       1  <O>11      -0.1993
  20 C11      -5.4650    -8.3508     0.7953  C.ar    1  <O>11       0.1992
  21 F3       -6.4423    -7.7102     1.5129  F       1  <O>11      -0.1993
  22 C12      -4.9603    -7.7710    -0.3737  C.ar    1  <O>11       0.1983
  23 F4       -5.4531    -6.5620    -0.7871  F       1  <O>11      -0.1993
  24 C13      -3.9684    -8.4124    -1.1156  C.ar    1  <O>11       0.1907
  25 F5       -3.4684    -7.8416    -2.2573  F       1  <O>11      -0.2002
  26 C14       0.5076    -9.7064    -3.6928  C.ar    1  <O>11      -0.0178
  27 H1        2.8015    -8.8851    -6.2815  H       1  <O>11       0.0433
  28 H2        4.3281    -9.6772    -5.8227  H       1  <O>11       0.0433
  29 H3        3.8487    -8.1500    -5.0440  H       1  <O>11       0.0433
  30 H4        5.2680   -10.1500    -2.2830  H       1  <O>11       0.1465
  31 H5        5.2650    -9.3480    -3.8570  H       1  <O>11       0.1465
  32 H6       -2.2981    -8.6801    -3.1153  H       1  <O>11       0.1737
  33 H7        1.7998   -11.2947    -6.3554  H       1  <O>11       0.0636
  34 H8       -0.5421   -11.8678    -6.6776  H       1  <O>11       0.0619
  35 H9       -2.2190   -11.0700    -5.1083  H       1  <O>11       0.0636
  36 H10       0.7909    -9.1293    -2.8854  H       1  <O>11       0.0655
@<TRIPOS>BOND
     1     1     2    1
     2     2     3   am
     3     3     4   am
     4     3     5    2
     5     2     6    1
     6     6     7   ar
     7     7     8   ar
     8     8     9   ar
     9     9    10   ar
    10    10    11    1
    11    11    12    1
    12    12    13    2
    13    12    14    2
    14    12    15    1
    15    15    16   ar
    16    16    17    1
    17    16    18   ar
    18    18    19    1
    19    18    20   ar
    20    20    21    1
    21    20    22   ar
    22    22    23    1
    23    22    24   ar
    24    15    24   ar
    25    24    25    1
    26    10    26   ar
    27     6    26   ar
    28     1    27    1
    29     1    28    1
    30     1    29    1
    31     4    30    1
    32     4    31    1
    33    11    32    1
    34     7    33    1
    35     8    34    1
    36     9    35    1
    37    26    36    1
@<TRIPOS>MOLECULE
mol84_2_29
 36 37 0 0 0
SMALL
USER_CHARGES
****
VDW energy = -309.83
@<TRIPOS>ATOM
   1 C1        3.4850    -9.0906    -5.4577  C.3     1  <O>11       0.0098
   2 N1        2.7955    -9.8278    -4.4362  N.am    1  <O>11      -0.2587
   3 C2        3.4570   -10.2010    -3.2970  C.2     1  <O>11       0.3037
   4 N2        4.7750    -9.8720    -3.1320  N.am    1  <O>11      -0.3129
   5 O1        2.8700   -10.8280    -2.4280  O.2     1  <O>11      -0.2525
   6 C3        1.4620   -10.1610    -4.6040  C.ar    1  <O>11       0.0392
   7 C4        0.5186    -9.1438    -4.7682  C.ar    1  <O>11      -0.0401
   8 C5       -0.8323    -9.4724    -4.9259  C.ar    1  <O>11      -0.0582
   9 C6       -1.2356   -10.8101    -4.9237  C.ar    1  <O>11      -0.0392
  10 C7       -0.2787   -11.8185    -4.7651  C.ar    1  <O>11       0.0498
  11 N3       -0.6990   -13.1969    -4.7653  N.pl3   1  <O>11      -0.2160
  12 S1        0.4185   -14.4000    -4.5802  S.O2    1  <O>11       0.0780
  13 O2        1.1927   -14.2178    -3.1228  O.2     1  <O>11      -0.1498
  14 O3        1.5296   -14.3179    -5.8114  O.2     1  <O>11      -0.1498
  15 C8       -0.3953   -15.9710    -4.6241  C.ar    1  <O>11       0.1843
  16 C9       -1.3856   -16.2837    -3.6766  C.ar    1  <O>11       0.1907
  17 F1       -1.7298   -15.3599    -2.7229  F       1  <O>11      -0.2002
  18 C10      -2.0208   -17.5285    -3.7051  C.ar    1  <O>11       0.1983
  19 F2       -2.9836   -17.8242    -2.7722  F       1  <O>11      -0.1993
  20 C11      -1.6775   -18.4720    -4.6782  C.ar    1  <O>11       0.1992
  21 F3       -2.2942   -19.6963    -4.7081  F       1  <O>11      -0.1993
  22 C12      -0.6966   -18.1583    -5.6253  C.ar    1  <O>11       0.1983
  23 F4       -0.3648   -19.0858    -6.5766  F       1  <O>11      -0.1993
  24 C13      -0.0586   -16.9180    -5.6055  C.ar    1  <O>11       0.1907
  25 F5        0.8974   -16.6073    -6.5374  F       1  <O>11      -0.2002
  26 C14       1.0712   -11.5009    -4.6087  C.ar    1  <O>11      -0.0178
  27 H1        2.8015    -8.8851    -6.2815  H       1  <O>11       0.0433
  28 H2        4.3281    -9.6772    -5.8227  H       1  <O>11       0.0433
  29 H3        3.8487    -8.1500    -5.0440  H       1  <O>11       0.0433
  30 H4        5.2680   -10.1500    -2.2830  H       1  <O>11       0.1465
  31 H5        5.2650    -9.3480    -3.8570  H       1  <O>11       0.1465
  32 H6       -1.6848   -13.4293    -4.8806  H       1  <O>11       0.1737
  33 H7        0.8163    -8.1557    -4.7732  H       1  <O>11       0.0636
  34 H8       -1.5332    -8.7242    -5.0442  H       1  <O>11       0.0619
  35 H9       -2.2322   -11.0527    -5.0381  H       1  <O>11       0.0636
  36 H10       1.7733   -12.2490    -4.4975  H       1  <O>11       0.0655
@<TRIPOS>BOND
     1     1     2    1
     2     2     3   am
     3     3     4   am
     4     3     5    2
     5     2     6    1
     6     6     7   ar
     7     7     8   ar
     8     8     9   ar
     9     9    10   ar
    10    10    11    1
    11    11    12    1
    12    12    13    2
    13    12    14    2
    14    12    15    1
    15    15    16   ar
    16    16    17    1
    17    16    18   ar
    18    18    19    1
    19    18    20   ar
    20    20    21    1
    21    20    22   ar
    22    22    23    1
    23    22    24   ar
    24    15    24   ar
    25    24    25    1
    26    10    26   ar
    27     6    26   ar
    28     1    27    1
    29     1    28    1
    30     1    29    1
    31     4    30    1
    32     4    31    1
    33    11    32    1
    34     7    33    1
    35     8    34    1
    36     9    35    1
    37    26    36    1
@<TRIPOS>MOLECULE
mol84_2_30
 36 37 0 0 0
SMALL
USER_CHARGES
****
VDW energy = -282.77
@<TRIPOS>ATOM
   1 C1        3.4850    -9.0906    -5.4577  C.3     1  <O>11       0.0098
   2 N1        2.7955    -9.8278    -4.4362  N.am    1  <O>11      -0.2587
   3 C2        3.4570   -10.2010    -3.2970  C.2     1  <O>11       0.3037
   4 N2        4.7750    -9.8720    -3.1320  N.am    1  <O>11      -0.3129
   5 O1        2.8700   -10.8280    -2.4280  O.2     1  <O>11      -0.2525
   6 C3        1.4620   -10.1610    -4.6040  C.ar    1  <O>11       0.0392
   7 C4        0.4754    -9.2802    -4.1540  C.ar    1  <O>11      -0.0401
   8 C5       -0.8741    -9.6158    -4.3090  C.ar    1  <O>11      -0.0582
   9 C6       -1.2337   -10.8227    -4.9142  C.ar    1  <O>11      -0.0392
  10 C7       -0.2347   -11.6918    -5.3662  C.ar    1  <O>11       0.0498
  11 N3       -0.6102   -12.9347    -5.9915  N.pl3   1  <O>11      -0.2160
  12 S1       -1.3781   -14.1025    -5.1100  S.O2    1  <O>11       0.0780
  13 O2       -1.6876   -15.4147    -6.0792  O.2     1  <O>11      -0.1498
  14 O3       -2.8087   -13.5002    -4.5204  O.2     1  <O>11      -0.1498
  15 C8       -0.3451   -14.5958    -3.7604  C.ar    1  <O>11       0.1843
  16 C9       -0.4146   -15.9062    -3.2560  C.ar    1  <O>11       0.1907
  17 F1       -1.2786   -16.8081    -3.8231  F       1  <O>11      -0.2002
  18 C10       0.3941   -16.2926    -2.1833  C.ar    1  <O>11       0.1983
  19 F2        0.3148   -17.5739    -1.6965  F       1  <O>11      -0.1993
  20 C11       1.2802   -15.3789    -1.6047  C.ar    1  <O>11       0.1992
  21 F3        2.0725   -15.7513    -0.5493  F       1  <O>11      -0.1993
  22 C12       1.3541   -14.0767    -2.1110  C.ar    1  <O>11       0.1983
  23 F4        2.2243   -13.1861    -1.5411  F       1  <O>11      -0.1993
  24 C13       0.5522   -13.6828    -3.1822  C.ar    1  <O>11       0.1907
  25 F5        0.6292   -12.4092    -3.6834  F       1  <O>11      -0.2002
  26 C14       1.1140   -11.3653    -5.2175  C.ar    1  <O>11      -0.0178
  27 H1        2.8015    -8.8851    -6.2815  H       1  <O>11       0.0433
  28 H2        4.3281    -9.6772    -5.8227  H       1  <O>11       0.0433
  29 H3        3.8487    -8.1500    -5.0440  H       1  <O>11       0.0433
  30 H4        5.2680   -10.1500    -2.2830  H       1  <O>11       0.1465
  31 H5        5.2650    -9.3480    -3.8570  H       1  <O>11       0.1465
  32 H6       -0.4013   -13.0934    -6.9765  H       1  <O>11       0.1737
  33 H7        0.7404    -8.3872    -3.7099  H       1  <O>11       0.0636
  34 H8       -1.6063    -8.9698    -3.9751  H       1  <O>11       0.0619
  35 H9       -2.2289   -11.0713    -5.0270  H       1  <O>11       0.0636
  36 H10       1.8465   -12.0078    -5.5578  H       1  <O>11       0.0655
@<TRIPOS>BOND
     1     1     2    1
     2     2     3   am
     3     3     4   am
     4     3     5    2
     5     2     6    1
     6     6     7   ar
     7     7     8   ar
     8     8     9   ar
     9     9    10   ar
    10    10    11    1
    11    11    12    1
    12    12    13    2
    13    12    14    2
    14    12    15    1
    15    15    16   ar
    16    16    17    1
    17    16    18   ar
    18    18    19    1
    19    18    20   ar
    20    20    21    1
    21    20    22   ar
    22    22    23    1
    23    22    24   ar
    24    15    24   ar
    25    24    25    1
    26    10    26   ar
    27     6    26   ar
    28     1    27    1
    29     1    28    1
    30     1    29    1
    31     4    30    1
    32     4    31    1
    33    11    32    1
    34     7    33    1
    35     8    34    1
    36     9    35    1
    37    26    36    1
