@<TRIPOS>MOLECULE
mol90_1_1
 48 52 0 0 0
SMALL
USER_CHARGES
****
VDW energy = -173.05
@<TRIPOS>ATOM
   1 O1        0.5046    -8.0405     5.6567  O.2     1  <O>11      -0.2698
   2 C1        1.4738    -7.6504     5.0424  C.2     1  <O>11       0.2511
   3 C2        2.5809    -6.7963     5.4892  C.2     1  <O>11       0.0138
   4 C3        3.4652    -6.6433     4.4974  C.2     1  <O>11       0.0497
   5 C4        4.6700    -5.8610     4.4230  C.ar    1  <O>11      -0.0127
   6 C5        5.9083    -6.4852     4.1848  C.ar    1  <O>11      -0.0539
   7 C6        7.0807    -5.7249     4.1252  C.ar    1  <O>11      -0.0612
   8 C7        7.0303    -4.3385     4.2975  C.ar    1  <O>11      -0.0617
   9 C8        5.7983    -3.7173     4.5273  C.ar    1  <O>11      -0.0612
  10 C9        4.6217    -4.4666     4.5865  C.ar    1  <O>11      -0.0539
  11 C10       2.9431    -7.4968     3.3849  C.2     1  <O>11       0.2582
  12 O2        3.4781    -7.7605     2.3298  O.2     1  <O>11      -0.2692
  13 N1        1.7239    -7.9522     3.7523  N.am    1  <O>11      -0.2028
  14 C11       0.7790    -8.6400     3.0090  C.ar    1  <O>11       0.0448
  15 C12      -0.2010    -7.9385     2.2858  C.ar    1  <O>11      -0.0398
  16 C13      -1.1630    -8.6354     1.5449  C.ar    1  <O>11      -0.0597
  17 C14      -1.1527   -10.0320     1.5144  C.ar    1  <O>11      -0.0581
  18 C15      -0.1723   -10.7288     2.2292  C.ar    1  <O>11      -0.0397
  19 C16      -0.1653   -12.2042     2.1928  C.3     1  <O>11       0.0172
  20 C17      -1.4507   -12.7195     2.7315  C.ar    1  <O>11       0.0736
  21 N2       -2.5318   -12.9348     1.8696  N.ar    1  <O>11      -0.1750
  22 N3       -3.7388   -13.3041     2.3591  N.ar    1  <O>11      -0.2425
  23 C18      -3.8839   -13.4723     3.6943  C.ar    1  <O>11       0.2725
  24 O3       -5.1855   -13.7602     4.1465  O.2     1  <O>11      -0.2658
  25 C19      -2.8284   -13.3770     4.6132  C.ar    1  <O>11       0.0496
  26 C20      -2.9661   -13.6090     6.0009  C.ar    1  <O>11      -0.0487
  27 C21      -1.8799   -13.4657     6.8650  C.ar    1  <O>11      -0.0610
  28 C22      -0.6423   -13.0796     6.3624  C.ar    1  <O>11      -0.0611
  29 C23      -0.4903   -12.8390     4.9960  C.ar    1  <O>11      -0.0521
  30 C24      -1.5770   -12.9875     4.1043  C.ar    1  <O>11       0.0106
  31 C25       0.7923   -10.0443     2.9705  C.ar    1  <O>11      -0.0363
  32 H1        2.6802    -6.3513     6.4682  H       1  <O>11       0.0677
  33 H2        0.6591   -12.5790     2.7986  H       1  <O>11       0.0377
  34 H3       -0.0422   -12.5417     1.1638  H       1  <O>11       0.0377
  35 H4       -4.5198   -13.4506     1.7362  H       1  <O>11       0.1921
  36 H5        5.9516    -7.5079     4.0538  H       1  <O>11       0.0624
  37 H6        7.9862    -6.1891     3.9533  H       1  <O>11       0.0618
  38 H7        7.8956    -3.7777     4.2555  H       1  <O>11       0.0618
  39 H8        5.7586    -2.6940     4.6544  H       1  <O>11       0.0618
  40 H9        3.7176    -3.9966     4.7502  H       1  <O>11       0.0624
  41 H10      -0.2115    -6.9066     2.3010  H       1  <O>11       0.0636
  42 H11      -1.8828    -8.1152     1.0191  H       1  <O>11       0.0618
  43 H12      -1.8625   -10.5456     0.9690  H       1  <O>11       0.0620
  44 H13      -3.8841   -13.8887     6.3807  H       1  <O>11       0.0625
  45 H14      -1.9949   -13.6457     7.8747  H       1  <O>11       0.0618
  46 H15       0.1627   -12.9711     6.9989  H       1  <O>11       0.0618
  47 H16       0.4302   -12.5482     4.6309  H       1  <O>11       0.0624
  48 H17       1.5138   -10.5689     3.4893  H       1  <O>11       0.0639
@<TRIPOS>BOND
     1     1     2    2
     2     2     3    1
     3     3     4    2
     4     4     5    1
     5     5     6   ar
     6     6     7   ar
     7     7     8   ar
     8     8     9   ar
     9     9    10   ar
    10     5    10   ar
    11     4    11    1
    12    11    12    2
    13    11    13   am
    14     2    13   am
    15    13    14    1
    16    14    15   ar
    17    15    16   ar
    18    16    17   ar
    19    17    18   ar
    20    18    19    1
    21    19    20    1
    22    20    21   ar
    23    21    22   ar
    24    22    23   ar
    25    23    24    2
    26    23    25   ar
    27    25    26   ar
    28    26    27   ar
    29    27    28   ar
    30    28    29   ar
    31    29    30   ar
    32    20    30   ar
    33    25    30   ar
    34    18    31   ar
    35    14    31   ar
    36     3    32    1
    37    19    33    1
    38    19    34    1
    39    22    35    1
    40     6    36    1
    41     7    37    1
    42     8    38    1
    43     9    39    1
    44    10    40    1
    45    15    41    1
    46    16    42    1
    47    17    43    1
    48    26    44    1
    49    27    45    1
    50    28    46    1
    51    29    47    1
    52    31    48    1
@<TRIPOS>MOLECULE
mol90_1_2
 48 52 0 0 0
SMALL
USER_CHARGES
****
VDW energy = -172.30
@<TRIPOS>ATOM
   1 O1        0.5046    -8.0405     5.6567  O.2     1  <O>11      -0.2698
   2 C1        1.4738    -7.6504     5.0424  C.2     1  <O>11       0.2511
   3 C2        2.5809    -6.7963     5.4892  C.2     1  <O>11       0.0138
   4 C3        3.4652    -6.6433     4.4974  C.2     1  <O>11       0.0497
   5 C4        4.6700    -5.8610     4.4230  C.ar    1  <O>11      -0.0127
   6 C5        4.8027    -4.8524     3.4510  C.ar    1  <O>11      -0.0539
   7 C6        5.9796    -4.1009     3.3717  C.ar    1  <O>11      -0.0612
   8 C7        7.0311    -4.3434     4.2603  C.ar    1  <O>11      -0.0617
   9 C8        6.8963    -5.3414     5.2310  C.ar    1  <O>11      -0.0612
  10 C9        5.7249    -6.0959     5.3204  C.ar    1  <O>11      -0.0539
  11 C10       2.9431    -7.4968     3.3849  C.2     1  <O>11       0.2582
  12 O2        3.4781    -7.7605     2.3298  O.2     1  <O>11      -0.2692
  13 N1        1.7239    -7.9522     3.7523  N.am    1  <O>11      -0.2028
  14 C11       0.7790    -8.6400     3.0090  C.ar    1  <O>11       0.0448
  15 C12       0.2333    -8.0633     1.8491  C.ar    1  <O>11      -0.0398
  16 C13      -0.7308    -8.7546     1.1057  C.ar    1  <O>11      -0.0597
  17 C14      -1.1533   -10.0240     1.5077  C.ar    1  <O>11      -0.0581
  18 C15      -0.6041   -10.5997     2.6586  C.ar    1  <O>11      -0.0397
  19 C16      -1.0532   -11.9415     3.0784  C.3     1  <O>11       0.0172
  20 C17      -2.2168   -11.8111     3.9933  C.ar    1  <O>11       0.0736
  21 N2       -2.7068   -10.5423     4.3219  N.ar    1  <O>11      -0.1750
  22 N3       -3.6978   -10.4025     5.2337  N.ar    1  <O>11      -0.2425
  23 C18      -4.2160   -11.5085     5.8169  C.ar    1  <O>11       0.2725
  24 O3       -5.1731   -11.2887     6.8255  O.2     1  <O>11      -0.2658
  25 C19      -3.8536   -12.8181     5.4690  C.ar    1  <O>11       0.0496
  26 C20      -4.4350   -13.9755     6.0357  C.ar    1  <O>11      -0.0487
  27 C21      -4.0046   -15.2505     5.6669  C.ar    1  <O>11      -0.0610
  28 C22      -2.9820   -15.3930     4.7356  C.ar    1  <O>11      -0.0611
  29 C23      -2.3914   -14.2610     4.1716  C.ar    1  <O>11      -0.0521
  30 C24      -2.8202   -12.9617     4.5265  C.ar    1  <O>11       0.0106
  31 C25       0.3584    -9.9200     3.4070  C.ar    1  <O>11      -0.0363
  32 H1        2.6802    -6.3513     6.4682  H       1  <O>11       0.0677
  33 H2       -0.2406   -12.4522     3.5942  H       1  <O>11       0.0377
  34 H3       -1.3450   -12.5180     2.2006  H       1  <O>11       0.0377
  35 H4       -4.0440    -9.4855     5.4756  H       1  <O>11       0.1921
  36 H5        4.0288    -4.6665     2.7941  H       1  <O>11       0.0624
  37 H6        6.0720    -3.3646     2.6545  H       1  <O>11       0.0618
  38 H7        7.9004    -3.7903     4.2005  H       1  <O>11       0.0618
  39 H8        7.6710    -5.5220     5.8884  H       1  <O>11       0.0618
  40 H9        5.6342    -6.8253     6.0449  H       1  <O>11       0.0624
  41 H10       0.5443    -7.1275     1.5446  H       1  <O>11       0.0636
  42 H11      -1.1310    -8.3246     0.2572  H       1  <O>11       0.0618
  43 H12      -1.8647   -10.5330     0.9601  H       1  <O>11       0.0620
  44 H13      -5.1894   -13.8758     6.7329  H       1  <O>11       0.0625
  45 H14      -4.4441   -16.0857     6.0844  H       1  <O>11       0.0618
  46 H15      -2.6601   -16.3344     4.4617  H       1  <O>11       0.0618
  47 H16      -1.6298   -14.3745     3.4846  H       1  <O>11       0.0624
  48 H17       0.7604   -10.3570     4.2511  H       1  <O>11       0.0639
@<TRIPOS>BOND
     1     1     2    2
     2     2     3    1
     3     3     4    2
     4     4     5    1
     5     5     6   ar
     6     6     7   ar
     7     7     8   ar
     8     8     9   ar
     9     9    10   ar
    10     5    10   ar
    11     4    11    1
    12    11    12    2
    13    11    13   am
    14     2    13   am
    15    13    14    1
    16    14    15   ar
    17    15    16   ar
    18    16    17   ar
    19    17    18   ar
    20    18    19    1
    21    19    20    1
    22    20    21   ar
    23    21    22   ar
    24    22    23   ar
    25    23    24    2
    26    23    25   ar
    27    25    26   ar
    28    26    27   ar
    29    27    28   ar
    30    28    29   ar
    31    29    30   ar
    32    20    30   ar
    33    25    30   ar
    34    18    31   ar
    35    14    31   ar
    36     3    32    1
    37    19    33    1
    38    19    34    1
    39    22    35    1
    40     6    36    1
    41     7    37    1
    42     8    38    1
    43     9    39    1
    44    10    40    1
    45    15    41    1
    46    16    42    1
    47    17    43    1
    48    26    44    1
    49    27    45    1
    50    28    46    1
    51    29    47    1
    52    31    48    1
@<TRIPOS>MOLECULE
mol90_1_3
 48 52 0 0 0
SMALL
USER_CHARGES
****
VDW energy = -172.14
@<TRIPOS>ATOM
   1 O1        0.5046    -8.0405     5.6567  O.2     1  <O>11      -0.2698
   2 C1        1.4738    -7.6504     5.0424  C.2     1  <O>11       0.2511
   3 C2        2.5809    -6.7963     5.4892  C.2     1  <O>11       0.0138
   4 C3        3.4652    -6.6433     4.4974  C.2     1  <O>11       0.0497
   5 C4        4.6700    -5.8610     4.4230  C.ar    1  <O>11      -0.0127
   6 C5        5.9083    -6.4852     4.1848  C.ar    1  <O>11      -0.0539
   7 C6        7.0807    -5.7249     4.1252  C.ar    1  <O>11      -0.0612
   8 C7        7.0303    -4.3385     4.2975  C.ar    1  <O>11      -0.0617
   9 C8        5.7983    -3.7173     4.5273  C.ar    1  <O>11      -0.0612
  10 C9        4.6217    -4.4666     4.5865  C.ar    1  <O>11      -0.0539
  11 C10       2.9431    -7.4968     3.3849  C.2     1  <O>11       0.2582
  12 O2        3.4781    -7.7605     2.3298  O.2     1  <O>11      -0.2692
  13 N1        1.7239    -7.9522     3.7523  N.am    1  <O>11      -0.2028
  14 C11       0.7790    -8.6400     3.0090  C.ar    1  <O>11       0.0448
  15 C12       0.2333    -8.0633     1.8491  C.ar    1  <O>11      -0.0398
  16 C13      -0.7308    -8.7546     1.1057  C.ar    1  <O>11      -0.0597
  17 C14      -1.1533   -10.0240     1.5077  C.ar    1  <O>11      -0.0581
  18 C15      -0.6041   -10.5997     2.6586  C.ar    1  <O>11      -0.0397
  19 C16      -1.0532   -11.9415     3.0784  C.3     1  <O>11       0.0172
  20 C17      -2.2168   -11.8111     3.9933  C.ar    1  <O>11       0.0736
  21 N2       -2.7066   -10.5422     4.3222  N.ar    1  <O>11      -0.1750
  22 N3       -3.6975   -10.4025     5.2340  N.ar    1  <O>11      -0.2425
  23 C18      -4.2160   -11.5086     5.8169  C.ar    1  <O>11       0.2725
  24 O3       -5.1730   -11.2888     6.8255  O.2     1  <O>11      -0.2658
  25 C19      -3.8538   -12.8182     5.4687  C.ar    1  <O>11       0.0496
  26 C20      -4.4355   -13.9755     6.0352  C.ar    1  <O>11      -0.0487
  27 C21      -4.0053   -15.2506     5.6660  C.ar    1  <O>11      -0.0610
  28 C22      -2.9827   -15.3930     4.7347  C.ar    1  <O>11      -0.0611
  29 C23      -2.3919   -14.2610     4.1710  C.ar    1  <O>11      -0.0521
  30 C24      -2.8204   -12.9617     4.5262  C.ar    1  <O>11       0.0106
  31 C25       0.3584    -9.9200     3.4070  C.ar    1  <O>11      -0.0363
  32 H1        2.6802    -6.3513     6.4682  H       1  <O>11       0.0677
  33 H2       -0.2406   -12.4522     3.5942  H       1  <O>11       0.0377
  34 H3       -1.3450   -12.5180     2.2006  H       1  <O>11       0.0377
  35 H4       -4.0436    -9.4855     5.4761  H       1  <O>11       0.1921
  36 H5        5.9516    -7.5079     4.0538  H       1  <O>11       0.0624
  37 H6        7.9862    -6.1891     3.9533  H       1  <O>11       0.0618
  38 H7        7.8956    -3.7777     4.2555  H       1  <O>11       0.0618
  39 H8        5.7586    -2.6940     4.6544  H       1  <O>11       0.0618
  40 H9        3.7176    -3.9966     4.7502  H       1  <O>11       0.0624
  41 H10       0.5443    -7.1275     1.5446  H       1  <O>11       0.0636
  42 H11      -1.1310    -8.3246     0.2572  H       1  <O>11       0.0618
  43 H12      -1.8647   -10.5330     0.9601  H       1  <O>11       0.0620
  44 H13      -5.1899   -13.8759     6.7323  H       1  <O>11       0.0625
  45 H14      -4.4449   -16.0858     6.0833  H       1  <O>11       0.0618
  46 H15      -2.6610   -16.3345     4.4606  H       1  <O>11       0.0618
  47 H16      -1.6302   -14.3745     3.4840  H       1  <O>11       0.0624
  48 H17       0.7604   -10.3570     4.2511  H       1  <O>11       0.0639
@<TRIPOS>BOND
     1     1     2    2
     2     2     3    1
     3     3     4    2
     4     4     5    1
     5     5     6   ar
     6     6     7   ar
     7     7     8   ar
     8     8     9   ar
     9     9    10   ar
    10     5    10   ar
    11     4    11    1
    12    11    12    2
    13    11    13   am
    14     2    13   am
    15    13    14    1
    16    14    15   ar
    17    15    16   ar
    18    16    17   ar
    19    17    18   ar
    20    18    19    1
    21    19    20    1
    22    20    21   ar
    23    21    22   ar
    24    22    23   ar
    25    23    24    2
    26    23    25   ar
    27    25    26   ar
    28    26    27   ar
    29    27    28   ar
    30    28    29   ar
    31    29    30   ar
    32    20    30   ar
    33    25    30   ar
    34    18    31   ar
    35    14    31   ar
    36     3    32    1
    37    19    33    1
    38    19    34    1
    39    22    35    1
    40     6    36    1
    41     7    37    1
    42     8    38    1
    43     9    39    1
    44    10    40    1
    45    15    41    1
    46    16    42    1
    47    17    43    1
    48    26    44    1
    49    27    45    1
    50    28    46    1
    51    29    47    1
    52    31    48    1
@<TRIPOS>MOLECULE
mol90_1_4
 48 52 0 0 0
SMALL
USER_CHARGES
****
VDW energy = -172.07
@<TRIPOS>ATOM
   1 O1        0.5046    -8.0405     5.6567  O.2     1  <O>11      -0.2698
   2 C1        1.4738    -7.6504     5.0424  C.2     1  <O>11       0.2511
   3 C2        2.5809    -6.7963     5.4892  C.2     1  <O>11       0.0138
   4 C3        3.4652    -6.6433     4.4974  C.2     1  <O>11       0.0497
   5 C4        4.6700    -5.8610     4.4230  C.ar    1  <O>11      -0.0127
   6 C5        5.9083    -6.4852     4.1848  C.ar    1  <O>11      -0.0539
   7 C6        7.0807    -5.7249     4.1252  C.ar    1  <O>11      -0.0612
   8 C7        7.0303    -4.3385     4.2975  C.ar    1  <O>11      -0.0617
   9 C8        5.7983    -3.7173     4.5273  C.ar    1  <O>11      -0.0612
  10 C9        4.6217    -4.4666     4.5865  C.ar    1  <O>11      -0.0539
  11 C10       2.9431    -7.4968     3.3849  C.2     1  <O>11       0.2582
  12 O2        3.4781    -7.7605     2.3298  O.2     1  <O>11      -0.2692
  13 N1        1.7239    -7.9522     3.7523  N.am    1  <O>11      -0.2028
  14 C11       0.7790    -8.6400     3.0090  C.ar    1  <O>11       0.0448
  15 C12       0.2333    -8.0633     1.8491  C.ar    1  <O>11      -0.0398
  16 C13      -0.7308    -8.7546     1.1057  C.ar    1  <O>11      -0.0597
  17 C14      -1.1533   -10.0240     1.5077  C.ar    1  <O>11      -0.0581
  18 C15      -0.6041   -10.5997     2.6586  C.ar    1  <O>11      -0.0397
  19 C16      -1.0532   -11.9415     3.0784  C.3     1  <O>11       0.0172
  20 C17      -0.1915   -12.9734     2.4456  C.ar    1  <O>11       0.0736
  21 N2        0.8527   -12.5860     1.5985  N.ar    1  <O>11      -0.1750
  22 N3        1.5796   -13.5146     0.9336  N.ar    1  <O>11      -0.2425
  23 C18       1.2890   -14.8253     1.1067  C.ar    1  <O>11       0.2725
  24 O3        2.0157   -15.7329     0.3134  O.2     1  <O>11      -0.2658
  25 C19       0.3295   -15.2998     2.0131  C.ar    1  <O>11       0.0496
  26 C20       0.0649   -16.6703     2.2376  C.ar    1  <O>11      -0.0487
  27 C21      -0.9273   -17.0739     3.1319  C.ar    1  <O>11      -0.0610
  28 C22      -1.6780   -16.1194     3.8092  C.ar    1  <O>11      -0.0611
  29 C23      -1.4353   -14.7618     3.5940  C.ar    1  <O>11      -0.0521
  30 C24      -0.4287   -14.3343     2.6984  C.ar    1  <O>11       0.0106
  31 C25       0.3584    -9.9200     3.4070  C.ar    1  <O>11      -0.0363
  32 H1        2.6802    -6.3513     6.4682  H       1  <O>11       0.0677
  33 H2       -2.0872   -12.0919     2.7695  H       1  <O>11       0.0377
  34 H3       -0.9826   -12.0254     4.1629  H       1  <O>11       0.0377
  35 H4        2.3270   -13.2326     0.3163  H       1  <O>11       0.1921
  36 H5        5.9516    -7.5079     4.0538  H       1  <O>11       0.0624
  37 H6        7.9862    -6.1891     3.9533  H       1  <O>11       0.0618
  38 H7        7.8956    -3.7777     4.2555  H       1  <O>11       0.0618
  39 H8        5.7586    -2.6940     4.6544  H       1  <O>11       0.0618
  40 H9        3.7176    -3.9966     4.7502  H       1  <O>11       0.0624
  41 H10       0.5443    -7.1275     1.5446  H       1  <O>11       0.0636
  42 H11      -1.1310    -8.3246     0.2572  H       1  <O>11       0.0618
  43 H12      -1.8647   -10.5330     0.9601  H       1  <O>11       0.0620
  44 H13       0.6140   -17.3832     1.7323  H       1  <O>11       0.0625
  45 H14      -1.1035   -18.0783     3.2902  H       1  <O>11       0.0618
  46 H15      -2.4136   -16.4143     4.4701  H       1  <O>11       0.0618
  47 H16      -1.9997   -14.0591     4.0966  H       1  <O>11       0.0624
  48 H17       0.7604   -10.3570     4.2511  H       1  <O>11       0.0639
@<TRIPOS>BOND
     1     1     2    2
     2     2     3    1
     3     3     4    2
     4     4     5    1
     5     5     6   ar
     6     6     7   ar
     7     7     8   ar
     8     8     9   ar
     9     9    10   ar
    10     5    10   ar
    11     4    11    1
    12    11    12    2
    13    11    13   am
    14     2    13   am
    15    13    14    1
    16    14    15   ar
    17    15    16   ar
    18    16    17   ar
    19    17    18   ar
    20    18    19    1
    21    19    20    1
    22    20    21   ar
    23    21    22   ar
    24    22    23   ar
    25    23    24    2
    26    23    25   ar
    27    25    26   ar
    28    26    27   ar
    29    27    28   ar
    30    28    29   ar
    31    29    30   ar
    32    20    30   ar
    33    25    30   ar
    34    18    31   ar
    35    14    31   ar
    36     3    32    1
    37    19    33    1
    38    19    34    1
    39    22    35    1
    40     6    36    1
    41     7    37    1
    42     8    38    1
    43     9    39    1
    44    10    40    1
    45    15    41    1
    46    16    42    1
    47    17    43    1
    48    26    44    1
    49    27    45    1
    50    28    46    1
    51    29    47    1
    52    31    48    1
@<TRIPOS>MOLECULE
mol90_1_5
 48 52 0 0 0
SMALL
USER_CHARGES
****
VDW energy = -170.75
@<TRIPOS>ATOM
   1 O1        0.5046    -8.0405     5.6567  O.2     1  <O>11      -0.2698
   2 C1        1.4738    -7.6504     5.0424  C.2     1  <O>11       0.2511
   3 C2        2.5809    -6.7963     5.4892  C.2     1  <O>11       0.0138
   4 C3        3.4652    -6.6433     4.4974  C.2     1  <O>11       0.0497
   5 C4        4.6700    -5.8610     4.4230  C.ar    1  <O>11      -0.0127
   6 C5        5.9083    -6.4852     4.1848  C.ar    1  <O>11      -0.0539
   7 C6        7.0807    -5.7249     4.1252  C.ar    1  <O>11      -0.0612
   8 C7        7.0303    -4.3385     4.2975  C.ar    1  <O>11      -0.0617
   9 C8        5.7983    -3.7173     4.5273  C.ar    1  <O>11      -0.0612
  10 C9        4.6217    -4.4666     4.5865  C.ar    1  <O>11      -0.0539
  11 C10       2.9431    -7.4968     3.3849  C.2     1  <O>11       0.2582
  12 O2        3.4781    -7.7605     2.3298  O.2     1  <O>11      -0.2692
  13 N1        1.7239    -7.9522     3.7523  N.am    1  <O>11      -0.2028
  14 C11       0.7790    -8.6400     3.0090  C.ar    1  <O>11       0.0448
  15 C12       1.0938    -9.8876     2.4433  C.ar    1  <O>11      -0.0398
  16 C13       0.1417   -10.5760     1.6819  C.ar    1  <O>11      -0.0597
  17 C14      -1.1292   -10.0309     1.4834  C.ar    1  <O>11      -0.0581
  18 C15      -1.4434    -8.7921     2.0530  C.ar    1  <O>11      -0.0397
  19 C16      -2.7878    -8.2212     1.8409  C.3     1  <O>11       0.0172
  20 C17      -3.0206    -8.0281     0.3862  C.ar    1  <O>11       0.0736
  21 N2       -3.5920    -9.0567    -0.3712  N.ar    1  <O>11      -0.1750
  22 N3       -3.7146    -8.9356    -1.7140  N.ar    1  <O>11      -0.2425
  23 C18      -3.2857    -7.8007    -2.3142  C.ar    1  <O>11       0.2725
  24 O3       -3.3515    -7.7782    -3.7201  O.2     1  <O>11      -0.2658
  25 C19      -2.7978    -6.6850    -1.6182  C.ar    1  <O>11       0.0496
  26 C20      -2.4036    -5.4774    -2.2387  C.ar    1  <O>11      -0.0487
  27 C21      -1.8960    -4.4159    -1.4885  C.ar    1  <O>11      -0.0610
  28 C22      -1.7640    -4.5437    -0.1103  C.ar    1  <O>11      -0.0611
  29 C23      -2.1412    -5.7317     0.5180  C.ar    1  <O>11      -0.0521
  30 C24      -2.6653    -6.8144    -0.2244  C.ar    1  <O>11       0.0106
  31 C25      -0.5023    -8.0975     2.8147  C.ar    1  <O>11      -0.0363
  32 H1        2.6802    -6.3513     6.4682  H       1  <O>11       0.0677
  33 H2       -2.8598    -7.2613     2.3513  H       1  <O>11       0.0377
  34 H3       -3.5389    -8.9022     2.2411  H       1  <O>11       0.0377
  35 H4       -4.1193    -9.6824    -2.2597  H       1  <O>11       0.1921
  36 H5        5.9516    -7.5079     4.0538  H       1  <O>11       0.0624
  37 H6        7.9862    -6.1891     3.9533  H       1  <O>11       0.0618
  38 H7        7.8956    -3.7777     4.2555  H       1  <O>11       0.0618
  39 H8        5.7586    -2.6940     4.6544  H       1  <O>11       0.0618
  40 H9        3.7176    -3.9966     4.7502  H       1  <O>11       0.0624
  41 H10       2.0296   -10.2975     2.5897  H       1  <O>11       0.0636
  42 H11       0.3797   -11.4898     1.2655  H       1  <O>11       0.0618
  43 H12      -1.8305   -10.5380     0.9213  H       1  <O>11       0.0620
  44 H13      -2.4925    -5.3795    -3.2622  H       1  <O>11       0.0625
  45 H14      -1.6193    -3.5382    -1.9555  H       1  <O>11       0.0618
  46 H15      -1.3875    -3.7613     0.4474  H       1  <O>11       0.0618
  47 H16      -2.0358    -5.8209     1.5407  H       1  <O>11       0.0624
  48 H17      -0.7473    -7.1871     3.2344  H       1  <O>11       0.0639
@<TRIPOS>BOND
     1     1     2    2
     2     2     3    1
     3     3     4    2
     4     4     5    1
     5     5     6   ar
     6     6     7   ar
     7     7     8   ar
     8     8     9   ar
     9     9    10   ar
    10     5    10   ar
    11     4    11    1
    12    11    12    2
    13    11    13   am
    14     2    13   am
    15    13    14    1
    16    14    15   ar
    17    15    16   ar
    18    16    17   ar
    19    17    18   ar
    20    18    19    1
    21    19    20    1
    22    20    21   ar
    23    21    22   ar
    24    22    23   ar
    25    23    24    2
    26    23    25   ar
    27    25    26   ar
    28    26    27   ar
    29    27    28   ar
    30    28    29   ar
    31    29    30   ar
    32    20    30   ar
    33    25    30   ar
    34    18    31   ar
    35    14    31   ar
    36     3    32    1
    37    19    33    1
    38    19    34    1
    39    22    35    1
    40     6    36    1
    41     7    37    1
    42     8    38    1
    43     9    39    1
    44    10    40    1
    45    15    41    1
    46    16    42    1
    47    17    43    1
    48    26    44    1
    49    27    45    1
    50    28    46    1
    51    29    47    1
    52    31    48    1
@<TRIPOS>MOLECULE
mol90_1_6
 48 52 0 0 0
SMALL
USER_CHARGES
****
VDW energy = -170.68
@<TRIPOS>ATOM
   1 O1        0.5046    -8.0405     5.6567  O.2     1  <O>11      -0.2698
   2 C1        1.4738    -7.6504     5.0424  C.2     1  <O>11       0.2511
   3 C2        2.5809    -6.7963     5.4892  C.2     1  <O>11       0.0138
   4 C3        3.4652    -6.6433     4.4974  C.2     1  <O>11       0.0497
   5 C4        4.6700    -5.8610     4.4230  C.ar    1  <O>11      -0.0127
   6 C5        5.9083    -6.4852     4.1848  C.ar    1  <O>11      -0.0539
   7 C6        7.0807    -5.7249     4.1252  C.ar    1  <O>11      -0.0612
   8 C7        7.0303    -4.3385     4.2975  C.ar    1  <O>11      -0.0617
   9 C8        5.7983    -3.7173     4.5273  C.ar    1  <O>11      -0.0612
  10 C9        4.6217    -4.4666     4.5865  C.ar    1  <O>11      -0.0539
  11 C10       2.9431    -7.4968     3.3849  C.2     1  <O>11       0.2582
  12 O2        3.4781    -7.7605     2.3298  O.2     1  <O>11      -0.2692
  13 N1        1.7239    -7.9522     3.7523  N.am    1  <O>11      -0.2028
  14 C11       0.7790    -8.6400     3.0090  C.ar    1  <O>11       0.0448
  15 C12       0.2333    -8.0633     1.8491  C.ar    1  <O>11      -0.0398
  16 C13      -0.7308    -8.7546     1.1057  C.ar    1  <O>11      -0.0597
  17 C14      -1.1533   -10.0240     1.5077  C.ar    1  <O>11      -0.0581
  18 C15      -0.6041   -10.5997     2.6586  C.ar    1  <O>11      -0.0397
  19 C16      -1.0532   -11.9415     3.0784  C.3     1  <O>11       0.0172
  20 C17      -2.5155   -11.9152     3.3409  C.ar    1  <O>11       0.0736
  21 N2       -3.4150   -12.1925     2.3055  N.ar    1  <O>11      -0.1750
  22 N3       -4.7489   -12.0710     2.5021  N.ar    1  <O>11      -0.2425
  23 C18      -5.2024   -11.6867     3.7182  C.ar    1  <O>11       0.2725
  24 O3       -6.5912   -11.4851     3.8282  O.2     1  <O>11      -0.2658
  25 C19      -4.3758   -11.4901     4.8342  C.ar    1  <O>11       0.0496
  26 C20      -4.8529   -11.1452     6.1195  C.ar    1  <O>11      -0.0487
  27 C21      -3.9717   -10.9328     7.1804  C.ar    1  <O>11      -0.0610
  28 C22      -2.6015   -11.0511     6.9758  C.ar    1  <O>11      -0.0611
  29 C23      -2.1125   -11.3835     5.7114  C.ar    1  <O>11      -0.0521
  30 C24      -2.9904   -11.6107     4.6270  C.ar    1  <O>11       0.0106
  31 C25       0.3584    -9.9200     3.4070  C.ar    1  <O>11      -0.0363
  32 H1        2.6802    -6.3513     6.4682  H       1  <O>11       0.0677
  33 H2       -0.5261   -12.2340     3.9860  H       1  <O>11       0.0377
  34 H3       -0.8397   -12.6601     2.2872  H       1  <O>11       0.0377
  35 H4       -5.3958   -12.2633     1.7513  H       1  <O>11       0.1921
  36 H5        5.9516    -7.5079     4.0538  H       1  <O>11       0.0624
  37 H6        7.9862    -6.1891     3.9533  H       1  <O>11       0.0618
  38 H7        7.8956    -3.7777     4.2555  H       1  <O>11       0.0618
  39 H8        5.7586    -2.6940     4.6544  H       1  <O>11       0.0618
  40 H9        3.7176    -3.9966     4.7502  H       1  <O>11       0.0624
  41 H10       0.5443    -7.1275     1.5446  H       1  <O>11       0.0636
  42 H11      -1.1310    -8.3246     0.2572  H       1  <O>11       0.0618
  43 H12      -1.8647   -10.5330     0.9601  H       1  <O>11       0.0620
  44 H13      -5.8685   -11.0489     6.2755  H       1  <O>11       0.0625
  45 H14      -4.3360   -10.6886     8.1145  H       1  <O>11       0.0618
  46 H15      -1.9468   -10.8932     7.7578  H       1  <O>11       0.0618
  47 H16      -1.0941   -11.4648     5.5660  H       1  <O>11       0.0624
  48 H17       0.7604   -10.3570     4.2511  H       1  <O>11       0.0639
@<TRIPOS>BOND
     1     1     2    2
     2     2     3    1
     3     3     4    2
     4     4     5    1
     5     5     6   ar
     6     6     7   ar
     7     7     8   ar
     8     8     9   ar
     9     9    10   ar
    10     5    10   ar
    11     4    11    1
    12    11    12    2
    13    11    13   am
    14     2    13   am
    15    13    14    1
    16    14    15   ar
    17    15    16   ar
    18    16    17   ar
    19    17    18   ar
    20    18    19    1
    21    19    20    1
    22    20    21   ar
    23    21    22   ar
    24    22    23   ar
    25    23    24    2
    26    23    25   ar
    27    25    26   ar
    28    26    27   ar
    29    27    28   ar
    30    28    29   ar
    31    29    30   ar
    32    20    30   ar
    33    25    30   ar
    34    18    31   ar
    35    14    31   ar
    36     3    32    1
    37    19    33    1
    38    19    34    1
    39    22    35    1
    40     6    36    1
    41     7    37    1
    42     8    38    1
    43     9    39    1
    44    10    40    1
    45    15    41    1
    46    16    42    1
    47    17    43    1
    48    26    44    1
    49    27    45    1
    50    28    46    1
    51    29    47    1
    52    31    48    1
@<TRIPOS>MOLECULE
mol90_1_7
 48 52 0 0 0
SMALL
USER_CHARGES
****
VDW energy = -170.27
@<TRIPOS>ATOM
   1 O1        0.5046    -8.0405     5.6567  O.2     1  <O>11      -0.2698
   2 C1        1.4738    -7.6504     5.0424  C.2     1  <O>11       0.2511
   3 C2        2.5809    -6.7963     5.4892  C.2     1  <O>11       0.0138
   4 C3        3.4652    -6.6433     4.4974  C.2     1  <O>11       0.0497
   5 C4        4.6700    -5.8610     4.4230  C.ar    1  <O>11      -0.0127
   6 C5        5.9029    -6.4176     4.8100  C.ar    1  <O>11      -0.0539
   7 C6        7.0718    -5.6519     4.7490  C.ar    1  <O>11      -0.0612
   8 C7        7.0243    -4.3292     4.2991  C.ar    1  <O>11      -0.0617
   9 C8        5.7996    -3.7783     3.9078  C.ar    1  <O>11      -0.0612
  10 C9        4.6273    -4.5345     3.9626  C.ar    1  <O>11      -0.0539
  11 C10       2.9431    -7.4968     3.3849  C.2     1  <O>11       0.2582
  12 O2        3.4781    -7.7605     2.3298  O.2     1  <O>11      -0.2692
  13 N1        1.7239    -7.9522     3.7523  N.am    1  <O>11      -0.2028
  14 C11       0.7790    -8.6400     3.0090  C.ar    1  <O>11       0.0448
  15 C12       1.0938    -9.8876     2.4433  C.ar    1  <O>11      -0.0398
  16 C13       0.1417   -10.5760     1.6819  C.ar    1  <O>11      -0.0597
  17 C14      -1.1292   -10.0309     1.4834  C.ar    1  <O>11      -0.0581
  18 C15      -1.4434    -8.7921     2.0530  C.ar    1  <O>11      -0.0397
  19 C16      -2.7878    -8.2212     1.8409  C.3     1  <O>11       0.0172
  20 C17      -3.6964    -8.6764     2.9249  C.ar    1  <O>11       0.0736
  21 N2       -3.8152    -7.9226     4.0978  N.ar    1  <O>11      -0.1750
  22 N3       -4.5574    -8.3765     5.1351  N.ar    1  <O>11      -0.2425
  23 C18      -5.1921    -9.5664     5.0189  C.ar    1  <O>11       0.2725
  24 O3       -5.8654   -10.0261     6.1664  O.2     1  <O>11      -0.2658
  25 C19      -5.2080   -10.3322     3.8439  C.ar    1  <O>11       0.0496
  26 C20      -5.9178   -11.5466     3.7022  C.ar    1  <O>11      -0.0487
  27 C21      -5.8649   -12.2757     2.5136  C.ar    1  <O>11      -0.0610
  28 C22      -5.0969   -11.8123     1.4513  C.ar    1  <O>11      -0.0611
  29 C23      -4.3836   -10.6190     1.5765  C.ar    1  <O>11      -0.0521
  30 C24      -4.4320    -9.8626     2.7696  C.ar    1  <O>11       0.0106
  31 C25      -0.5023    -8.0975     2.8147  C.ar    1  <O>11      -0.0363
  32 H1        2.6802    -6.3513     6.4682  H       1  <O>11       0.0677
  33 H2       -3.1758    -8.5525     0.8782  H       1  <O>11       0.0377
  34 H3       -2.7263    -7.1330     1.8524  H       1  <O>11       0.0377
  35 H4       -4.6349    -7.8350     5.9836  H       1  <O>11       0.1921
  36 H5        5.9450    -7.3944     5.1401  H       1  <O>11       0.0624
  37 H6        7.9725    -6.0649     5.0372  H       1  <O>11       0.0618
  38 H7        7.8864    -3.7635     4.2560  H       1  <O>11       0.0618
  39 H8        5.7621    -2.8022     3.5750  H       1  <O>11       0.0618
  40 H9        3.7304    -4.1195     3.6652  H       1  <O>11       0.0624
  41 H10       2.0296   -10.2975     2.5897  H       1  <O>11       0.0636
  42 H11       0.3797   -11.4898     1.2655  H       1  <O>11       0.0618
  43 H12      -1.8305   -10.5380     0.9213  H       1  <O>11       0.0620
  44 H13      -6.4838   -11.8992     4.4898  H       1  <O>11       0.0625
  45 H14      -6.3945   -13.1569     2.4233  H       1  <O>11       0.0618
  46 H15      -5.0542   -12.3498     0.5714  H       1  <O>11       0.0618
  47 H16      -3.8119   -10.2838     0.7854  H       1  <O>11       0.0624
  48 H17      -0.7473    -7.1871     3.2344  H       1  <O>11       0.0639
@<TRIPOS>BOND
     1     1     2    2
     2     2     3    1
     3     3     4    2
     4     4     5    1
     5     5     6   ar
     6     6     7   ar
     7     7     8   ar
     8     8     9   ar
     9     9    10   ar
    10     5    10   ar
    11     4    11    1
    12    11    12    2
    13    11    13   am
    14     2    13   am
    15    13    14    1
    16    14    15   ar
    17    15    16   ar
    18    16    17   ar
    19    17    18   ar
    20    18    19    1
    21    19    20    1
    22    20    21   ar
    23    21    22   ar
    24    22    23   ar
    25    23    24    2
    26    23    25   ar
    27    25    26   ar
    28    26    27   ar
    29    27    28   ar
    30    28    29   ar
    31    29    30   ar
    32    20    30   ar
    33    25    30   ar
    34    18    31   ar
    35    14    31   ar
    36     3    32    1
    37    19    33    1
    38    19    34    1
    39    22    35    1
    40     6    36    1
    41     7    37    1
    42     8    38    1
    43     9    39    1
    44    10    40    1
    45    15    41    1
    46    16    42    1
    47    17    43    1
    48    26    44    1
    49    27    45    1
    50    28    46    1
    51    29    47    1
    52    31    48    1
@<TRIPOS>MOLECULE
mol90_1_8
 48 52 0 0 0
SMALL
USER_CHARGES
****
VDW energy = -169.95
@<TRIPOS>ATOM
   1 O1        0.5046    -8.0405     5.6567  O.2     1  <O>11      -0.2698
   2 C1        1.4738    -7.6504     5.0424  C.2     1  <O>11       0.2511
   3 C2        2.5809    -6.7963     5.4892  C.2     1  <O>11       0.0138
   4 C3        3.4652    -6.6433     4.4974  C.2     1  <O>11       0.0497
   5 C4        4.6700    -5.8610     4.4230  C.ar    1  <O>11      -0.0127
   6 C5        4.8027    -4.8524     3.4510  C.ar    1  <O>11      -0.0539
   7 C6        5.9796    -4.1009     3.3717  C.ar    1  <O>11      -0.0612
   8 C7        7.0311    -4.3434     4.2603  C.ar    1  <O>11      -0.0617
   9 C8        6.8963    -5.3414     5.2310  C.ar    1  <O>11      -0.0612
  10 C9        5.7249    -6.0959     5.3204  C.ar    1  <O>11      -0.0539
  11 C10       2.9431    -7.4968     3.3849  C.2     1  <O>11       0.2582
  12 O2        3.4781    -7.7605     2.3298  O.2     1  <O>11      -0.2692
  13 N1        1.7239    -7.9522     3.7523  N.am    1  <O>11      -0.2028
  14 C11       0.7790    -8.6400     3.0090  C.ar    1  <O>11       0.0448
  15 C12       0.2333    -8.0633     1.8491  C.ar    1  <O>11      -0.0398
  16 C13      -0.7308    -8.7546     1.1057  C.ar    1  <O>11      -0.0597
  17 C14      -1.1533   -10.0240     1.5077  C.ar    1  <O>11      -0.0581
  18 C15      -0.6041   -10.5997     2.6586  C.ar    1  <O>11      -0.0397
  19 C16      -1.0532   -11.9415     3.0784  C.3     1  <O>11       0.0172
  20 C17      -2.2168   -11.8111     3.9933  C.ar    1  <O>11       0.0736
  21 N2       -3.5153   -11.7940     3.4721  N.ar    1  <O>11      -0.1750
  22 N3       -4.5782   -11.5717     4.2806  N.ar    1  <O>11      -0.2425
  23 C18      -4.3690   -11.3759     5.6035  C.ar    1  <O>11       0.2725
  24 O3       -5.5040   -11.0534     6.3711  O.2     1  <O>11      -0.2658
  25 C19      -3.1132   -11.4793     6.2198  C.ar    1  <O>11       0.0496
  26 C20      -2.9012   -11.3323     7.6098  C.ar    1  <O>11      -0.0487
  27 C21      -1.6191   -11.4157     8.1542  C.ar    1  <O>11      -0.0610
  28 C22      -0.5273   -11.6371     7.3222  C.ar    1  <O>11      -0.0611
  29 C23      -0.7174   -11.7770     5.9466  C.ar    1  <O>11      -0.0521
  30 C24      -2.0096   -11.7041     5.3782  C.ar    1  <O>11       0.0106
  31 C25       0.3584    -9.9200     3.4070  C.ar    1  <O>11      -0.0363
  32 H1        2.6802    -6.3513     6.4682  H       1  <O>11       0.0677
  33 H2       -0.2406   -12.4522     3.5942  H       1  <O>11       0.0377
  34 H3       -1.3450   -12.5180     2.2006  H       1  <O>11       0.0377
  35 H4       -5.5135   -11.5513     3.9011  H       1  <O>11       0.1921
  36 H5        4.0288    -4.6665     2.7941  H       1  <O>11       0.0624
  37 H6        6.0720    -3.3646     2.6545  H       1  <O>11       0.0618
  38 H7        7.9004    -3.7903     4.2005  H       1  <O>11       0.0618
  39 H8        7.6710    -5.5220     5.8884  H       1  <O>11       0.0618
  40 H9        5.6342    -6.8253     6.0449  H       1  <O>11       0.0624
  41 H10       0.5443    -7.1275     1.5446  H       1  <O>11       0.0636
  42 H11      -1.1310    -8.3246     0.2572  H       1  <O>11       0.0618
  43 H12      -1.8647   -10.5330     0.9601  H       1  <O>11       0.0620
  44 H13      -3.7069   -11.1606     8.2314  H       1  <O>11       0.0625
  45 H14      -1.4816   -11.3134     9.1719  H       1  <O>11       0.0618
  46 H15       0.4225   -11.6978     7.7213  H       1  <O>11       0.0618
  47 H16       0.0982   -11.9363     5.3348  H       1  <O>11       0.0624
  48 H17       0.7604   -10.3570     4.2511  H       1  <O>11       0.0639
@<TRIPOS>BOND
     1     1     2    2
     2     2     3    1
     3     3     4    2
     4     4     5    1
     5     5     6   ar
     6     6     7   ar
     7     7     8   ar
     8     8     9   ar
     9     9    10   ar
    10     5    10   ar
    11     4    11    1
    12    11    12    2
    13    11    13   am
    14     2    13   am
    15    13    14    1
    16    14    15   ar
    17    15    16   ar
    18    16    17   ar
    19    17    18   ar
    20    18    19    1
    21    19    20    1
    22    20    21   ar
    23    21    22   ar
    24    22    23   ar
    25    23    24    2
    26    23    25   ar
    27    25    26   ar
    28    26    27   ar
    29    27    28   ar
    30    28    29   ar
    31    29    30   ar
    32    20    30   ar
    33    25    30   ar
    34    18    31   ar
    35    14    31   ar
    36     3    32    1
    37    19    33    1
    38    19    34    1
    39    22    35    1
    40     6    36    1
    41     7    37    1
    42     8    38    1
    43     9    39    1
    44    10    40    1
    45    15    41    1
    46    16    42    1
    47    17    43    1
    48    26    44    1
    49    27    45    1
    50    28    46    1
    51    29    47    1
    52    31    48    1
@<TRIPOS>MOLECULE
mol90_1_9
 48 52 0 0 0
SMALL
USER_CHARGES
****
VDW energy = -169.79
@<TRIPOS>ATOM
   1 O1        0.5046    -8.0405     5.6567  O.2     1  <O>11      -0.2698
   2 C1        1.4738    -7.6504     5.0424  C.2     1  <O>11       0.2511
   3 C2        2.5809    -6.7963     5.4892  C.2     1  <O>11       0.0138
   4 C3        3.4652    -6.6433     4.4974  C.2     1  <O>11       0.0497
   5 C4        4.6700    -5.8610     4.4230  C.ar    1  <O>11      -0.0127
   6 C5        5.9083    -6.4852     4.1848  C.ar    1  <O>11      -0.0539
   7 C6        7.0807    -5.7249     4.1252  C.ar    1  <O>11      -0.0612
   8 C7        7.0303    -4.3385     4.2975  C.ar    1  <O>11      -0.0617
   9 C8        5.7983    -3.7173     4.5273  C.ar    1  <O>11      -0.0612
  10 C9        4.6217    -4.4666     4.5865  C.ar    1  <O>11      -0.0539
  11 C10       2.9431    -7.4968     3.3849  C.2     1  <O>11       0.2582
  12 O2        3.4781    -7.7605     2.3298  O.2     1  <O>11      -0.2692
  13 N1        1.7239    -7.9522     3.7523  N.am    1  <O>11      -0.2028
  14 C11       0.7790    -8.6400     3.0090  C.ar    1  <O>11       0.0448
  15 C12       0.2333    -8.0633     1.8491  C.ar    1  <O>11      -0.0398
  16 C13      -0.7308    -8.7546     1.1057  C.ar    1  <O>11      -0.0597
  17 C14      -1.1533   -10.0240     1.5077  C.ar    1  <O>11      -0.0581
  18 C15      -0.6041   -10.5997     2.6586  C.ar    1  <O>11      -0.0397
  19 C16      -1.0532   -11.9415     3.0784  C.3     1  <O>11       0.0172
  20 C17      -2.2168   -11.8111     3.9933  C.ar    1  <O>11       0.0736
  21 N2       -3.5153   -11.7940     3.4721  N.ar    1  <O>11      -0.1750
  22 N3       -4.5782   -11.5717     4.2806  N.ar    1  <O>11      -0.2425
  23 C18      -4.3690   -11.3759     5.6035  C.ar    1  <O>11       0.2725
  24 O3       -5.5040   -11.0534     6.3711  O.2     1  <O>11      -0.2658
  25 C19      -3.1132   -11.4793     6.2198  C.ar    1  <O>11       0.0496
  26 C20      -2.9012   -11.3323     7.6098  C.ar    1  <O>11      -0.0487
  27 C21      -1.6191   -11.4157     8.1542  C.ar    1  <O>11      -0.0610
  28 C22      -0.5273   -11.6371     7.3222  C.ar    1  <O>11      -0.0611
  29 C23      -0.7174   -11.7770     5.9466  C.ar    1  <O>11      -0.0521
  30 C24      -2.0096   -11.7041     5.3782  C.ar    1  <O>11       0.0106
  31 C25       0.3584    -9.9200     3.4070  C.ar    1  <O>11      -0.0363
  32 H1        2.6802    -6.3513     6.4682  H       1  <O>11       0.0677
  33 H2       -0.2406   -12.4522     3.5942  H       1  <O>11       0.0377
  34 H3       -1.3450   -12.5180     2.2006  H       1  <O>11       0.0377
  35 H4       -5.5135   -11.5513     3.9011  H       1  <O>11       0.1921
  36 H5        5.9516    -7.5079     4.0538  H       1  <O>11       0.0624
  37 H6        7.9862    -6.1891     3.9533  H       1  <O>11       0.0618
  38 H7        7.8956    -3.7777     4.2555  H       1  <O>11       0.0618
  39 H8        5.7586    -2.6940     4.6544  H       1  <O>11       0.0618
  40 H9        3.7176    -3.9966     4.7502  H       1  <O>11       0.0624
  41 H10       0.5443    -7.1275     1.5446  H       1  <O>11       0.0636
  42 H11      -1.1310    -8.3246     0.2572  H       1  <O>11       0.0618
  43 H12      -1.8647   -10.5330     0.9601  H       1  <O>11       0.0620
  44 H13      -3.7069   -11.1606     8.2314  H       1  <O>11       0.0625
  45 H14      -1.4816   -11.3134     9.1719  H       1  <O>11       0.0618
  46 H15       0.4225   -11.6978     7.7213  H       1  <O>11       0.0618
  47 H16       0.0982   -11.9363     5.3348  H       1  <O>11       0.0624
  48 H17       0.7604   -10.3570     4.2511  H       1  <O>11       0.0639
@<TRIPOS>BOND
     1     1     2    2
     2     2     3    1
     3     3     4    2
     4     4     5    1
     5     5     6   ar
     6     6     7   ar
     7     7     8   ar
     8     8     9   ar
     9     9    10   ar
    10     5    10   ar
    11     4    11    1
    12    11    12    2
    13    11    13   am
    14     2    13   am
    15    13    14    1
    16    14    15   ar
    17    15    16   ar
    18    16    17   ar
    19    17    18   ar
    20    18    19    1
    21    19    20    1
    22    20    21   ar
    23    21    22   ar
    24    22    23   ar
    25    23    24    2
    26    23    25   ar
    27    25    26   ar
    28    26    27   ar
    29    27    28   ar
    30    28    29   ar
    31    29    30   ar
    32    20    30   ar
    33    25    30   ar
    34    18    31   ar
    35    14    31   ar
    36     3    32    1
    37    19    33    1
    38    19    34    1
    39    22    35    1
    40     6    36    1
    41     7    37    1
    42     8    38    1
    43     9    39    1
    44    10    40    1
    45    15    41    1
    46    16    42    1
    47    17    43    1
    48    26    44    1
    49    27    45    1
    50    28    46    1
    51    29    47    1
    52    31    48    1
@<TRIPOS>MOLECULE
mol90_1_10
 48 52 0 0 0
SMALL
USER_CHARGES
****
VDW energy = -169.54
@<TRIPOS>ATOM
   1 O1        0.5046    -8.0405     5.6567  O.2     1  <O>11      -0.2698
   2 C1        1.4738    -7.6504     5.0424  C.2     1  <O>11       0.2511
   3 C2        2.5809    -6.7963     5.4892  C.2     1  <O>11       0.0138
   4 C3        3.4652    -6.6433     4.4974  C.2     1  <O>11       0.0497
   5 C4        4.6700    -5.8610     4.4230  C.ar    1  <O>11      -0.0127
   6 C5        5.9029    -6.4176     4.8100  C.ar    1  <O>11      -0.0539
   7 C6        7.0718    -5.6519     4.7490  C.ar    1  <O>11      -0.0612
   8 C7        7.0243    -4.3292     4.2991  C.ar    1  <O>11      -0.0617
   9 C8        5.7996    -3.7783     3.9078  C.ar    1  <O>11      -0.0612
  10 C9        4.6273    -4.5345     3.9626  C.ar    1  <O>11      -0.0539
  11 C10       2.9431    -7.4968     3.3849  C.2     1  <O>11       0.2582
  12 O2        3.4781    -7.7605     2.3298  O.2     1  <O>11      -0.2692
  13 N1        1.7239    -7.9522     3.7523  N.am    1  <O>11      -0.2028
  14 C11       0.7790    -8.6400     3.0090  C.ar    1  <O>11       0.0448
  15 C12       0.7926   -10.0450     2.9719  C.ar    1  <O>11      -0.0398
  16 C13      -0.1556   -10.7385     2.2103  C.ar    1  <O>11      -0.0597
  17 C14      -1.1249   -10.0400     1.4864  C.ar    1  <O>11      -0.0581
  18 C15      -1.1414    -8.6416     1.5298  C.ar    1  <O>11      -0.0397
  19 C16      -2.1682    -7.9085     0.7639  C.3     1  <O>11       0.0172
  20 C17      -1.9862    -6.4473     0.9631  C.ar    1  <O>11       0.0736
  21 N2       -1.1573    -5.7235     0.0988  N.ar    1  <O>11      -0.1750
  22 N3       -0.8993    -4.4145     0.3286  N.ar    1  <O>11      -0.2425
  23 C18      -1.4626    -3.8115     1.4016  C.ar    1  <O>11       0.2725
  24 O3       -1.0769    -2.4786     1.6388  O.2     1  <O>11      -0.2658
  25 C19      -2.3834    -4.4365     2.2553  C.ar    1  <O>11       0.0496
  26 C20      -3.0167    -3.7912     3.3421  C.ar    1  <O>11      -0.0487
  27 C21      -3.9001    -4.4819     4.1726  C.ar    1  <O>11      -0.0610
  28 C22      -4.1591    -5.8280     3.9399  C.ar    1  <O>11      -0.0611
  29 C23      -3.5367    -6.4829     2.8760  C.ar    1  <O>11      -0.0521
  30 C24      -2.6457    -5.7974     2.0191  C.ar    1  <O>11       0.0106
  31 C25      -0.2016    -7.9398     2.2866  C.ar    1  <O>11      -0.0363
  32 H1        2.6802    -6.3513     6.4682  H       1  <O>11       0.0677
  33 H2       -3.1587    -8.2020     1.1100  H       1  <O>11       0.0377
  34 H3       -2.0691    -8.1451    -0.2955  H       1  <O>11       0.0377
  35 H4       -0.2941    -3.8964    -0.2914  H       1  <O>11       0.1921
  36 H5        5.9450    -7.3944     5.1401  H       1  <O>11       0.0624
  37 H6        7.9725    -6.0649     5.0372  H       1  <O>11       0.0618
  38 H7        7.8864    -3.7635     4.2560  H       1  <O>11       0.0618
  39 H8        5.7621    -2.8022     3.5750  H       1  <O>11       0.0618
  40 H9        3.7304    -4.1195     3.6652  H       1  <O>11       0.0624
  41 H10       1.5035   -10.5670     3.5078  H       1  <O>11       0.0636
  42 H11      -0.1383   -11.7700     2.1834  H       1  <O>11       0.0618
  43 H12      -1.8231   -10.5513     0.9242  H       1  <O>11       0.0620
  44 H13      -2.8228    -2.7940     3.5241  H       1  <O>11       0.0625
  45 H14      -4.3601    -3.9948     4.9576  H       1  <O>11       0.0618
  46 H15      -4.8107    -6.3423     4.5531  H       1  <O>11       0.0618
  47 H16      -3.7301    -7.4833     2.7124  H       1  <O>11       0.0624
  48 H17      -0.2271    -6.9086     2.3153  H       1  <O>11       0.0639
@<TRIPOS>BOND
     1     1     2    2
     2     2     3    1
     3     3     4    2
     4     4     5    1
     5     5     6   ar
     6     6     7   ar
     7     7     8   ar
     8     8     9   ar
     9     9    10   ar
    10     5    10   ar
    11     4    11    1
    12    11    12    2
    13    11    13   am
    14     2    13   am
    15    13    14    1
    16    14    15   ar
    17    15    16   ar
    18    16    17   ar
    19    17    18   ar
    20    18    19    1
    21    19    20    1
    22    20    21   ar
    23    21    22   ar
    24    22    23   ar
    25    23    24    2
    26    23    25   ar
    27    25    26   ar
    28    26    27   ar
    29    27    28   ar
    30    28    29   ar
    31    29    30   ar
    32    20    30   ar
    33    25    30   ar
    34    18    31   ar
    35    14    31   ar
    36     3    32    1
    37    19    33    1
    38    19    34    1
    39    22    35    1
    40     6    36    1
    41     7    37    1
    42     8    38    1
    43     9    39    1
    44    10    40    1
    45    15    41    1
    46    16    42    1
    47    17    43    1
    48    26    44    1
    49    27    45    1
    50    28    46    1
    51    29    47    1
    52    31    48    1
@<TRIPOS>MOLECULE
mol90_1_11
 48 52 0 0 0
SMALL
USER_CHARGES
****
VDW energy = -169.28
@<TRIPOS>ATOM
   1 O1        0.5046    -8.0405     5.6567  O.2     1  <O>11      -0.2698
   2 C1        1.4738    -7.6504     5.0424  C.2     1  <O>11       0.2511
   3 C2        2.5809    -6.7963     5.4892  C.2     1  <O>11       0.0138
   4 C3        3.4652    -6.6433     4.4974  C.2     1  <O>11       0.0497
   5 C4        4.6700    -5.8610     4.4230  C.ar    1  <O>11      -0.0127
   6 C5        5.9083    -6.4852     4.1848  C.ar    1  <O>11      -0.0539
   7 C6        7.0807    -5.7249     4.1252  C.ar    1  <O>11      -0.0612
   8 C7        7.0303    -4.3385     4.2975  C.ar    1  <O>11      -0.0617
   9 C8        5.7983    -3.7173     4.5273  C.ar    1  <O>11      -0.0612
  10 C9        4.6217    -4.4666     4.5865  C.ar    1  <O>11      -0.0539
  11 C10       2.9431    -7.4968     3.3849  C.2     1  <O>11       0.2582
  12 O2        3.4781    -7.7605     2.3298  O.2     1  <O>11      -0.2692
  13 N1        1.7239    -7.9522     3.7523  N.am    1  <O>11      -0.2028
  14 C11       0.7790    -8.6400     3.0090  C.ar    1  <O>11       0.0448
  15 C12       1.0938    -9.8876     2.4433  C.ar    1  <O>11      -0.0398
  16 C13       0.1417   -10.5760     1.6819  C.ar    1  <O>11      -0.0597
  17 C14      -1.1292   -10.0309     1.4834  C.ar    1  <O>11      -0.0581
  18 C15      -1.4434    -8.7921     2.0530  C.ar    1  <O>11      -0.0397
  19 C16      -2.7878    -8.2212     1.8409  C.3     1  <O>11       0.0172
  20 C17      -3.6964    -8.6764     2.9249  C.ar    1  <O>11       0.0736
  21 N2       -3.8152    -7.9226     4.0978  N.ar    1  <O>11      -0.1750
  22 N3       -4.5574    -8.3765     5.1351  N.ar    1  <O>11      -0.2425
  23 C18      -5.1921    -9.5664     5.0189  C.ar    1  <O>11       0.2725
  24 O3       -5.8654   -10.0261     6.1664  O.2     1  <O>11      -0.2658
  25 C19      -5.2080   -10.3322     3.8439  C.ar    1  <O>11       0.0496
  26 C20      -5.9178   -11.5466     3.7022  C.ar    1  <O>11      -0.0487
  27 C21      -5.8649   -12.2757     2.5136  C.ar    1  <O>11      -0.0610
  28 C22      -5.0969   -11.8123     1.4513  C.ar    1  <O>11      -0.0611
  29 C23      -4.3836   -10.6190     1.5765  C.ar    1  <O>11      -0.0521
  30 C24      -4.4320    -9.8626     2.7696  C.ar    1  <O>11       0.0106
  31 C25      -0.5023    -8.0975     2.8147  C.ar    1  <O>11      -0.0363
  32 H1        2.6802    -6.3513     6.4682  H       1  <O>11       0.0677
  33 H2       -3.1758    -8.5525     0.8782  H       1  <O>11       0.0377
  34 H3       -2.7263    -7.1330     1.8524  H       1  <O>11       0.0377
  35 H4       -4.6349    -7.8350     5.9836  H       1  <O>11       0.1921
  36 H5        5.9516    -7.5079     4.0538  H       1  <O>11       0.0624
  37 H6        7.9862    -6.1891     3.9533  H       1  <O>11       0.0618
  38 H7        7.8956    -3.7777     4.2555  H       1  <O>11       0.0618
  39 H8        5.7586    -2.6940     4.6544  H       1  <O>11       0.0618
  40 H9        3.7176    -3.9966     4.7502  H       1  <O>11       0.0624
  41 H10       2.0296   -10.2975     2.5897  H       1  <O>11       0.0636
  42 H11       0.3797   -11.4898     1.2655  H       1  <O>11       0.0618
  43 H12      -1.8305   -10.5380     0.9213  H       1  <O>11       0.0620
  44 H13      -6.4838   -11.8992     4.4898  H       1  <O>11       0.0625
  45 H14      -6.3945   -13.1569     2.4233  H       1  <O>11       0.0618
  46 H15      -5.0542   -12.3498     0.5714  H       1  <O>11       0.0618
  47 H16      -3.8119   -10.2838     0.7854  H       1  <O>11       0.0624
  48 H17      -0.7473    -7.1871     3.2344  H       1  <O>11       0.0639
@<TRIPOS>BOND
     1     1     2    2
     2     2     3    1
     3     3     4    2
     4     4     5    1
     5     5     6   ar
     6     6     7   ar
     7     7     8   ar
     8     8     9   ar
     9     9    10   ar
    10     5    10   ar
    11     4    11    1
    12    11    12    2
    13    11    13   am
    14     2    13   am
    15    13    14    1
    16    14    15   ar
    17    15    16   ar
    18    16    17   ar
    19    17    18   ar
    20    18    19    1
    21    19    20    1
    22    20    21   ar
    23    21    22   ar
    24    22    23   ar
    25    23    24    2
    26    23    25   ar
    27    25    26   ar
    28    26    27   ar
    29    27    28   ar
    30    28    29   ar
    31    29    30   ar
    32    20    30   ar
    33    25    30   ar
    34    18    31   ar
    35    14    31   ar
    36     3    32    1
    37    19    33    1
    38    19    34    1
    39    22    35    1
    40     6    36    1
    41     7    37    1
    42     8    38    1
    43     9    39    1
    44    10    40    1
    45    15    41    1
    46    16    42    1
    47    17    43    1
    48    26    44    1
    49    27    45    1
    50    28    46    1
    51    29    47    1
    52    31    48    1
@<TRIPOS>MOLECULE
mol90_1_12
 48 52 0 0 0
SMALL
USER_CHARGES
****
VDW energy = -169.08
@<TRIPOS>ATOM
   1 O1        0.5046    -8.0405     5.6567  O.2     1  <O>11      -0.2698
   2 C1        1.4738    -7.6504     5.0424  C.2     1  <O>11       0.2511
   3 C2        2.5809    -6.7963     5.4892  C.2     1  <O>11       0.0138
   4 C3        3.4652    -6.6433     4.4974  C.2     1  <O>11       0.0497
   5 C4        4.6700    -5.8610     4.4230  C.ar    1  <O>11      -0.0127
   6 C5        5.9083    -6.4852     4.1848  C.ar    1  <O>11      -0.0539
   7 C6        7.0807    -5.7249     4.1252  C.ar    1  <O>11      -0.0612
   8 C7        7.0303    -4.3385     4.2975  C.ar    1  <O>11      -0.0617
   9 C8        5.7983    -3.7173     4.5273  C.ar    1  <O>11      -0.0612
  10 C9        4.6217    -4.4666     4.5865  C.ar    1  <O>11      -0.0539
  11 C10       2.9431    -7.4968     3.3849  C.2     1  <O>11       0.2582
  12 O2        3.4781    -7.7605     2.3298  O.2     1  <O>11      -0.2692
  13 N1        1.7239    -7.9522     3.7523  N.am    1  <O>11      -0.2028
  14 C11       0.7790    -8.6400     3.0090  C.ar    1  <O>11       0.0448
  15 C12       0.2333    -8.0633     1.8491  C.ar    1  <O>11      -0.0398
  16 C13      -0.7308    -8.7546     1.1057  C.ar    1  <O>11      -0.0597
  17 C14      -1.1533   -10.0240     1.5077  C.ar    1  <O>11      -0.0581
  18 C15      -0.6041   -10.5997     2.6586  C.ar    1  <O>11      -0.0397
  19 C16      -1.0532   -11.9415     3.0784  C.3     1  <O>11       0.0172
  20 C17      -0.1915   -12.9734     2.4456  C.ar    1  <O>11       0.0736
  21 N2        0.9661   -13.4111     3.0984  N.ar    1  <O>11      -0.1750
  22 N3        1.8151   -14.2724     2.4898  N.ar    1  <O>11      -0.2425
  23 C18       1.5240   -14.7129     1.2435  C.ar    1  <O>11       0.2725
  24 O3        2.4943   -15.5274     0.6299  O.2     1  <O>11      -0.2658
  25 C19       0.3370   -14.4042     0.5630  C.ar    1  <O>11       0.0496
  26 C20       0.0049   -14.9097    -0.7149  C.ar    1  <O>11      -0.0487
  27 C21      -1.1801   -14.5363    -1.3500  C.ar    1  <O>11      -0.0610
  28 C22      -2.0481   -13.6464    -0.7272  C.ar    1  <O>11      -0.0611
  29 C23      -1.7324   -13.1315     0.5312  C.ar    1  <O>11      -0.0521
  30 C24      -0.5408   -13.5050     1.1936  C.ar    1  <O>11       0.0106
  31 C25       0.3584    -9.9200     3.4070  C.ar    1  <O>11      -0.0363
  32 H1        2.6802    -6.3513     6.4682  H       1  <O>11       0.0677
  33 H2       -2.0872   -12.0919     2.7695  H       1  <O>11       0.0377
  34 H3       -0.9826   -12.0254     4.1629  H       1  <O>11       0.0377
  35 H4        2.6542   -14.5803     2.9592  H       1  <O>11       0.1921
  36 H5        5.9516    -7.5079     4.0538  H       1  <O>11       0.0624
  37 H6        7.9862    -6.1891     3.9533  H       1  <O>11       0.0618
  38 H7        7.8956    -3.7777     4.2555  H       1  <O>11       0.0618
  39 H8        5.7586    -2.6940     4.6544  H       1  <O>11       0.0618
  40 H9        3.7176    -3.9966     4.7502  H       1  <O>11       0.0624
  41 H10       0.5443    -7.1275     1.5446  H       1  <O>11       0.0636
  42 H11      -1.1310    -8.3246     0.2572  H       1  <O>11       0.0618
  43 H12      -1.8647   -10.5330     0.9601  H       1  <O>11       0.0620
  44 H13       0.6488   -15.5650    -1.1852  H       1  <O>11       0.0625
  45 H14      -1.4117   -14.9197    -2.2798  H       1  <O>11       0.0618
  46 H15      -2.9246   -13.3668    -1.1948  H       1  <O>11       0.0618
  47 H16      -2.3792   -12.4678     0.9851  H       1  <O>11       0.0624
  48 H17       0.7604   -10.3570     4.2511  H       1  <O>11       0.0639
@<TRIPOS>BOND
     1     1     2    2
     2     2     3    1
     3     3     4    2
     4     4     5    1
     5     5     6   ar
     6     6     7   ar
     7     7     8   ar
     8     8     9   ar
     9     9    10   ar
    10     5    10   ar
    11     4    11    1
    12    11    12    2
    13    11    13   am
    14     2    13   am
    15    13    14    1
    16    14    15   ar
    17    15    16   ar
    18    16    17   ar
    19    17    18   ar
    20    18    19    1
    21    19    20    1
    22    20    21   ar
    23    21    22   ar
    24    22    23   ar
    25    23    24    2
    26    23    25   ar
    27    25    26   ar
    28    26    27   ar
    29    27    28   ar
    30    28    29   ar
    31    29    30   ar
    32    20    30   ar
    33    25    30   ar
    34    18    31   ar
    35    14    31   ar
    36     3    32    1
    37    19    33    1
    38    19    34    1
    39    22    35    1
    40     6    36    1
    41     7    37    1
    42     8    38    1
    43     9    39    1
    44    10    40    1
    45    15    41    1
    46    16    42    1
    47    17    43    1
    48    26    44    1
    49    27    45    1
    50    28    46    1
    51    29    47    1
    52    31    48    1
@<TRIPOS>MOLECULE
mol90_1_13
 48 52 0 0 0
SMALL
USER_CHARGES
****
VDW energy = -168.55
@<TRIPOS>ATOM
   1 O1        0.5046    -8.0405     5.6567  O.2     1  <O>11      -0.2698
   2 C1        1.4738    -7.6504     5.0424  C.2     1  <O>11       0.2511
   3 C2        2.5809    -6.7963     5.4892  C.2     1  <O>11       0.0138
   4 C3        3.4652    -6.6433     4.4974  C.2     1  <O>11       0.0497
   5 C4        4.6700    -5.8610     4.4230  C.ar    1  <O>11      -0.0127
   6 C5        5.9083    -6.4852     4.1848  C.ar    1  <O>11      -0.0539
   7 C6        7.0807    -5.7249     4.1252  C.ar    1  <O>11      -0.0612
   8 C7        7.0303    -4.3385     4.2975  C.ar    1  <O>11      -0.0617
   9 C8        5.7983    -3.7173     4.5273  C.ar    1  <O>11      -0.0612
  10 C9        4.6217    -4.4666     4.5865  C.ar    1  <O>11      -0.0539
  11 C10       2.9431    -7.4968     3.3849  C.2     1  <O>11       0.2582
  12 O2        3.4781    -7.7605     2.3298  O.2     1  <O>11      -0.2692
  13 N1        1.7239    -7.9522     3.7523  N.am    1  <O>11      -0.2028
  14 C11       0.7790    -8.6400     3.0090  C.ar    1  <O>11       0.0448
  15 C12       0.7926   -10.0450     2.9719  C.ar    1  <O>11      -0.0398
  16 C13      -0.1556   -10.7385     2.2103  C.ar    1  <O>11      -0.0597
  17 C14      -1.1249   -10.0400     1.4864  C.ar    1  <O>11      -0.0581
  18 C15      -1.1414    -8.6416     1.5298  C.ar    1  <O>11      -0.0397
  19 C16      -2.1682    -7.9085     0.7639  C.3     1  <O>11       0.0172
  20 C17      -1.9862    -6.4473     0.9631  C.ar    1  <O>11       0.0736
  21 N2       -1.1573    -5.7235     0.0988  N.ar    1  <O>11      -0.1750
  22 N3       -0.8993    -4.4145     0.3286  N.ar    1  <O>11      -0.2425
  23 C18      -1.4626    -3.8115     1.4016  C.ar    1  <O>11       0.2725
  24 O3       -1.0769    -2.4786     1.6388  O.2     1  <O>11      -0.2658
  25 C19      -2.3834    -4.4365     2.2553  C.ar    1  <O>11       0.0496
  26 C20      -3.0167    -3.7912     3.3421  C.ar    1  <O>11      -0.0487
  27 C21      -3.9001    -4.4819     4.1726  C.ar    1  <O>11      -0.0610
  28 C22      -4.1591    -5.8280     3.9399  C.ar    1  <O>11      -0.0611
  29 C23      -3.5367    -6.4829     2.8760  C.ar    1  <O>11      -0.0521
  30 C24      -2.6457    -5.7974     2.0191  C.ar    1  <O>11       0.0106
  31 C25      -0.2016    -7.9398     2.2866  C.ar    1  <O>11      -0.0363
  32 H1        2.6802    -6.3513     6.4682  H       1  <O>11       0.0677
  33 H2       -3.1587    -8.2020     1.1100  H       1  <O>11       0.0377
  34 H3       -2.0691    -8.1451    -0.2955  H       1  <O>11       0.0377
  35 H4       -0.2941    -3.8964    -0.2914  H       1  <O>11       0.1921
  36 H5        5.9516    -7.5079     4.0538  H       1  <O>11       0.0624
  37 H6        7.9862    -6.1891     3.9533  H       1  <O>11       0.0618
  38 H7        7.8956    -3.7777     4.2555  H       1  <O>11       0.0618
  39 H8        5.7586    -2.6940     4.6544  H       1  <O>11       0.0618
  40 H9        3.7176    -3.9966     4.7502  H       1  <O>11       0.0624
  41 H10       1.5035   -10.5670     3.5078  H       1  <O>11       0.0636
  42 H11      -0.1383   -11.7700     2.1834  H       1  <O>11       0.0618
  43 H12      -1.8231   -10.5513     0.9242  H       1  <O>11       0.0620
  44 H13      -2.8228    -2.7940     3.5241  H       1  <O>11       0.0625
  45 H14      -4.3601    -3.9948     4.9576  H       1  <O>11       0.0618
  46 H15      -4.8107    -6.3423     4.5531  H       1  <O>11       0.0618
  47 H16      -3.7301    -7.4833     2.7124  H       1  <O>11       0.0624
  48 H17      -0.2271    -6.9086     2.3153  H       1  <O>11       0.0639
@<TRIPOS>BOND
     1     1     2    2
     2     2     3    1
     3     3     4    2
     4     4     5    1
     5     5     6   ar
     6     6     7   ar
     7     7     8   ar
     8     8     9   ar
     9     9    10   ar
    10     5    10   ar
    11     4    11    1
    12    11    12    2
    13    11    13   am
    14     2    13   am
    15    13    14    1
    16    14    15   ar
    17    15    16   ar
    18    16    17   ar
    19    17    18   ar
    20    18    19    1
    21    19    20    1
    22    20    21   ar
    23    21    22   ar
    24    22    23   ar
    25    23    24    2
    26    23    25   ar
    27    25    26   ar
    28    26    27   ar
    29    27    28   ar
    30    28    29   ar
    31    29    30   ar
    32    20    30   ar
    33    25    30   ar
    34    18    31   ar
    35    14    31   ar
    36     3    32    1
    37    19    33    1
    38    19    34    1
    39    22    35    1
    40     6    36    1
    41     7    37    1
    42     8    38    1
    43     9    39    1
    44    10    40    1
    45    15    41    1
    46    16    42    1
    47    17    43    1
    48    26    44    1
    49    27    45    1
    50    28    46    1
    51    29    47    1
    52    31    48    1
@<TRIPOS>MOLECULE
mol90_1_14
 48 52 0 0 0
SMALL
USER_CHARGES
****
VDW energy = -168.34
@<TRIPOS>ATOM
   1 O1        0.5046    -8.0405     5.6567  O.2     1  <O>11      -0.2698
   2 C1        1.4738    -7.6504     5.0424  C.2     1  <O>11       0.2511
   3 C2        2.5809    -6.7963     5.4892  C.2     1  <O>11       0.0138
   4 C3        3.4652    -6.6433     4.4974  C.2     1  <O>11       0.0497
   5 C4        4.6700    -5.8610     4.4230  C.ar    1  <O>11      -0.0127
   6 C5        4.8027    -4.8524     3.4510  C.ar    1  <O>11      -0.0539
   7 C6        5.9796    -4.1009     3.3717  C.ar    1  <O>11      -0.0612
   8 C7        7.0311    -4.3434     4.2603  C.ar    1  <O>11      -0.0617
   9 C8        6.8963    -5.3414     5.2310  C.ar    1  <O>11      -0.0612
  10 C9        5.7249    -6.0959     5.3204  C.ar    1  <O>11      -0.0539
  11 C10       2.9431    -7.4968     3.3849  C.2     1  <O>11       0.2582
  12 O2        3.4781    -7.7605     2.3298  O.2     1  <O>11      -0.2692
  13 N1        1.7239    -7.9522     3.7523  N.am    1  <O>11      -0.2028
  14 C11       0.7790    -8.6400     3.0090  C.ar    1  <O>11       0.0448
  15 C12       0.2333    -8.0633     1.8491  C.ar    1  <O>11      -0.0398
  16 C13      -0.7308    -8.7546     1.1057  C.ar    1  <O>11      -0.0597
  17 C14      -1.1533   -10.0240     1.5077  C.ar    1  <O>11      -0.0581
  18 C15      -0.6041   -10.5997     2.6586  C.ar    1  <O>11      -0.0397
  19 C16      -1.0532   -11.9415     3.0784  C.3     1  <O>11       0.0172
  20 C17      -0.7616   -12.9217     2.0005  C.ar    1  <O>11       0.0736
  21 N2       -0.1497   -12.4950     0.8167  N.ar    1  <O>11      -0.1750
  22 N3        0.0278   -13.3542    -0.2144  N.ar    1  <O>11      -0.2425
  23 C18      -0.3861   -14.6361    -0.0813  C.ar    1  <O>11       0.2725
  24 O3       -0.2618   -15.4508    -1.2224  O.2     1  <O>11      -0.2658
  25 C19      -0.9129   -15.1680     1.1048  C.ar    1  <O>11       0.0496
  26 C20      -1.2919   -16.5207     1.2638  C.ar    1  <O>11      -0.0487
  27 C21      -1.8401   -16.9776     2.4629  C.ar    1  <O>11      -0.0610
  28 C22      -2.0284   -16.0929     3.5189  C.ar    1  <O>11      -0.0611
  29 C23      -1.6669   -14.7522     3.3768  C.ar    1  <O>11      -0.0521
  30 C24      -1.1023   -14.2732     2.1727  C.ar    1  <O>11       0.0106
  31 C25       0.3584    -9.9200     3.4070  C.ar    1  <O>11      -0.0363
  32 H1        2.6802    -6.3513     6.4682  H       1  <O>11       0.0677
  33 H2       -2.1253   -11.9220     3.2719  H       1  <O>11       0.0377
  34 H3       -0.5259   -12.2335     3.9865  H       1  <O>11       0.0377
  35 H4        0.4617   -13.0421    -1.0708  H       1  <O>11       0.1921
  36 H5        4.0288    -4.6665     2.7941  H       1  <O>11       0.0624
  37 H6        6.0720    -3.3646     2.6545  H       1  <O>11       0.0618
  38 H7        7.9004    -3.7903     4.2005  H       1  <O>11       0.0618
  39 H8        7.6710    -5.5220     5.8884  H       1  <O>11       0.0618
  40 H9        5.6342    -6.8253     6.0449  H       1  <O>11       0.0624
  41 H10       0.5443    -7.1275     1.5446  H       1  <O>11       0.0636
  42 H11      -1.1310    -8.3246     0.2572  H       1  <O>11       0.0618
  43 H12      -1.8647   -10.5330     0.9601  H       1  <O>11       0.0620
  44 H13      -1.1612   -17.1804     0.4810  H       1  <O>11       0.0625
  45 H14      -2.1051   -17.9697     2.5657  H       1  <O>11       0.0618
  46 H15      -2.4350   -16.4270     4.4066  H       1  <O>11       0.0618
  47 H16      -1.8140   -14.1005     4.1633  H       1  <O>11       0.0624
  48 H17       0.7604   -10.3570     4.2511  H       1  <O>11       0.0639
@<TRIPOS>BOND
     1     1     2    2
     2     2     3    1
     3     3     4    2
     4     4     5    1
     5     5     6   ar
     6     6     7   ar
     7     7     8   ar
     8     8     9   ar
     9     9    10   ar
    10     5    10   ar
    11     4    11    1
    12    11    12    2
    13    11    13   am
    14     2    13   am
    15    13    14    1
    16    14    15   ar
    17    15    16   ar
    18    16    17   ar
    19    17    18   ar
    20    18    19    1
    21    19    20    1
    22    20    21   ar
    23    21    22   ar
    24    22    23   ar
    25    23    24    2
    26    23    25   ar
    27    25    26   ar
    28    26    27   ar
    29    27    28   ar
    30    28    29   ar
    31    29    30   ar
    32    20    30   ar
    33    25    30   ar
    34    18    31   ar
    35    14    31   ar
    36     3    32    1
    37    19    33    1
    38    19    34    1
    39    22    35    1
    40     6    36    1
    41     7    37    1
    42     8    38    1
    43     9    39    1
    44    10    40    1
    45    15    41    1
    46    16    42    1
    47    17    43    1
    48    26    44    1
    49    27    45    1
    50    28    46    1
    51    29    47    1
    52    31    48    1
@<TRIPOS>MOLECULE
mol90_1_15
 48 52 0 0 0
SMALL
USER_CHARGES
****
VDW energy = -166.78
@<TRIPOS>ATOM
   1 O1        0.5046    -8.0405     5.6567  O.2     1  <O>11      -0.2698
   2 C1        1.4738    -7.6504     5.0424  C.2     1  <O>11       0.2511
   3 C2        2.5809    -6.7963     5.4892  C.2     1  <O>11       0.0138
   4 C3        3.4652    -6.6433     4.4974  C.2     1  <O>11       0.0497
   5 C4        4.6700    -5.8610     4.4230  C.ar    1  <O>11      -0.0127
   6 C5        4.8027    -4.8524     3.4510  C.ar    1  <O>11      -0.0539
   7 C6        5.9796    -4.1009     3.3717  C.ar    1  <O>11      -0.0612
   8 C7        7.0311    -4.3434     4.2603  C.ar    1  <O>11      -0.0617
   9 C8        6.8963    -5.3414     5.2310  C.ar    1  <O>11      -0.0612
  10 C9        5.7249    -6.0959     5.3204  C.ar    1  <O>11      -0.0539
  11 C10       2.9431    -7.4968     3.3849  C.2     1  <O>11       0.2582
  12 O2        3.4781    -7.7605     2.3298  O.2     1  <O>11      -0.2692
  13 N1        1.7239    -7.9522     3.7523  N.am    1  <O>11      -0.2028
  14 C11       0.7790    -8.6400     3.0090  C.ar    1  <O>11       0.0448
  15 C12       0.2333    -8.0633     1.8491  C.ar    1  <O>11      -0.0398
  16 C13      -0.7308    -8.7546     1.1057  C.ar    1  <O>11      -0.0597
  17 C14      -1.1533   -10.0240     1.5077  C.ar    1  <O>11      -0.0581
  18 C15      -0.6041   -10.5997     2.6586  C.ar    1  <O>11      -0.0397
  19 C16      -1.0532   -11.9415     3.0784  C.3     1  <O>11       0.0172
  20 C17      -0.3356   -12.3396     4.3171  C.ar    1  <O>11       0.0736
  21 N2        0.8777   -13.0309     4.2285  N.ar    1  <O>11      -0.1750
  22 N3        1.4904   -13.4910     5.3447  N.ar    1  <O>11      -0.2425
  23 C18       0.9180   -13.2645     6.5502  C.ar    1  <O>11       0.2725
  24 O3        1.5535   -13.8526     7.6601  O.2     1  <O>11      -0.2658
  25 C19      -0.2396   -12.4940     6.7333  C.ar    1  <O>11       0.0496
  26 C20      -0.8064   -12.2080     7.9965  C.ar    1  <O>11      -0.0487
  27 C21      -1.9795   -11.4603     8.1054  C.ar    1  <O>11      -0.0610
  28 C22      -2.6117   -10.9941     6.9582  C.ar    1  <O>11      -0.0611
  29 C23      -2.0702   -11.2735     5.7025  C.ar    1  <O>11      -0.0521
  30 C24      -0.8780   -12.0220     5.5730  C.ar    1  <O>11       0.0106
  31 C25       0.3584    -9.9200     3.4070  C.ar    1  <O>11      -0.0363
  32 H1        2.6802    -6.3513     6.4682  H       1  <O>11       0.0677
  33 H2       -0.8400   -12.6602     2.2878  H       1  <O>11       0.0377
  34 H3       -2.1259   -11.9216     3.2712  H       1  <O>11       0.0377
  35 H4        2.3614   -13.9971     5.2779  H       1  <O>11       0.1921
  36 H5        4.0288    -4.6665     2.7941  H       1  <O>11       0.0624
  37 H6        6.0720    -3.3646     2.6545  H       1  <O>11       0.0618
  38 H7        7.9004    -3.7903     4.2005  H       1  <O>11       0.0618
  39 H8        7.6710    -5.5220     5.8884  H       1  <O>11       0.0618
  40 H9        5.6342    -6.8253     6.0449  H       1  <O>11       0.0624
  41 H10       0.5443    -7.1275     1.5446  H       1  <O>11       0.0636
  42 H11      -1.1310    -8.3246     0.2572  H       1  <O>11       0.0618
  43 H12      -1.8647   -10.5330     0.9601  H       1  <O>11       0.0620
  44 H13      -0.3454   -12.5576     8.8511  H       1  <O>11       0.0625
  45 H14      -2.3768   -11.2539     9.0353  H       1  <O>11       0.0618
  46 H15      -3.4803   -10.4421     7.0351  H       1  <O>11       0.0618
  47 H16      -2.5476   -10.9282     4.8553  H       1  <O>11       0.0624
  48 H17       0.7604   -10.3570     4.2511  H       1  <O>11       0.0639
@<TRIPOS>BOND
     1     1     2    2
     2     2     3    1
     3     3     4    2
     4     4     5    1
     5     5     6   ar
     6     6     7   ar
     7     7     8   ar
     8     8     9   ar
     9     9    10   ar
    10     5    10   ar
    11     4    11    1
    12    11    12    2
    13    11    13   am
    14     2    13   am
    15    13    14    1
    16    14    15   ar
    17    15    16   ar
    18    16    17   ar
    19    17    18   ar
    20    18    19    1
    21    19    20    1
    22    20    21   ar
    23    21    22   ar
    24    22    23   ar
    25    23    24    2
    26    23    25   ar
    27    25    26   ar
    28    26    27   ar
    29    27    28   ar
    30    28    29   ar
    31    29    30   ar
    32    20    30   ar
    33    25    30   ar
    34    18    31   ar
    35    14    31   ar
    36     3    32    1
    37    19    33    1
    38    19    34    1
    39    22    35    1
    40     6    36    1
    41     7    37    1
    42     8    38    1
    43     9    39    1
    44    10    40    1
    45    15    41    1
    46    16    42    1
    47    17    43    1
    48    26    44    1
    49    27    45    1
    50    28    46    1
    51    29    47    1
    52    31    48    1
@<TRIPOS>MOLECULE
mol90_1_16
 48 52 0 0 0
SMALL
USER_CHARGES
****
VDW energy = -166.41
@<TRIPOS>ATOM
   1 O1        0.5046    -8.0405     5.6567  O.2     1  <O>11      -0.2698
   2 C1        1.4738    -7.6504     5.0424  C.2     1  <O>11       0.2511
   3 C2        2.5809    -6.7963     5.4892  C.2     1  <O>11       0.0138
   4 C3        3.4652    -6.6433     4.4974  C.2     1  <O>11       0.0497
   5 C4        4.6700    -5.8610     4.4230  C.ar    1  <O>11      -0.0127
   6 C5        5.9083    -6.4852     4.1848  C.ar    1  <O>11      -0.0539
   7 C6        7.0807    -5.7249     4.1252  C.ar    1  <O>11      -0.0612
   8 C7        7.0303    -4.3385     4.2975  C.ar    1  <O>11      -0.0617
   9 C8        5.7983    -3.7173     4.5273  C.ar    1  <O>11      -0.0612
  10 C9        4.6217    -4.4666     4.5865  C.ar    1  <O>11      -0.0539
  11 C10       2.9431    -7.4968     3.3849  C.2     1  <O>11       0.2582
  12 O2        3.4781    -7.7605     2.3298  O.2     1  <O>11      -0.2692
  13 N1        1.7239    -7.9522     3.7523  N.am    1  <O>11      -0.2028
  14 C11       0.7790    -8.6400     3.0090  C.ar    1  <O>11       0.0448
  15 C12       1.0938    -9.8876     2.4433  C.ar    1  <O>11      -0.0398
  16 C13       0.1417   -10.5760     1.6819  C.ar    1  <O>11      -0.0597
  17 C14      -1.1292   -10.0309     1.4834  C.ar    1  <O>11      -0.0581
  18 C15      -1.4434    -8.7921     2.0530  C.ar    1  <O>11      -0.0397
  19 C16      -2.7878    -8.2212     1.8409  C.3     1  <O>11       0.0172
  20 C17      -2.8854    -6.9113     2.5354  C.ar    1  <O>11       0.0736
  21 N2       -2.5342    -5.7366     1.8611  N.ar    1  <O>11      -0.1750
  22 N3       -2.5181    -4.5490     2.5109  N.ar    1  <O>11      -0.2425
  23 C18      -2.8565    -4.5111     3.8210  C.ar    1  <O>11       0.2725
  24 O3       -2.7250    -3.2643     4.4609  O.2     1  <O>11      -0.2658
  25 C19      -3.3181    -5.6227     4.5412  C.ar    1  <O>11       0.0496
  26 C20      -3.7268    -5.5731     5.8937  C.ar    1  <O>11      -0.0487
  27 C21      -4.1460    -6.7249     6.5607  C.ar    1  <O>11      -0.0610
  28 C22      -4.1555    -7.9453     5.8946  C.ar    1  <O>11      -0.0611
  29 C23      -3.7481    -8.0139     4.5614  C.ar    1  <O>11      -0.0521
  30 C24      -3.3284    -6.8564     3.8669  C.ar    1  <O>11       0.0106
  31 C25      -0.5023    -8.0975     2.8147  C.ar    1  <O>11      -0.0363
  32 H1        2.6802    -6.3513     6.4682  H       1  <O>11       0.0677
  33 H2       -3.5390    -8.9016     2.2408  H       1  <O>11       0.0377
  34 H3       -2.9580    -8.0794     0.7737  H       1  <O>11       0.0377
  35 H4       -2.2562    -3.7039     2.0247  H       1  <O>11       0.1921
  36 H5        5.9516    -7.5079     4.0538  H       1  <O>11       0.0624
  37 H6        7.9862    -6.1891     3.9533  H       1  <O>11       0.0618
  38 H7        7.8956    -3.7777     4.2555  H       1  <O>11       0.0618
  39 H8        5.7586    -2.6940     4.6544  H       1  <O>11       0.0618
  40 H9        3.7176    -3.9966     4.7502  H       1  <O>11       0.0624
  41 H10       2.0296   -10.2975     2.5897  H       1  <O>11       0.0636
  42 H11       0.3797   -11.4898     1.2655  H       1  <O>11       0.0618
  43 H12      -1.8305   -10.5380     0.9213  H       1  <O>11       0.0620
  44 H13      -3.7150    -4.6713     6.3954  H       1  <O>11       0.0625
  45 H14      -4.4482    -6.6709     7.5460  H       1  <O>11       0.0618
  46 H15      -4.4635    -8.7993     6.3853  H       1  <O>11       0.0618
  47 H16      -3.7533    -8.9240     4.0750  H       1  <O>11       0.0624
  48 H17      -0.7473    -7.1871     3.2344  H       1  <O>11       0.0639
@<TRIPOS>BOND
     1     1     2    2
     2     2     3    1
     3     3     4    2
     4     4     5    1
     5     5     6   ar
     6     6     7   ar
     7     7     8   ar
     8     8     9   ar
     9     9    10   ar
    10     5    10   ar
    11     4    11    1
    12    11    12    2
    13    11    13   am
    14     2    13   am
    15    13    14    1
    16    14    15   ar
    17    15    16   ar
    18    16    17   ar
    19    17    18   ar
    20    18    19    1
    21    19    20    1
    22    20    21   ar
    23    21    22   ar
    24    22    23   ar
    25    23    24    2
    26    23    25   ar
    27    25    26   ar
    28    26    27   ar
    29    27    28   ar
    30    28    29   ar
    31    29    30   ar
    32    20    30   ar
    33    25    30   ar
    34    18    31   ar
    35    14    31   ar
    36     3    32    1
    37    19    33    1
    38    19    34    1
    39    22    35    1
    40     6    36    1
    41     7    37    1
    42     8    38    1
    43     9    39    1
    44    10    40    1
    45    15    41    1
    46    16    42    1
    47    17    43    1
    48    26    44    1
    49    27    45    1
    50    28    46    1
    51    29    47    1
    52    31    48    1
@<TRIPOS>MOLECULE
mol90_1_17
 48 52 0 0 0
SMALL
USER_CHARGES
****
VDW energy = -165.93
@<TRIPOS>ATOM
   1 O1        0.5046    -8.0405     5.6567  O.2     1  <O>11      -0.2698
   2 C1        1.4738    -7.6504     5.0424  C.2     1  <O>11       0.2511
   3 C2        2.5809    -6.7963     5.4892  C.2     1  <O>11       0.0138
   4 C3        3.4652    -6.6433     4.4974  C.2     1  <O>11       0.0497
   5 C4        4.6700    -5.8610     4.4230  C.ar    1  <O>11      -0.0127
   6 C5        5.9083    -6.4852     4.1848  C.ar    1  <O>11      -0.0539
   7 C6        7.0807    -5.7249     4.1252  C.ar    1  <O>11      -0.0612
   8 C7        7.0303    -4.3385     4.2975  C.ar    1  <O>11      -0.0617
   9 C8        5.7983    -3.7173     4.5273  C.ar    1  <O>11      -0.0612
  10 C9        4.6217    -4.4666     4.5865  C.ar    1  <O>11      -0.0539
  11 C10       2.9431    -7.4968     3.3849  C.2     1  <O>11       0.2582
  12 O2        3.4781    -7.7605     2.3298  O.2     1  <O>11      -0.2692
  13 N1        1.7239    -7.9522     3.7523  N.am    1  <O>11      -0.2028
  14 C11       0.7790    -8.6400     3.0090  C.ar    1  <O>11       0.0448
  15 C12       0.2333    -8.0633     1.8491  C.ar    1  <O>11      -0.0398
  16 C13      -0.7308    -8.7546     1.1057  C.ar    1  <O>11      -0.0597
  17 C14      -1.1533   -10.0240     1.5077  C.ar    1  <O>11      -0.0581
  18 C15      -0.6041   -10.5997     2.6586  C.ar    1  <O>11      -0.0397
  19 C16      -1.0532   -11.9415     3.0784  C.3     1  <O>11       0.0172
  20 C17      -0.3356   -12.3396     4.3171  C.ar    1  <O>11       0.0736
  21 N2       -0.8754   -12.0219     5.5684  N.ar    1  <O>11      -0.1750
  22 N3       -0.1844   -12.2849     6.7025  N.ar    1  <O>11      -0.2425
  23 C18       1.0331   -12.8693     6.6106  C.ar    1  <O>11       0.2725
  24 O3        1.7399   -13.0259     7.8178  O.2     1  <O>11      -0.2658
  25 C19       1.5987   -13.3115     5.4056  C.ar    1  <O>11       0.0496
  26 C20       2.8442   -13.9740     5.3140  C.ar    1  <O>11      -0.0487
  27 C21       3.3643   -14.3594     4.0779  C.ar    1  <O>11      -0.0610
  28 C22       2.6572   -14.0826     2.9132  C.ar    1  <O>11      -0.0611
  29 C23       1.4294   -13.4225     2.9844  C.ar    1  <O>11      -0.0521
  30 C24       0.8828   -13.0322     4.2282  C.ar    1  <O>11       0.0106
  31 C25       0.3584    -9.9200     3.4070  C.ar    1  <O>11      -0.0363
  32 H1        2.6802    -6.3513     6.4682  H       1  <O>11       0.0677
  33 H2       -0.8400   -12.6602     2.2878  H       1  <O>11       0.0377
  34 H3       -2.1259   -11.9216     3.2712  H       1  <O>11       0.0377
  35 H4       -0.5719   -12.0471     7.6039  H       1  <O>11       0.1921
  36 H5        5.9516    -7.5079     4.0538  H       1  <O>11       0.0624
  37 H6        7.9862    -6.1891     3.9533  H       1  <O>11       0.0618
  38 H7        7.8956    -3.7777     4.2555  H       1  <O>11       0.0618
  39 H8        5.7586    -2.6940     4.6544  H       1  <O>11       0.0618
  40 H9        3.7176    -3.9966     4.7502  H       1  <O>11       0.0624
  41 H10       0.5443    -7.1275     1.5446  H       1  <O>11       0.0636
  42 H11      -1.1310    -8.3246     0.2572  H       1  <O>11       0.0618
  43 H12      -1.8647   -10.5330     0.9601  H       1  <O>11       0.0620
  44 H13       3.3769   -14.1756     6.1746  H       1  <O>11       0.0625
  45 H14       4.2716   -14.8487     4.0283  H       1  <O>11       0.0618
  46 H15       3.0396   -14.3649     1.9971  H       1  <O>11       0.0618
  47 H16       0.9126   -13.2162     2.1153  H       1  <O>11       0.0624
  48 H17       0.7604   -10.3570     4.2511  H       1  <O>11       0.0639
@<TRIPOS>BOND
     1     1     2    2
     2     2     3    1
     3     3     4    2
     4     4     5    1
     5     5     6   ar
     6     6     7   ar
     7     7     8   ar
     8     8     9   ar
     9     9    10   ar
    10     5    10   ar
    11     4    11    1
    12    11    12    2
    13    11    13   am
    14     2    13   am
    15    13    14    1
    16    14    15   ar
    17    15    16   ar
    18    16    17   ar
    19    17    18   ar
    20    18    19    1
    21    19    20    1
    22    20    21   ar
    23    21    22   ar
    24    22    23   ar
    25    23    24    2
    26    23    25   ar
    27    25    26   ar
    28    26    27   ar
    29    27    28   ar
    30    28    29   ar
    31    29    30   ar
    32    20    30   ar
    33    25    30   ar
    34    18    31   ar
    35    14    31   ar
    36     3    32    1
    37    19    33    1
    38    19    34    1
    39    22    35    1
    40     6    36    1
    41     7    37    1
    42     8    38    1
    43     9    39    1
    44    10    40    1
    45    15    41    1
    46    16    42    1
    47    17    43    1
    48    26    44    1
    49    27    45    1
    50    28    46    1
    51    29    47    1
    52    31    48    1
@<TRIPOS>MOLECULE
mol90_1_18
 48 52 0 0 0
SMALL
USER_CHARGES
****
VDW energy = -161.28
@<TRIPOS>ATOM
   1 O1        0.5046    -8.0405     5.6567  O.2     1  <O>11      -0.2698
   2 C1        1.4738    -7.6504     5.0424  C.2     1  <O>11       0.2511
   3 C2        2.5809    -6.7963     5.4892  C.2     1  <O>11       0.0138
   4 C3        3.4652    -6.6433     4.4974  C.2     1  <O>11       0.0497
   5 C4        4.6700    -5.8610     4.4230  C.ar    1  <O>11      -0.0127
   6 C5        5.0830    -5.0870     5.5230  C.ar    1  <O>11      -0.0539
   7 C6        6.2480    -4.3170     5.4450  C.ar    1  <O>11      -0.0612
   8 C7        7.0130    -4.3140     4.2750  C.ar    1  <O>11      -0.0617
   9 C8        6.6060    -5.0890     3.1840  C.ar    1  <O>11      -0.0612
  10 C9        5.4460    -5.8630     3.2520  C.ar    1  <O>11      -0.0539
  11 C10       2.9431    -7.4968     3.3849  C.2     1  <O>11       0.2582
  12 O2        3.4781    -7.7605     2.3298  O.2     1  <O>11      -0.2692
  13 N1        1.7239    -7.9522     3.7523  N.am    1  <O>11      -0.2028
  14 C11       0.7790    -8.6400     3.0090  C.ar    1  <O>11       0.0448
  15 C12       0.7926   -10.0450     2.9719  C.ar    1  <O>11      -0.0398
  16 C13      -0.1556   -10.7385     2.2103  C.ar    1  <O>11      -0.0597
  17 C14      -1.1249   -10.0400     1.4864  C.ar    1  <O>11      -0.0581
  18 C15      -1.1414    -8.6416     1.5298  C.ar    1  <O>11      -0.0397
  19 C16      -2.1682    -7.9085     0.7639  C.3     1  <O>11       0.0172
  20 C17      -1.6558    -7.6177    -0.6002  C.ar    1  <O>11       0.0736
  21 N2       -0.9604    -6.4283    -0.8450  N.ar    1  <O>11      -0.1750
  22 N3       -0.5786    -6.1010    -2.1020  N.ar    1  <O>11      -0.2425
  23 C18      -0.8701    -6.9453    -3.1190  C.ar    1  <O>11       0.2725
  24 O3       -0.5329    -6.5010    -4.4115  O.2     1  <O>11      -0.2658
  25 C19      -1.4708    -8.2007    -2.9447  C.ar    1  <O>11       0.0496
  26 C20      -1.7235    -9.1085    -3.9986  C.ar    1  <O>11      -0.0487
  27 C21      -2.3545   -10.3299    -3.7596  C.ar    1  <O>11      -0.0610
  28 C22      -2.7525   -10.6622    -2.4695  C.ar    1  <O>11      -0.0611
  29 C23      -2.5177    -9.7746    -1.4182  C.ar    1  <O>11      -0.0521
  30 C24      -1.8722    -8.5367    -1.6398  C.ar    1  <O>11       0.0106
  31 C25      -0.2016    -7.9398     2.2866  C.ar    1  <O>11      -0.0363
  32 H1        2.6802    -6.3513     6.4682  H       1  <O>11       0.0677
  33 H2       -2.4018    -6.9731     1.2716  H       1  <O>11       0.0377
  34 H3       -3.0698    -8.5166     0.6906  H       1  <O>11       0.0377
  35 H4       -0.0845    -5.2383    -2.2777  H       1  <O>11       0.1921
  36 H5        4.5242    -5.0874     6.3906  H       1  <O>11       0.0624
  37 H6        6.5439    -3.7490     6.2542  H       1  <O>11       0.0618
  38 H7        7.8715    -3.7443     4.2166  H       1  <O>11       0.0618
  39 H8        7.1693    -5.0887     2.3193  H       1  <O>11       0.0618
  40 H9        5.1590    -6.4359     2.4430  H       1  <O>11       0.0624
  41 H10       1.5035   -10.5670     3.5078  H       1  <O>11       0.0636
  42 H11      -0.1383   -11.7700     2.1834  H       1  <O>11       0.0618
  43 H12      -1.8231   -10.5513     0.9242  H       1  <O>11       0.0620
  44 H13      -1.4369    -8.8641    -4.9594  H       1  <O>11       0.0625
  45 H14      -2.5255   -10.9850    -4.5385  H       1  <O>11       0.0618
  46 H15      -3.2208   -11.5640    -2.2894  H       1  <O>11       0.0618
  47 H16      -2.8202   -10.0260    -0.4641  H       1  <O>11       0.0624
  48 H17      -0.2271    -6.9086     2.3153  H       1  <O>11       0.0639
@<TRIPOS>BOND
     1     1     2    2
     2     2     3    1
     3     3     4    2
     4     4     5    1
     5     5     6   ar
     6     6     7   ar
     7     7     8   ar
     8     8     9   ar
     9     9    10   ar
    10     5    10   ar
    11     4    11    1
    12    11    12    2
    13    11    13   am
    14     2    13   am
    15    13    14    1
    16    14    15   ar
    17    15    16   ar
    18    16    17   ar
    19    17    18   ar
    20    18    19    1
    21    19    20    1
    22    20    21   ar
    23    21    22   ar
    24    22    23   ar
    25    23    24    2
    26    23    25   ar
    27    25    26   ar
    28    26    27   ar
    29    27    28   ar
    30    28    29   ar
    31    29    30   ar
    32    20    30   ar
    33    25    30   ar
    34    18    31   ar
    35    14    31   ar
    36     3    32    1
    37    19    33    1
    38    19    34    1
    39    22    35    1
    40     6    36    1
    41     7    37    1
    42     8    38    1
    43     9    39    1
    44    10    40    1
    45    15    41    1
    46    16    42    1
    47    17    43    1
    48    26    44    1
    49    27    45    1
    50    28    46    1
    51    29    47    1
    52    31    48    1
@<TRIPOS>MOLECULE
mol90_1_19
 48 52 0 0 0
SMALL
USER_CHARGES
****
VDW energy = -160.96
@<TRIPOS>ATOM
   1 O1        0.5046    -8.0405     5.6567  O.2     1  <O>11      -0.2698
   2 C1        1.4738    -7.6504     5.0424  C.2     1  <O>11       0.2511
   3 C2        2.5809    -6.7963     5.4892  C.2     1  <O>11       0.0138
   4 C3        3.4652    -6.6433     4.4974  C.2     1  <O>11       0.0497
   5 C4        4.6700    -5.8610     4.4230  C.ar    1  <O>11      -0.0127
   6 C5        5.0830    -5.0870     5.5230  C.ar    1  <O>11      -0.0539
   7 C6        6.2480    -4.3170     5.4450  C.ar    1  <O>11      -0.0612
   8 C7        7.0130    -4.3140     4.2750  C.ar    1  <O>11      -0.0617
   9 C8        6.6060    -5.0890     3.1840  C.ar    1  <O>11      -0.0612
  10 C9        5.4460    -5.8630     3.2520  C.ar    1  <O>11      -0.0539
  11 C10       2.9431    -7.4968     3.3849  C.2     1  <O>11       0.2582
  12 O2        3.4781    -7.7605     2.3298  O.2     1  <O>11      -0.2692
  13 N1        1.7239    -7.9522     3.7523  N.am    1  <O>11      -0.2028
  14 C11       0.7790    -8.6400     3.0090  C.ar    1  <O>11       0.0448
  15 C12      -0.2010    -7.9385     2.2858  C.ar    1  <O>11      -0.0398
  16 C13      -1.1630    -8.6354     1.5449  C.ar    1  <O>11      -0.0597
  17 C14      -1.1527   -10.0320     1.5144  C.ar    1  <O>11      -0.0581
  18 C15      -0.1723   -10.7288     2.2292  C.ar    1  <O>11      -0.0397
  19 C16      -0.1653   -12.2042     2.1928  C.3     1  <O>11       0.0172
  20 C17       0.9579   -12.7153     3.0204  C.ar    1  <O>11       0.0736
  21 N2        0.7581   -12.9811     4.3796  N.ar    1  <O>11      -0.1750
  22 N3        1.7955   -13.3473     5.1687  N.ar    1  <O>11      -0.2425
  23 C18       3.0287   -13.4627     4.6228  C.ar    1  <O>11       0.2725
  24 O3        4.0787   -13.7504     5.5150  O.2     1  <O>11      -0.2658
  25 C19       3.2940   -13.3147     3.2534  C.ar    1  <O>11       0.0496
  26 C20       4.5708   -13.4917     2.6728  C.ar    1  <O>11      -0.0487
  27 C21       4.7721   -13.2975     1.3057  C.ar    1  <O>11      -0.0610
  28 C22       3.7076   -12.9148     0.4973  C.ar    1  <O>11      -0.0611
  29 C23       2.4418   -12.7282     1.0551  C.ar    1  <O>11      -0.0521
  30 C24       2.2171   -12.9286     2.4362  C.ar    1  <O>11       0.0106
  31 C25       0.7923   -10.0443     2.9705  C.ar    1  <O>11      -0.0363
  32 H1        2.6802    -6.3513     6.4682  H       1  <O>11       0.0677
  33 H2       -0.0423   -12.5421     1.1643  H       1  <O>11       0.0377
  34 H3       -1.1082   -12.5818     2.5884  H       1  <O>11       0.0377
  35 H4        1.6507   -13.5303     6.1509  H       1  <O>11       0.1921
  36 H5        4.5242    -5.0874     6.3906  H       1  <O>11       0.0624
  37 H6        6.5439    -3.7490     6.2542  H       1  <O>11       0.0618
  38 H7        7.8715    -3.7443     4.2166  H       1  <O>11       0.0618
  39 H8        7.1693    -5.0887     2.3193  H       1  <O>11       0.0618
  40 H9        5.1590    -6.4359     2.4430  H       1  <O>11       0.0624
  41 H10      -0.2115    -6.9066     2.3010  H       1  <O>11       0.0636
  42 H11      -1.8828    -8.1152     1.0191  H       1  <O>11       0.0618
  43 H12      -1.8625   -10.5456     0.9690  H       1  <O>11       0.0620
  44 H13       5.3663   -13.7687     3.2691  H       1  <O>11       0.0625
  45 H14       5.7087   -13.4377     0.8957  H       1  <O>11       0.0618
  46 H15       3.8532   -12.7688    -0.5139  H       1  <O>11       0.0618
  47 H16       1.6575   -12.4395     0.4496  H       1  <O>11       0.0624
  48 H17       1.5138   -10.5689     3.4893  H       1  <O>11       0.0639
@<TRIPOS>BOND
     1     1     2    2
     2     2     3    1
     3     3     4    2
     4     4     5    1
     5     5     6   ar
     6     6     7   ar
     7     7     8   ar
     8     8     9   ar
     9     9    10   ar
    10     5    10   ar
    11     4    11    1
    12    11    12    2
    13    11    13   am
    14     2    13   am
    15    13    14    1
    16    14    15   ar
    17    15    16   ar
    18    16    17   ar
    19    17    18   ar
    20    18    19    1
    21    19    20    1
    22    20    21   ar
    23    21    22   ar
    24    22    23   ar
    25    23    24    2
    26    23    25   ar
    27    25    26   ar
    28    26    27   ar
    29    27    28   ar
    30    28    29   ar
    31    29    30   ar
    32    20    30   ar
    33    25    30   ar
    34    18    31   ar
    35    14    31   ar
    36     3    32    1
    37    19    33    1
    38    19    34    1
    39    22    35    1
    40     6    36    1
    41     7    37    1
    42     8    38    1
    43     9    39    1
    44    10    40    1
    45    15    41    1
    46    16    42    1
    47    17    43    1
    48    26    44    1
    49    27    45    1
    50    28    46    1
    51    29    47    1
    52    31    48    1
@<TRIPOS>MOLECULE
mol90_1_20
 48 52 0 0 0
SMALL
USER_CHARGES
****
VDW energy = -152.23
@<TRIPOS>ATOM
   1 O1        0.5046    -8.0405     5.6567  O.2     1  <O>11      -0.2698
   2 C1        1.4738    -7.6504     5.0424  C.2     1  <O>11       0.2511
   3 C2        2.5809    -6.7963     5.4892  C.2     1  <O>11       0.0138
   4 C3        3.4652    -6.6433     4.4974  C.2     1  <O>11       0.0497
   5 C4        4.6700    -5.8610     4.4230  C.ar    1  <O>11      -0.0127
   6 C5        5.9083    -6.4852     4.1848  C.ar    1  <O>11      -0.0539
   7 C6        7.0807    -5.7249     4.1252  C.ar    1  <O>11      -0.0612
   8 C7        7.0303    -4.3385     4.2975  C.ar    1  <O>11      -0.0617
   9 C8        5.7983    -3.7173     4.5273  C.ar    1  <O>11      -0.0612
  10 C9        4.6217    -4.4666     4.5865  C.ar    1  <O>11      -0.0539
  11 C10       2.9431    -7.4968     3.3849  C.2     1  <O>11       0.2582
  12 O2        3.4781    -7.7605     2.3298  O.2     1  <O>11      -0.2692
  13 N1        1.7239    -7.9522     3.7523  N.am    1  <O>11      -0.2028
  14 C11       0.7790    -8.6400     3.0090  C.ar    1  <O>11       0.0448
  15 C12       0.7926   -10.0450     2.9719  C.ar    1  <O>11      -0.0398
  16 C13      -0.1556   -10.7385     2.2103  C.ar    1  <O>11      -0.0597
  17 C14      -1.1249   -10.0400     1.4864  C.ar    1  <O>11      -0.0581
  18 C15      -1.1414    -8.6416     1.5298  C.ar    1  <O>11      -0.0397
  19 C16      -2.1682    -7.9085     0.7639  C.3     1  <O>11       0.0172
  20 C17      -1.9862    -6.4473     0.9631  C.ar    1  <O>11       0.0736
  21 N2       -1.7304    -5.6201    -0.1362  N.ar    1  <O>11      -0.1750
  22 N3       -1.4596    -4.3055     0.0404  N.ar    1  <O>11      -0.2425
  23 C18      -1.4493    -3.7986     1.2955  C.ar    1  <O>11       0.2725
  24 O3       -1.0652    -2.4500     1.4179  O.2     1  <O>11      -0.2658
  25 C19      -1.7951    -4.5347     2.4383  C.ar    1  <O>11       0.0496
  26 C20      -1.8410    -3.9923     3.7431  C.ar    1  <O>11      -0.0487
  27 C21      -2.1625    -4.7895     4.8422  C.ar    1  <O>11      -0.0610
  28 C22      -2.4337    -6.1411     4.6607  C.ar    1  <O>11      -0.0611
  29 C23      -2.3855    -6.6950     3.3804  C.ar    1  <O>11      -0.0521
  30 C24      -2.0702    -5.9011     2.2542  C.ar    1  <O>11       0.0106
  31 C25      -0.2016    -7.9398     2.2866  C.ar    1  <O>11      -0.0363
  32 H1        2.6802    -6.3513     6.4682  H       1  <O>11       0.0677
  33 H2       -3.1587    -8.2020     1.1100  H       1  <O>11       0.0377
  34 H3       -2.0691    -8.1451    -0.2955  H       1  <O>11       0.0377
  35 H4       -1.2669    -3.7123    -0.7534  H       1  <O>11       0.1921
  36 H5        5.9516    -7.5079     4.0538  H       1  <O>11       0.0624
  37 H6        7.9862    -6.1891     3.9533  H       1  <O>11       0.0618
  38 H7        7.8956    -3.7777     4.2555  H       1  <O>11       0.0618
  39 H8        5.7586    -2.6940     4.6544  H       1  <O>11       0.0618
  40 H9        3.7176    -3.9966     4.7502  H       1  <O>11       0.0624
  41 H10       1.5035   -10.5670     3.5078  H       1  <O>11       0.0636
  42 H11      -0.1383   -11.7700     2.1834  H       1  <O>11       0.0618
  43 H12      -1.8231   -10.5513     0.9242  H       1  <O>11       0.0620
  44 H13      -1.6335    -2.9913     3.8848  H       1  <O>11       0.0625
  45 H14      -2.1988    -4.3770     5.7875  H       1  <O>11       0.0618
  46 H15      -2.6702    -6.7340     5.4716  H       1  <O>11       0.0618
  47 H16      -2.5833    -7.6999     3.2541  H       1  <O>11       0.0624
  48 H17      -0.2271    -6.9086     2.3153  H       1  <O>11       0.0639
@<TRIPOS>BOND
     1     1     2    2
     2     2     3    1
     3     3     4    2
     4     4     5    1
     5     5     6   ar
     6     6     7   ar
     7     7     8   ar
     8     8     9   ar
     9     9    10   ar
    10     5    10   ar
    11     4    11    1
    12    11    12    2
    13    11    13   am
    14     2    13   am
    15    13    14    1
    16    14    15   ar
    17    15    16   ar
    18    16    17   ar
    19    17    18   ar
    20    18    19    1
    21    19    20    1
    22    20    21   ar
    23    21    22   ar
    24    22    23   ar
    25    23    24    2
    26    23    25   ar
    27    25    26   ar
    28    26    27   ar
    29    27    28   ar
    30    28    29   ar
    31    29    30   ar
    32    20    30   ar
    33    25    30   ar
    34    18    31   ar
    35    14    31   ar
    36     3    32    1
    37    19    33    1
    38    19    34    1
    39    22    35    1
    40     6    36    1
    41     7    37    1
    42     8    38    1
    43     9    39    1
    44    10    40    1
    45    15    41    1
    46    16    42    1
    47    17    43    1
    48    26    44    1
    49    27    45    1
    50    28    46    1
    51    29    47    1
    52    31    48    1
@<TRIPOS>MOLECULE
mol90_1_21
 48 52 0 0 0
SMALL
USER_CHARGES
****
VDW energy = -143.95
@<TRIPOS>ATOM
   1 O1        0.5046    -8.0405     5.6567  O.2     1  <O>11      -0.2698
   2 C1        1.4738    -7.6504     5.0424  C.2     1  <O>11       0.2511
   3 C2        2.5809    -6.7963     5.4892  C.2     1  <O>11       0.0138
   4 C3        3.4652    -6.6433     4.4974  C.2     1  <O>11       0.0497
   5 C4        4.6700    -5.8610     4.4230  C.ar    1  <O>11      -0.0127
   6 C5        5.9029    -6.4176     4.8100  C.ar    1  <O>11      -0.0539
   7 C6        7.0718    -5.6519     4.7490  C.ar    1  <O>11      -0.0612
   8 C7        7.0243    -4.3292     4.2991  C.ar    1  <O>11      -0.0617
   9 C8        5.7996    -3.7783     3.9078  C.ar    1  <O>11      -0.0612
  10 C9        4.6273    -4.5345     3.9626  C.ar    1  <O>11      -0.0539
  11 C10       2.9431    -7.4968     3.3849  C.2     1  <O>11       0.2582
  12 O2        3.4781    -7.7605     2.3298  O.2     1  <O>11      -0.2692
  13 N1        1.7239    -7.9522     3.7523  N.am    1  <O>11      -0.2028
  14 C11       0.7790    -8.6400     3.0090  C.ar    1  <O>11       0.0448
  15 C12      -0.4400    -9.0240     3.5940  C.ar    1  <O>11      -0.0398
  16 C13      -1.3890    -9.7300     2.8450  C.ar    1  <O>11      -0.0597
  17 C14      -1.1340   -10.0530     1.5100  C.ar    1  <O>11      -0.0581
  18 C15       0.0770    -9.6640     0.9270  C.ar    1  <O>11      -0.0397
  19 C16       0.3410   -10.0070    -0.4840  C.3     1  <O>11       0.0172
  20 C17       1.0118   -11.3309    -0.5553  C.ar    1  <O>11       0.0736
  21 N2        1.2913   -12.0353     0.6210  N.ar    1  <O>11      -0.1750
  22 N3        1.9937   -13.1920     0.5798  N.ar    1  <O>11      -0.2425
  23 C18       2.4142   -13.6641    -0.6170  C.ar    1  <O>11       0.2725
  24 O3        3.2216   -14.8166    -0.5815  O.2     1  <O>11      -0.2658
  25 C19       2.0888   -13.0748    -1.8476  C.ar    1  <O>11       0.0496
  26 C20       2.4784   -13.5985    -3.1016  C.ar    1  <O>11      -0.0487
  27 C21       2.1475   -12.9435    -4.2885  C.ar    1  <O>11      -0.0610
  28 C22       1.4321   -11.7521    -4.2448  C.ar    1  <O>11      -0.0611
  29 C23       1.0459   -11.2167    -3.0150  C.ar    1  <O>11      -0.0521
  30 C24       1.3646   -11.8705    -1.8029  C.ar    1  <O>11       0.0106
  31 C25       1.0300    -8.9590     1.6640  C.ar    1  <O>11      -0.0363
  32 H1        2.6802    -6.3513     6.4682  H       1  <O>11       0.0677
  33 H2        0.9850    -9.2487    -0.9282  H       1  <O>11       0.0377
  34 H3       -0.6013   -10.0481    -1.0303  H       1  <O>11       0.0377
  35 H4        2.2016   -13.6942     1.4305  H       1  <O>11       0.1921
  36 H5        5.9450    -7.3944     5.1401  H       1  <O>11       0.0624
  37 H6        7.9725    -6.0649     5.0372  H       1  <O>11       0.0618
  38 H7        7.8864    -3.7635     4.2560  H       1  <O>11       0.0618
  39 H8        5.7621    -2.8022     3.5750  H       1  <O>11       0.0618
  40 H9        3.7304    -4.1195     3.6652  H       1  <O>11       0.0624
  41 H10      -0.6361    -8.7848     4.5786  H       1  <O>11       0.0636
  42 H11      -2.2806   -10.0130     3.2809  H       1  <O>11       0.0618
  43 H12      -1.8332   -10.5743     0.9583  H       1  <O>11       0.0620
  44 H13       3.0158   -14.4787    -3.1399  H       1  <O>11       0.0625
  45 H14       2.4330   -13.3425    -5.1964  H       1  <O>11       0.0618
  46 H15       1.1870   -11.2642    -5.1205  H       1  <O>11       0.0618
  47 H16       0.5192   -10.3295    -2.9902  H       1  <O>11       0.0624
  48 H17       1.9173    -8.6726     1.2217  H       1  <O>11       0.0639
@<TRIPOS>BOND
     1     1     2    2
     2     2     3    1
     3     3     4    2
     4     4     5    1
     5     5     6   ar
     6     6     7   ar
     7     7     8   ar
     8     8     9   ar
     9     9    10   ar
    10     5    10   ar
    11     4    11    1
    12    11    12    2
    13    11    13   am
    14     2    13   am
    15    13    14    1
    16    14    15   ar
    17    15    16   ar
    18    16    17   ar
    19    17    18   ar
    20    18    19    1
    21    19    20    1
    22    20    21   ar
    23    21    22   ar
    24    22    23   ar
    25    23    24    2
    26    23    25   ar
    27    25    26   ar
    28    26    27   ar
    29    27    28   ar
    30    28    29   ar
    31    29    30   ar
    32    20    30   ar
    33    25    30   ar
    34    18    31   ar
    35    14    31   ar
    36     3    32    1
    37    19    33    1
    38    19    34    1
    39    22    35    1
    40     6    36    1
    41     7    37    1
    42     8    38    1
    43     9    39    1
    44    10    40    1
    45    15    41    1
    46    16    42    1
    47    17    43    1
    48    26    44    1
    49    27    45    1
    50    28    46    1
    51    29    47    1
    52    31    48    1
@<TRIPOS>MOLECULE
mol90_1_22
 48 52 0 0 0
SMALL
USER_CHARGES
****
VDW energy = -141.53
@<TRIPOS>ATOM
   1 O1        0.5046    -8.0405     5.6567  O.2     1  <O>11      -0.2698
   2 C1        1.4738    -7.6504     5.0424  C.2     1  <O>11       0.2511
   3 C2        2.5809    -6.7963     5.4892  C.2     1  <O>11       0.0138
   4 C3        3.4652    -6.6433     4.4974  C.2     1  <O>11       0.0497
   5 C4        4.6700    -5.8610     4.4230  C.ar    1  <O>11      -0.0127
   6 C5        5.9083    -6.4852     4.1848  C.ar    1  <O>11      -0.0539
   7 C6        7.0807    -5.7249     4.1252  C.ar    1  <O>11      -0.0612
   8 C7        7.0303    -4.3385     4.2975  C.ar    1  <O>11      -0.0617
   9 C8        5.7983    -3.7173     4.5273  C.ar    1  <O>11      -0.0612
  10 C9        4.6217    -4.4666     4.5865  C.ar    1  <O>11      -0.0539
  11 C10       2.9431    -7.4968     3.3849  C.2     1  <O>11       0.2582
  12 O2        3.4781    -7.7605     2.3298  O.2     1  <O>11      -0.2692
  13 N1        1.7239    -7.9522     3.7523  N.am    1  <O>11      -0.2028
  14 C11       0.7790    -8.6400     3.0090  C.ar    1  <O>11       0.0448
  15 C12      -0.4398    -9.0243     3.5941  C.ar    1  <O>11      -0.0398
  16 C13      -1.3888    -9.7303     2.8451  C.ar    1  <O>11      -0.0597
  17 C14      -1.1340   -10.0530     1.5100  C.ar    1  <O>11      -0.0581
  18 C15       0.0769    -9.6637     0.9269  C.ar    1  <O>11      -0.0397
  19 C16       0.3407   -10.0063    -0.4842  C.3     1  <O>11       0.0172
  20 C17       0.3092   -11.4826    -0.6502  C.ar    1  <O>11       0.0736
  21 N2       -0.8949   -12.1238    -0.9616  N.ar    1  <O>11      -0.1750
  22 N3       -0.9614   -13.4750    -1.0135  N.ar    1  <O>11      -0.2425
  23 C18       0.1563   -14.1985    -0.7696  C.ar    1  <O>11       0.2725
  24 O3       -0.0024   -15.5970    -0.7427  O.2     1  <O>11      -0.2658
  25 C19       1.4213   -13.6330    -0.5523  C.ar    1  <O>11       0.0496
  26 C20       2.6004   -14.3877    -0.3548  C.ar    1  <O>11      -0.0487
  27 C21       3.8230   -13.7607    -0.1117  C.ar    1  <O>11      -0.0610
  28 C22       3.8890   -12.3731    -0.0517  C.ar    1  <O>11      -0.0611
  29 C23       2.7333   -11.6126    -0.2368  C.ar    1  <O>11      -0.0521
  30 C24       1.4877   -12.2299    -0.4927  C.ar    1  <O>11       0.0106
  31 C25       1.0298    -8.9587     1.6639  C.ar    1  <O>11      -0.0363
  32 H1        2.6802    -6.3513     6.4682  H       1  <O>11       0.0677
  33 H2        1.3212    -9.6288    -0.7729  H       1  <O>11       0.0377
  34 H3       -0.4230    -9.5539    -1.1168  H       1  <O>11       0.0377
  35 H4       -1.8332   -13.9358    -1.2300  H       1  <O>11       0.1921
  36 H5        5.9516    -7.5079     4.0538  H       1  <O>11       0.0624
  37 H6        7.9862    -6.1891     3.9533  H       1  <O>11       0.0618
  38 H7        7.8956    -3.7777     4.2555  H       1  <O>11       0.0618
  39 H8        5.7586    -2.6940     4.6544  H       1  <O>11       0.0618
  40 H9        3.7176    -3.9966     4.7502  H       1  <O>11       0.0624
  41 H10      -0.6358    -8.7854     4.5788  H       1  <O>11       0.0636
  42 H11      -2.2803   -10.0136     3.2811  H       1  <O>11       0.0618
  43 H12      -1.8332   -10.5743     0.9583  H       1  <O>11       0.0620
  44 H13       2.5562   -15.4181    -0.3910  H       1  <O>11       0.0625
  45 H14       4.6762   -14.3255     0.0233  H       1  <O>11       0.0618
  46 H15       4.7913   -11.9062     0.1295  H       1  <O>11       0.0618
  47 H16       2.7892   -10.5834    -0.1861  H       1  <O>11       0.0624
  48 H17       1.9170    -8.6720     1.2215  H       1  <O>11       0.0639
@<TRIPOS>BOND
     1     1     2    2
     2     2     3    1
     3     3     4    2
     4     4     5    1
     5     5     6   ar
     6     6     7   ar
     7     7     8   ar
     8     8     9   ar
     9     9    10   ar
    10     5    10   ar
    11     4    11    1
    12    11    12    2
    13    11    13   am
    14     2    13   am
    15    13    14    1
    16    14    15   ar
    17    15    16   ar
    18    16    17   ar
    19    17    18   ar
    20    18    19    1
    21    19    20    1
    22    20    21   ar
    23    21    22   ar
    24    22    23   ar
    25    23    24    2
    26    23    25   ar
    27    25    26   ar
    28    26    27   ar
    29    27    28   ar
    30    28    29   ar
    31    29    30   ar
    32    20    30   ar
    33    25    30   ar
    34    18    31   ar
    35    14    31   ar
    36     3    32    1
    37    19    33    1
    38    19    34    1
    39    22    35    1
    40     6    36    1
    41     7    37    1
    42     8    38    1
    43     9    39    1
    44    10    40    1
    45    15    41    1
    46    16    42    1
    47    17    43    1
    48    26    44    1
    49    27    45    1
    50    28    46    1
    51    29    47    1
    52    31    48    1
@<TRIPOS>MOLECULE
mol90_1_23
 48 52 0 0 0
SMALL
USER_CHARGES
****
VDW energy = -140.76
@<TRIPOS>ATOM
   1 O1        0.5046    -8.0405     5.6567  O.2     1  <O>11      -0.2698
   2 C1        1.4738    -7.6504     5.0424  C.2     1  <O>11       0.2511
   3 C2        2.5809    -6.7963     5.4892  C.2     1  <O>11       0.0138
   4 C3        3.4652    -6.6433     4.4974  C.2     1  <O>11       0.0497
   5 C4        4.6700    -5.8610     4.4230  C.ar    1  <O>11      -0.0127
   6 C5        5.9083    -6.4852     4.1848  C.ar    1  <O>11      -0.0539
   7 C6        7.0807    -5.7249     4.1252  C.ar    1  <O>11      -0.0612
   8 C7        7.0303    -4.3385     4.2975  C.ar    1  <O>11      -0.0617
   9 C8        5.7983    -3.7173     4.5273  C.ar    1  <O>11      -0.0612
  10 C9        4.6217    -4.4666     4.5865  C.ar    1  <O>11      -0.0539
  11 C10       2.9431    -7.4968     3.3849  C.2     1  <O>11       0.2582
  12 O2        3.4781    -7.7605     2.3298  O.2     1  <O>11      -0.2692
  13 N1        1.7239    -7.9522     3.7523  N.am    1  <O>11      -0.2028
  14 C11       0.7790    -8.6400     3.0090  C.ar    1  <O>11       0.0448
  15 C12      -0.4398    -9.0243     3.5941  C.ar    1  <O>11      -0.0398
  16 C13      -1.3888    -9.7303     2.8451  C.ar    1  <O>11      -0.0597
  17 C14      -1.1340   -10.0530     1.5100  C.ar    1  <O>11      -0.0581
  18 C15       0.0769    -9.6637     0.9269  C.ar    1  <O>11      -0.0397
  19 C16       0.3407   -10.0063    -0.4842  C.3     1  <O>11       0.0172
  20 C17       1.0117   -11.3301    -0.5559  C.ar    1  <O>11       0.0736
  21 N2        0.2448   -12.4961    -0.6581  N.ar    1  <O>11      -0.1750
  22 N3        0.8356   -13.7136    -0.6196  N.ar    1  <O>11      -0.2425
  23 C18       2.1810   -13.7883    -0.4907  C.ar    1  <O>11       0.2725
  24 O3        2.7217   -15.0812    -0.3586  O.2     1  <O>11      -0.2658
  25 C19       3.0287   -12.6709    -0.4854  C.ar    1  <O>11       0.0496
  26 C20       4.4382   -12.7493    -0.4090  C.ar    1  <O>11      -0.0487
  27 C21       5.2218   -11.5951    -0.3760  C.ar    1  <O>11      -0.0610
  28 C22       4.6137   -10.3451    -0.4086  C.ar    1  <O>11      -0.0611
  29 C23       3.2229   -10.2490    -0.4764  C.ar    1  <O>11      -0.0521
  30 C24       2.4135   -11.4071    -0.5194  C.ar    1  <O>11       0.0106
  31 C25       1.0298    -8.9587     1.6639  C.ar    1  <O>11      -0.0363
  32 H1        2.6802    -6.3513     6.4682  H       1  <O>11       0.0677
  33 H2        0.9845    -9.2478    -0.9284  H       1  <O>11       0.0377
  34 H3       -0.6017   -10.0475    -1.0304  H       1  <O>11       0.0377
  35 H4        0.2796   -14.5537    -0.6849  H       1  <O>11       0.1921
  36 H5        5.9516    -7.5079     4.0538  H       1  <O>11       0.0624
  37 H6        7.9862    -6.1891     3.9533  H       1  <O>11       0.0618
  38 H7        7.8956    -3.7777     4.2555  H       1  <O>11       0.0618
  39 H8        5.7586    -2.6940     4.6544  H       1  <O>11       0.0618
  40 H9        3.7176    -3.9966     4.7502  H       1  <O>11       0.0624
  41 H10      -0.6358    -8.7854     4.5788  H       1  <O>11       0.0636
  42 H11      -2.2803   -10.0136     3.2811  H       1  <O>11       0.0618
  43 H12      -1.8332   -10.5743     0.9583  H       1  <O>11       0.0620
  44 H13       4.8947   -13.6743    -0.3772  H       1  <O>11       0.0625
  45 H14       6.2500   -11.6691    -0.3275  H       1  <O>11       0.0618
  46 H15       5.1901    -9.4894    -0.3828  H       1  <O>11       0.0618
  47 H16       2.7785    -9.3178    -0.4954  H       1  <O>11       0.0624
  48 H17       1.9170    -8.6720     1.2215  H       1  <O>11       0.0639
@<TRIPOS>BOND
     1     1     2    2
     2     2     3    1
     3     3     4    2
     4     4     5    1
     5     5     6   ar
     6     6     7   ar
     7     7     8   ar
     8     8     9   ar
     9     9    10   ar
    10     5    10   ar
    11     4    11    1
    12    11    12    2
    13    11    13   am
    14     2    13   am
    15    13    14    1
    16    14    15   ar
    17    15    16   ar
    18    16    17   ar
    19    17    18   ar
    20    18    19    1
    21    19    20    1
    22    20    21   ar
    23    21    22   ar
    24    22    23   ar
    25    23    24    2
    26    23    25   ar
    27    25    26   ar
    28    26    27   ar
    29    27    28   ar
    30    28    29   ar
    31    29    30   ar
    32    20    30   ar
    33    25    30   ar
    34    18    31   ar
    35    14    31   ar
    36     3    32    1
    37    19    33    1
    38    19    34    1
    39    22    35    1
    40     6    36    1
    41     7    37    1
    42     8    38    1
    43     9    39    1
    44    10    40    1
    45    15    41    1
    46    16    42    1
    47    17    43    1
    48    26    44    1
    49    27    45    1
    50    28    46    1
    51    29    47    1
    52    31    48    1
@<TRIPOS>MOLECULE
mol90_1_24
 48 52 0 0 0
SMALL
USER_CHARGES
****
VDW energy = -139.58
@<TRIPOS>ATOM
   1 O1        0.5046    -8.0405     5.6567  O.2     1  <O>11      -0.2698
   2 C1        1.4738    -7.6504     5.0424  C.2     1  <O>11       0.2511
   3 C2        2.5809    -6.7963     5.4892  C.2     1  <O>11       0.0138
   4 C3        3.4652    -6.6433     4.4974  C.2     1  <O>11       0.0497
   5 C4        4.6700    -5.8610     4.4230  C.ar    1  <O>11      -0.0127
   6 C5        4.8027    -4.8524     3.4510  C.ar    1  <O>11      -0.0539
   7 C6        5.9796    -4.1009     3.3717  C.ar    1  <O>11      -0.0612
   8 C7        7.0311    -4.3434     4.2603  C.ar    1  <O>11      -0.0617
   9 C8        6.8963    -5.3414     5.2310  C.ar    1  <O>11      -0.0612
  10 C9        5.7249    -6.0959     5.3204  C.ar    1  <O>11      -0.0539
  11 C10       2.9431    -7.4968     3.3849  C.2     1  <O>11       0.2582
  12 O2        3.4781    -7.7605     2.3298  O.2     1  <O>11      -0.2692
  13 N1        1.7239    -7.9522     3.7523  N.am    1  <O>11      -0.2028
  14 C11       0.7790    -8.6400     3.0090  C.ar    1  <O>11       0.0448
  15 C12       0.2333    -8.0633     1.8491  C.ar    1  <O>11      -0.0398
  16 C13      -0.7308    -8.7546     1.1057  C.ar    1  <O>11      -0.0597
  17 C14      -1.1533   -10.0240     1.5077  C.ar    1  <O>11      -0.0581
  18 C15      -0.6041   -10.5997     2.6586  C.ar    1  <O>11      -0.0397
  19 C16      -1.0532   -11.9415     3.0784  C.3     1  <O>11       0.0172
  20 C17      -0.3356   -12.3396     4.3171  C.ar    1  <O>11       0.0736
  21 N2        0.4602   -13.4905     4.3227  N.ar    1  <O>11      -0.1750
  22 N3        1.0359   -13.9232     5.4691  N.ar    1  <O>11      -0.2425
  23 C18       0.8393   -13.2214     6.6097  C.ar    1  <O>11       0.2725
  24 O3        1.3832   -13.7774     7.7829  O.2     1  <O>11      -0.2658
  25 C19       0.1429   -12.0053     6.6688  C.ar    1  <O>11       0.0496
  26 C20      -0.0141   -11.2416     7.8481  C.ar    1  <O>11      -0.0487
  27 C21      -0.7475   -10.0545     7.8435  C.ar    1  <O>11      -0.0610
  28 C22      -1.3442    -9.6145     6.6672  C.ar    1  <O>11      -0.0611
  29 C23      -1.2058   -10.3599     5.4954  C.ar    1  <O>11      -0.0521
  30 C24      -0.4595   -11.5603     5.4788  C.ar    1  <O>11       0.0106
  31 C25       0.3584    -9.9200     3.4070  C.ar    1  <O>11      -0.0363
  32 H1        2.6802    -6.3513     6.4682  H       1  <O>11       0.0677
  33 H2       -0.8400   -12.6602     2.2878  H       1  <O>11       0.0377
  34 H3       -2.1259   -11.9216     3.2712  H       1  <O>11       0.0377
  35 H4        1.6027   -14.7586     5.4726  H       1  <O>11       0.1921
  36 H5        4.0288    -4.6665     2.7941  H       1  <O>11       0.0624
  37 H6        6.0720    -3.3646     2.6545  H       1  <O>11       0.0618
  38 H7        7.9004    -3.7903     4.2005  H       1  <O>11       0.0618
  39 H8        7.6710    -5.5220     5.8884  H       1  <O>11       0.0618
  40 H9        5.6342    -6.8253     6.0449  H       1  <O>11       0.0624
  41 H10       0.5443    -7.1275     1.5446  H       1  <O>11       0.0636
  42 H11      -1.1310    -8.3246     0.2572  H       1  <O>11       0.0618
  43 H12      -1.8647   -10.5330     0.9601  H       1  <O>11       0.0620
  44 H13       0.4204   -11.5670     8.7258  H       1  <O>11       0.0625
  45 H14      -0.8469    -9.5045     8.7111  H       1  <O>11       0.0618
  46 H15      -1.8886    -8.7378     6.6607  H       1  <O>11       0.0618
  47 H16      -1.6555   -10.0295     4.6272  H       1  <O>11       0.0624
  48 H17       0.7604   -10.3570     4.2511  H       1  <O>11       0.0639
@<TRIPOS>BOND
     1     1     2    2
     2     2     3    1
     3     3     4    2
     4     4     5    1
     5     5     6   ar
     6     6     7   ar
     7     7     8   ar
     8     8     9   ar
     9     9    10   ar
    10     5    10   ar
    11     4    11    1
    12    11    12    2
    13    11    13   am
    14     2    13   am
    15    13    14    1
    16    14    15   ar
    17    15    16   ar
    18    16    17   ar
    19    17    18   ar
    20    18    19    1
    21    19    20    1
    22    20    21   ar
    23    21    22   ar
    24    22    23   ar
    25    23    24    2
    26    23    25   ar
    27    25    26   ar
    28    26    27   ar
    29    27    28   ar
    30    28    29   ar
    31    29    30   ar
    32    20    30   ar
    33    25    30   ar
    34    18    31   ar
    35    14    31   ar
    36     3    32    1
    37    19    33    1
    38    19    34    1
    39    22    35    1
    40     6    36    1
    41     7    37    1
    42     8    38    1
    43     9    39    1
    44    10    40    1
    45    15    41    1
    46    16    42    1
    47    17    43    1
    48    26    44    1
    49    27    45    1
    50    28    46    1
    51    29    47    1
    52    31    48    1
@<TRIPOS>MOLECULE
mol90_1_25
 48 52 0 0 0
SMALL
USER_CHARGES
****
VDW energy = -136.41
@<TRIPOS>ATOM
   1 O1        0.5046    -8.0405     5.6567  O.2     1  <O>11      -0.2698
   2 C1        1.4738    -7.6504     5.0424  C.2     1  <O>11       0.2511
   3 C2        2.5809    -6.7963     5.4892  C.2     1  <O>11       0.0138
   4 C3        3.4652    -6.6433     4.4974  C.2     1  <O>11       0.0497
   5 C4        4.6700    -5.8610     4.4230  C.ar    1  <O>11      -0.0127
   6 C5        5.9083    -6.4852     4.1848  C.ar    1  <O>11      -0.0539
   7 C6        7.0807    -5.7249     4.1252  C.ar    1  <O>11      -0.0612
   8 C7        7.0303    -4.3385     4.2975  C.ar    1  <O>11      -0.0617
   9 C8        5.7983    -3.7173     4.5273  C.ar    1  <O>11      -0.0612
  10 C9        4.6217    -4.4666     4.5865  C.ar    1  <O>11      -0.0539
  11 C10       2.9431    -7.4968     3.3849  C.2     1  <O>11       0.2582
  12 O2        3.4781    -7.7605     2.3298  O.2     1  <O>11      -0.2692
  13 N1        1.7239    -7.9522     3.7523  N.am    1  <O>11      -0.2028
  14 C11       0.7790    -8.6400     3.0090  C.ar    1  <O>11       0.0448
  15 C12      -0.4398    -9.0243     3.5941  C.ar    1  <O>11      -0.0398
  16 C13      -1.3888    -9.7303     2.8451  C.ar    1  <O>11      -0.0597
  17 C14      -1.1340   -10.0530     1.5100  C.ar    1  <O>11      -0.0581
  18 C15       0.0769    -9.6637     0.9269  C.ar    1  <O>11      -0.0397
  19 C16       0.3407   -10.0063    -0.4842  C.3     1  <O>11       0.0172
  20 C17       1.6785    -9.4930    -0.8773  C.ar    1  <O>11       0.0736
  21 N2        2.8107   -10.2986    -0.7120  N.ar    1  <O>11      -0.1750
  22 N3        4.0467    -9.8088    -0.9674  N.ar    1  <O>11      -0.2425
  23 C18       4.1725    -8.5307    -1.3950  C.ar    1  <O>11       0.2725
  24 O3        5.4879    -8.0533    -1.5480  O.2     1  <O>11      -0.2658
  25 C19       3.0854    -7.6927    -1.6837  C.ar    1  <O>11       0.0496
  26 C20       3.2138    -6.3772    -2.1853  C.ar    1  <O>11      -0.0487
  27 C21       2.0896    -5.5848    -2.4211  C.ar    1  <O>11      -0.0610
  28 C22       0.8210    -6.0862    -2.1520  C.ar    1  <O>11      -0.0611
  29 C23       0.6762    -7.3802    -1.6492  C.ar    1  <O>11      -0.0521
  30 C24       1.8028    -8.2005    -1.4122  C.ar    1  <O>11       0.0106
  31 C25       1.0298    -8.9587     1.6639  C.ar    1  <O>11      -0.0363
  32 H1        2.6802    -6.3513     6.4682  H       1  <O>11       0.0677
  33 H2       -0.4225    -9.5543    -1.1170  H       1  <O>11       0.0377
  34 H3        0.3179   -11.0893    -0.6054  H       1  <O>11       0.0377
  35 H4        4.8629   -10.3890    -0.8393  H       1  <O>11       0.1921
  36 H5        5.9516    -7.5079     4.0538  H       1  <O>11       0.0624
  37 H6        7.9862    -6.1891     3.9533  H       1  <O>11       0.0618
  38 H7        7.8956    -3.7777     4.2555  H       1  <O>11       0.0618
  39 H8        5.7586    -2.6940     4.6544  H       1  <O>11       0.0618
  40 H9        3.7176    -3.9966     4.7502  H       1  <O>11       0.0624
  41 H10      -0.6358    -8.7854     4.5788  H       1  <O>11       0.0636
  42 H11      -2.2803   -10.0136     3.2811  H       1  <O>11       0.0618
  43 H12      -1.8332   -10.5743     0.9583  H       1  <O>11       0.0620
  44 H13       4.1532    -5.9970    -2.3802  H       1  <O>11       0.0625
  45 H14       2.1996    -4.6289    -2.7944  H       1  <O>11       0.0618
  46 H15      -0.0124    -5.5024    -2.3237  H       1  <O>11       0.0618
  47 H16      -0.2683    -7.7439    -1.4473  H       1  <O>11       0.0624
  48 H17       1.9170    -8.6720     1.2215  H       1  <O>11       0.0639
@<TRIPOS>BOND
     1     1     2    2
     2     2     3    1
     3     3     4    2
     4     4     5    1
     5     5     6   ar
     6     6     7   ar
     7     7     8   ar
     8     8     9   ar
     9     9    10   ar
    10     5    10   ar
    11     4    11    1
    12    11    12    2
    13    11    13   am
    14     2    13   am
    15    13    14    1
    16    14    15   ar
    17    15    16   ar
    18    16    17   ar
    19    17    18   ar
    20    18    19    1
    21    19    20    1
    22    20    21   ar
    23    21    22   ar
    24    22    23   ar
    25    23    24    2
    26    23    25   ar
    27    25    26   ar
    28    26    27   ar
    29    27    28   ar
    30    28    29   ar
    31    29    30   ar
    32    20    30   ar
    33    25    30   ar
    34    18    31   ar
    35    14    31   ar
    36     3    32    1
    37    19    33    1
    38    19    34    1
    39    22    35    1
    40     6    36    1
    41     7    37    1
    42     8    38    1
    43     9    39    1
    44    10    40    1
    45    15    41    1
    46    16    42    1
    47    17    43    1
    48    26    44    1
    49    27    45    1
    50    28    46    1
    51    29    47    1
    52    31    48    1
@<TRIPOS>MOLECULE
mol90_1_26
 48 52 0 0 0
SMALL
USER_CHARGES
****
VDW energy = -135.40
@<TRIPOS>ATOM
   1 O1        0.5046    -8.0405     5.6567  O.2     1  <O>11      -0.2698
   2 C1        1.4738    -7.6504     5.0424  C.2     1  <O>11       0.2511
   3 C2        2.5809    -6.7963     5.4892  C.2     1  <O>11       0.0138
   4 C3        3.4652    -6.6433     4.4974  C.2     1  <O>11       0.0497
   5 C4        4.6700    -5.8610     4.4230  C.ar    1  <O>11      -0.0127
   6 C5        5.0830    -5.0870     5.5230  C.ar    1  <O>11      -0.0539
   7 C6        6.2480    -4.3170     5.4450  C.ar    1  <O>11      -0.0612
   8 C7        7.0130    -4.3140     4.2750  C.ar    1  <O>11      -0.0617
   9 C8        6.6060    -5.0890     3.1840  C.ar    1  <O>11      -0.0612
  10 C9        5.4460    -5.8630     3.2520  C.ar    1  <O>11      -0.0539
  11 C10       2.9431    -7.4968     3.3849  C.2     1  <O>11       0.2582
  12 O2        3.4781    -7.7605     2.3298  O.2     1  <O>11      -0.2692
  13 N1        1.7239    -7.9522     3.7523  N.am    1  <O>11      -0.2028
  14 C11       0.7790    -8.6400     3.0090  C.ar    1  <O>11       0.0448
  15 C12      -0.4400    -9.0240     3.5940  C.ar    1  <O>11      -0.0398
  16 C13      -1.3890    -9.7300     2.8450  C.ar    1  <O>11      -0.0597
  17 C14      -1.1340   -10.0530     1.5100  C.ar    1  <O>11      -0.0581
  18 C15       0.0770    -9.6640     0.9270  C.ar    1  <O>11      -0.0397
  19 C16       0.3410   -10.0070    -0.4840  C.3     1  <O>11       0.0172
  20 C17       1.0118   -11.3309    -0.5553  C.ar    1  <O>11       0.0736
  21 N2        1.2913   -12.0353     0.6210  N.ar    1  <O>11      -0.1750
  22 N3        1.9937   -13.1920     0.5798  N.ar    1  <O>11      -0.2425
  23 C18       2.4142   -13.6641    -0.6170  C.ar    1  <O>11       0.2725
  24 O3        3.2216   -14.8166    -0.5815  O.2     1  <O>11      -0.2658
  25 C19       2.0888   -13.0748    -1.8476  C.ar    1  <O>11       0.0496
  26 C20       2.4784   -13.5985    -3.1016  C.ar    1  <O>11      -0.0487
  27 C21       2.1475   -12.9435    -4.2885  C.ar    1  <O>11      -0.0610
  28 C22       1.4321   -11.7521    -4.2448  C.ar    1  <O>11      -0.0611
  29 C23       1.0459   -11.2167    -3.0150  C.ar    1  <O>11      -0.0521
  30 C24       1.3646   -11.8705    -1.8029  C.ar    1  <O>11       0.0106
  31 C25       1.0300    -8.9590     1.6640  C.ar    1  <O>11      -0.0363
  32 H1        2.6802    -6.3513     6.4682  H       1  <O>11       0.0677
  33 H2        0.9850    -9.2487    -0.9282  H       1  <O>11       0.0377
  34 H3       -0.6013   -10.0481    -1.0303  H       1  <O>11       0.0377
  35 H4        2.2016   -13.6942     1.4305  H       1  <O>11       0.1921
  36 H5        4.5242    -5.0874     6.3906  H       1  <O>11       0.0624
  37 H6        6.5439    -3.7490     6.2542  H       1  <O>11       0.0618
  38 H7        7.8715    -3.7443     4.2166  H       1  <O>11       0.0618
  39 H8        7.1693    -5.0887     2.3193  H       1  <O>11       0.0618
  40 H9        5.1590    -6.4359     2.4430  H       1  <O>11       0.0624
  41 H10      -0.6361    -8.7848     4.5786  H       1  <O>11       0.0636
  42 H11      -2.2806   -10.0130     3.2809  H       1  <O>11       0.0618
  43 H12      -1.8332   -10.5743     0.9583  H       1  <O>11       0.0620
  44 H13       3.0158   -14.4787    -3.1399  H       1  <O>11       0.0625
  45 H14       2.4330   -13.3425    -5.1964  H       1  <O>11       0.0618
  46 H15       1.1870   -11.2642    -5.1205  H       1  <O>11       0.0618
  47 H16       0.5192   -10.3295    -2.9902  H       1  <O>11       0.0624
  48 H17       1.9173    -8.6726     1.2217  H       1  <O>11       0.0639
@<TRIPOS>BOND
     1     1     2    2
     2     2     3    1
     3     3     4    2
     4     4     5    1
     5     5     6   ar
     6     6     7   ar
     7     7     8   ar
     8     8     9   ar
     9     9    10   ar
    10     5    10   ar
    11     4    11    1
    12    11    12    2
    13    11    13   am
    14     2    13   am
    15    13    14    1
    16    14    15   ar
    17    15    16   ar
    18    16    17   ar
    19    17    18   ar
    20    18    19    1
    21    19    20    1
    22    20    21   ar
    23    21    22   ar
    24    22    23   ar
    25    23    24    2
    26    23    25   ar
    27    25    26   ar
    28    26    27   ar
    29    27    28   ar
    30    28    29   ar
    31    29    30   ar
    32    20    30   ar
    33    25    30   ar
    34    18    31   ar
    35    14    31   ar
    36     3    32    1
    37    19    33    1
    38    19    34    1
    39    22    35    1
    40     6    36    1
    41     7    37    1
    42     8    38    1
    43     9    39    1
    44    10    40    1
    45    15    41    1
    46    16    42    1
    47    17    43    1
    48    26    44    1
    49    27    45    1
    50    28    46    1
    51    29    47    1
    52    31    48    1
@<TRIPOS>MOLECULE
mol90_1_27
 48 52 0 0 0
SMALL
USER_CHARGES
****
VDW energy = -135.38
@<TRIPOS>ATOM
   1 O1        0.5046    -8.0405     5.6567  O.2     1  <O>11      -0.2698
   2 C1        1.4738    -7.6504     5.0424  C.2     1  <O>11       0.2511
   3 C2        2.5809    -6.7963     5.4892  C.2     1  <O>11       0.0138
   4 C3        3.4652    -6.6433     4.4974  C.2     1  <O>11       0.0497
   5 C4        4.6700    -5.8610     4.4230  C.ar    1  <O>11      -0.0127
   6 C5        5.0830    -5.0870     5.5230  C.ar    1  <O>11      -0.0539
   7 C6        6.2480    -4.3170     5.4450  C.ar    1  <O>11      -0.0612
   8 C7        7.0130    -4.3140     4.2750  C.ar    1  <O>11      -0.0617
   9 C8        6.6060    -5.0890     3.1840  C.ar    1  <O>11      -0.0612
  10 C9        5.4460    -5.8630     3.2520  C.ar    1  <O>11      -0.0539
  11 C10       2.9431    -7.4968     3.3849  C.2     1  <O>11       0.2582
  12 O2        3.4781    -7.7605     2.3298  O.2     1  <O>11      -0.2692
  13 N1        1.7239    -7.9522     3.7523  N.am    1  <O>11      -0.2028
  14 C11       0.7790    -8.6400     3.0090  C.ar    1  <O>11       0.0448
  15 C12      -0.4400    -9.0240     3.5940  C.ar    1  <O>11      -0.0398
  16 C13      -1.3890    -9.7300     2.8450  C.ar    1  <O>11      -0.0597
  17 C14      -1.1340   -10.0530     1.5100  C.ar    1  <O>11      -0.0581
  18 C15       0.0770    -9.6640     0.9270  C.ar    1  <O>11      -0.0397
  19 C16       0.3410   -10.0070    -0.4840  C.3     1  <O>11       0.0172
  20 C17      -0.1525    -8.9135    -1.3608  C.ar    1  <O>11       0.0736
  21 N2       -0.7578    -7.7858    -0.7954  N.ar    1  <O>11      -0.1750
  22 N3       -1.3050    -6.8308    -1.5837  N.ar    1  <O>11      -0.2425
  23 C18      -1.2500    -6.9765    -2.9283  C.ar    1  <O>11       0.2725
  24 O3       -1.9220    -5.9998    -3.6872  O.2     1  <O>11      -0.2658
  25 C19      -0.5735    -8.0219    -3.5740  C.ar    1  <O>11       0.0496
  26 C20      -0.4658    -8.1443    -4.9783  C.ar    1  <O>11      -0.0487
  27 C21       0.1955    -9.2284    -5.5568  C.ar    1  <O>11      -0.0610
  28 C22       0.7511   -10.2123    -4.7465  C.ar    1  <O>11      -0.0611
  29 C23       0.6475   -10.1113    -3.3582  C.ar    1  <O>11      -0.0521
  30 C24      -0.0111    -9.0160    -2.7542  C.ar    1  <O>11       0.0106
  31 C25       1.0300    -8.9590     1.6640  C.ar    1  <O>11      -0.0363
  32 H1        2.6802    -6.3513     6.4682  H       1  <O>11       0.0677
  33 H2       -0.1729   -10.9343    -0.7351  H       1  <O>11       0.0377
  34 H3        1.4133   -10.1348    -0.6323  H       1  <O>11       0.0377
  35 H4       -1.7488    -6.0220    -1.1736  H       1  <O>11       0.1921
  36 H5        4.5242    -5.0874     6.3906  H       1  <O>11       0.0624
  37 H6        6.5439    -3.7490     6.2542  H       1  <O>11       0.0618
  38 H7        7.8715    -3.7443     4.2166  H       1  <O>11       0.0618
  39 H8        7.1693    -5.0887     2.3193  H       1  <O>11       0.0618
  40 H9        5.1590    -6.4359     2.4430  H       1  <O>11       0.0624
  41 H10      -0.6361    -8.7848     4.5786  H       1  <O>11       0.0636
  42 H11      -2.2806   -10.0130     3.2809  H       1  <O>11       0.0618
  43 H12      -1.8332   -10.5743     0.9583  H       1  <O>11       0.0620
  44 H13      -0.8825    -7.4209    -5.5849  H       1  <O>11       0.0625
  45 H14       0.2719    -9.2998    -6.5835  H       1  <O>11       0.0618
  46 H15       1.2394   -11.0163    -5.1710  H       1  <O>11       0.0618
  47 H16       1.0582   -10.8478    -2.7634  H       1  <O>11       0.0624
  48 H17       1.9173    -8.6726     1.2217  H       1  <O>11       0.0639
@<TRIPOS>BOND
     1     1     2    2
     2     2     3    1
     3     3     4    2
     4     4     5    1
     5     5     6   ar
     6     6     7   ar
     7     7     8   ar
     8     8     9   ar
     9     9    10   ar
    10     5    10   ar
    11     4    11    1
    12    11    12    2
    13    11    13   am
    14     2    13   am
    15    13    14    1
    16    14    15   ar
    17    15    16   ar
    18    16    17   ar
    19    17    18   ar
    20    18    19    1
    21    19    20    1
    22    20    21   ar
    23    21    22   ar
    24    22    23   ar
    25    23    24    2
    26    23    25   ar
    27    25    26   ar
    28    26    27   ar
    29    27    28   ar
    30    28    29   ar
    31    29    30   ar
    32    20    30   ar
    33    25    30   ar
    34    18    31   ar
    35    14    31   ar
    36     3    32    1
    37    19    33    1
    38    19    34    1
    39    22    35    1
    40     6    36    1
    41     7    37    1
    42     8    38    1
    43     9    39    1
    44    10    40    1
    45    15    41    1
    46    16    42    1
    47    17    43    1
    48    26    44    1
    49    27    45    1
    50    28    46    1
    51    29    47    1
    52    31    48    1
@<TRIPOS>MOLECULE
mol90_1_28
 48 52 0 0 0
SMALL
USER_CHARGES
****
VDW energy = -131.64
@<TRIPOS>ATOM
   1 O1        0.5046    -8.0405     5.6567  O.2     1  <O>11      -0.2698
   2 C1        1.4738    -7.6504     5.0424  C.2     1  <O>11       0.2511
   3 C2        2.5809    -6.7963     5.4892  C.2     1  <O>11       0.0138
   4 C3        3.4652    -6.6433     4.4974  C.2     1  <O>11       0.0497
   5 C4        4.6700    -5.8610     4.4230  C.ar    1  <O>11      -0.0127
   6 C5        5.0830    -5.0870     5.5230  C.ar    1  <O>11      -0.0539
   7 C6        6.2480    -4.3170     5.4450  C.ar    1  <O>11      -0.0612
   8 C7        7.0130    -4.3140     4.2750  C.ar    1  <O>11      -0.0617
   9 C8        6.6060    -5.0890     3.1840  C.ar    1  <O>11      -0.0612
  10 C9        5.4460    -5.8630     3.2520  C.ar    1  <O>11      -0.0539
  11 C10       2.9431    -7.4968     3.3849  C.2     1  <O>11       0.2582
  12 O2        3.4781    -7.7605     2.3298  O.2     1  <O>11      -0.2692
  13 N1        1.7239    -7.9522     3.7523  N.am    1  <O>11      -0.2028
  14 C11       0.7790    -8.6400     3.0090  C.ar    1  <O>11       0.0448
  15 C12      -0.4400    -9.0240     3.5940  C.ar    1  <O>11      -0.0398
  16 C13      -1.3890    -9.7300     2.8450  C.ar    1  <O>11      -0.0597
  17 C14      -1.1340   -10.0530     1.5100  C.ar    1  <O>11      -0.0581
  18 C15       0.0770    -9.6640     0.9270  C.ar    1  <O>11      -0.0397
  19 C16       0.3410   -10.0070    -0.4840  C.3     1  <O>11       0.0172
  20 C17       0.3093   -11.4833    -0.6497  C.ar    1  <O>11       0.0736
  21 N2        0.0560   -12.3037     0.4552  N.ar    1  <O>11      -0.1750
  22 N3        0.1266   -13.6510     0.3421  N.ar    1  <O>11      -0.2425
  23 C18       0.4361   -14.1952    -0.8580  C.ar    1  <O>11       0.2725
  24 O3        0.5893   -15.5942    -0.8850  O.2     1  <O>11      -0.2658
  25 C19       0.6025   -13.4498    -2.0345  C.ar    1  <O>11       0.0496
  26 C20       0.8686   -14.0207    -3.3002  C.ar    1  <O>11      -0.0487
  27 C21       1.0551   -13.2179    -4.4261  C.ar    1  <O>11      -0.0610
  28 C22       0.9893   -11.8341    -4.3077  C.ar    1  <O>11      -0.0611
  29 C23       0.7350   -11.2532    -3.0643  C.ar    1  <O>11      -0.0521
  30 C24       0.5349   -12.0506    -1.9144  C.ar    1  <O>11       0.0106
  31 C25       1.0300    -8.9590     1.6640  C.ar    1  <O>11      -0.0363
  32 H1        2.6802    -6.3513     6.4682  H       1  <O>11       0.0677
  33 H2        1.3216    -9.6297    -0.7726  H       1  <O>11       0.0377
  34 H3       -0.4225    -9.5546    -1.1168  H       1  <O>11       0.0377
  35 H4       -0.0480   -14.2409     1.1425  H       1  <O>11       0.1921
  36 H5        4.5242    -5.0874     6.3906  H       1  <O>11       0.0624
  37 H6        6.5439    -3.7490     6.2542  H       1  <O>11       0.0618
  38 H7        7.8715    -3.7443     4.2166  H       1  <O>11       0.0618
  39 H8        7.1693    -5.0887     2.3193  H       1  <O>11       0.0618
  40 H9        5.1590    -6.4359     2.4430  H       1  <O>11       0.0624
  41 H10      -0.6361    -8.7848     4.5786  H       1  <O>11       0.0636
  42 H11      -2.2806   -10.0130     3.2809  H       1  <O>11       0.0618
  43 H12      -1.8332   -10.5743     0.9583  H       1  <O>11       0.0620
  44 H13       0.9257   -15.0470    -3.3928  H       1  <O>11       0.0625
  45 H14       1.2415   -13.6502    -5.3445  H       1  <O>11       0.0618
  46 H15       1.1283   -11.2373    -5.1380  H       1  <O>11       0.0618
  47 H16       0.6924   -10.2253    -2.9832  H       1  <O>11       0.0624
  48 H17       1.9173    -8.6726     1.2217  H       1  <O>11       0.0639
@<TRIPOS>BOND
     1     1     2    2
     2     2     3    1
     3     3     4    2
     4     4     5    1
     5     5     6   ar
     6     6     7   ar
     7     7     8   ar
     8     8     9   ar
     9     9    10   ar
    10     5    10   ar
    11     4    11    1
    12    11    12    2
    13    11    13   am
    14     2    13   am
    15    13    14    1
    16    14    15   ar
    17    15    16   ar
    18    16    17   ar
    19    17    18   ar
    20    18    19    1
    21    19    20    1
    22    20    21   ar
    23    21    22   ar
    24    22    23   ar
    25    23    24    2
    26    23    25   ar
    27    25    26   ar
    28    26    27   ar
    29    27    28   ar
    30    28    29   ar
    31    29    30   ar
    32    20    30   ar
    33    25    30   ar
    34    18    31   ar
    35    14    31   ar
    36     3    32    1
    37    19    33    1
    38    19    34    1
    39    22    35    1
    40     6    36    1
    41     7    37    1
    42     8    38    1
    43     9    39    1
    44    10    40    1
    45    15    41    1
    46    16    42    1
    47    17    43    1
    48    26    44    1
    49    27    45    1
    50    28    46    1
    51    29    47    1
    52    31    48    1
@<TRIPOS>MOLECULE
mol90_1_29
 48 52 0 0 0
SMALL
USER_CHARGES
****
VDW energy = -131.54
@<TRIPOS>ATOM
   1 O1        0.5046    -8.0405     5.6567  O.2     1  <O>11      -0.2698
   2 C1        1.4738    -7.6504     5.0424  C.2     1  <O>11       0.2511
   3 C2        2.5809    -6.7963     5.4892  C.2     1  <O>11       0.0138
   4 C3        3.4652    -6.6433     4.4974  C.2     1  <O>11       0.0497
   5 C4        4.6700    -5.8610     4.4230  C.ar    1  <O>11      -0.0127
   6 C5        5.0830    -5.0870     5.5230  C.ar    1  <O>11      -0.0539
   7 C6        6.2480    -4.3170     5.4450  C.ar    1  <O>11      -0.0612
   8 C7        7.0130    -4.3140     4.2750  C.ar    1  <O>11      -0.0617
   9 C8        6.6060    -5.0890     3.1840  C.ar    1  <O>11      -0.0612
  10 C9        5.4460    -5.8630     3.2520  C.ar    1  <O>11      -0.0539
  11 C10       2.9431    -7.4968     3.3849  C.2     1  <O>11       0.2582
  12 O2        3.4781    -7.7605     2.3298  O.2     1  <O>11      -0.2692
  13 N1        1.7239    -7.9522     3.7523  N.am    1  <O>11      -0.2028
  14 C11       0.7790    -8.6400     3.0090  C.ar    1  <O>11       0.0448
  15 C12      -0.4400    -9.0240     3.5940  C.ar    1  <O>11      -0.0398
  16 C13      -1.3890    -9.7300     2.8450  C.ar    1  <O>11      -0.0597
  17 C14      -1.1340   -10.0530     1.5100  C.ar    1  <O>11      -0.0581
  18 C15       0.0770    -9.6640     0.9270  C.ar    1  <O>11      -0.0397
  19 C16       0.3410   -10.0070    -0.4840  C.3     1  <O>11       0.0172
  20 C17      -0.6990    -9.3898    -1.3473  C.ar    1  <O>11       0.0736
  21 N2       -1.7185    -8.6235    -0.7715  N.ar    1  <O>11      -0.1750
  22 N3       -2.7301    -8.1420    -1.5316  N.ar    1  <O>11      -0.2425
  23 C18      -2.7372    -8.4036    -2.8597  C.ar    1  <O>11       0.2725
  24 O3       -3.8652    -7.9586    -3.5745  O.2     1  <O>11      -0.2658
  25 C19      -1.7032    -9.0739    -3.5296  C.ar    1  <O>11       0.0496
  26 C20      -1.6812    -9.2973    -4.9254  C.ar    1  <O>11      -0.0487
  27 C21      -0.6354   -10.0006    -5.5245  C.ar    1  <O>11      -0.0610
  28 C22       0.3995   -10.5007    -4.7422  C.ar    1  <O>11      -0.0611
  29 C23       0.3900   -10.2959    -3.3615  C.ar    1  <O>11      -0.0521
  30 C24      -0.6564    -9.5785    -2.7382  C.ar    1  <O>11       0.0106
  31 C25       1.0300    -8.9590     1.6640  C.ar    1  <O>11      -0.0363
  32 H1        2.6802    -6.3513     6.4682  H       1  <O>11       0.0677
  33 H2        0.3187   -11.0896    -0.6054  H       1  <O>11       0.0377
  34 H3        1.3222    -9.6297    -0.7721  H       1  <O>11       0.0377
  35 H4       -3.4692    -7.5966    -1.1127  H       1  <O>11       0.1921
  36 H5        4.5242    -5.0874     6.3906  H       1  <O>11       0.0624
  37 H6        6.5439    -3.7490     6.2542  H       1  <O>11       0.0618
  38 H7        7.8715    -3.7443     4.2166  H       1  <O>11       0.0618
  39 H8        7.1693    -5.0887     2.3193  H       1  <O>11       0.0618
  40 H9        5.1590    -6.4359     2.4430  H       1  <O>11       0.0624
  41 H10      -0.6361    -8.7848     4.5786  H       1  <O>11       0.0636
  42 H11      -2.2806   -10.0130     3.2809  H       1  <O>11       0.0618
  43 H12      -1.8332   -10.5743     0.9583  H       1  <O>11       0.0620
  44 H13      -2.4503    -8.9347    -5.5103  H       1  <O>11       0.0625
  45 H14      -0.6302   -10.1492    -6.5458  H       1  <O>11       0.0618
  46 H15       1.1737   -11.0226    -5.1818  H       1  <O>11       0.0618
  47 H16       1.1591   -10.6742    -2.7867  H       1  <O>11       0.0624
  48 H17       1.9173    -8.6726     1.2217  H       1  <O>11       0.0639
@<TRIPOS>BOND
     1     1     2    2
     2     2     3    1
     3     3     4    2
     4     4     5    1
     5     5     6   ar
     6     6     7   ar
     7     7     8   ar
     8     8     9   ar
     9     9    10   ar
    10     5    10   ar
    11     4    11    1
    12    11    12    2
    13    11    13   am
    14     2    13   am
    15    13    14    1
    16    14    15   ar
    17    15    16   ar
    18    16    17   ar
    19    17    18   ar
    20    18    19    1
    21    19    20    1
    22    20    21   ar
    23    21    22   ar
    24    22    23   ar
    25    23    24    2
    26    23    25   ar
    27    25    26   ar
    28    26    27   ar
    29    27    28   ar
    30    28    29   ar
    31    29    30   ar
    32    20    30   ar
    33    25    30   ar
    34    18    31   ar
    35    14    31   ar
    36     3    32    1
    37    19    33    1
    38    19    34    1
    39    22    35    1
    40     6    36    1
    41     7    37    1
    42     8    38    1
    43     9    39    1
    44    10    40    1
    45    15    41    1
    46    16    42    1
    47    17    43    1
    48    26    44    1
    49    27    45    1
    50    28    46    1
    51    29    47    1
    52    31    48    1
@<TRIPOS>MOLECULE
mol90_1_30
 48 52 0 0 0
SMALL
USER_CHARGES
****
VDW energy = -130.51
@<TRIPOS>ATOM
   1 O1        0.5046    -8.0405     5.6567  O.2     1  <O>11      -0.2698
   2 C1        1.4738    -7.6504     5.0424  C.2     1  <O>11       0.2511
   3 C2        2.5809    -6.7963     5.4892  C.2     1  <O>11       0.0138
   4 C3        3.4652    -6.6433     4.4974  C.2     1  <O>11       0.0497
   5 C4        4.6700    -5.8610     4.4230  C.ar    1  <O>11      -0.0127
   6 C5        5.0830    -5.0870     5.5230  C.ar    1  <O>11      -0.0539
   7 C6        6.2480    -4.3170     5.4450  C.ar    1  <O>11      -0.0612
   8 C7        7.0130    -4.3140     4.2750  C.ar    1  <O>11      -0.0617
   9 C8        6.6060    -5.0890     3.1840  C.ar    1  <O>11      -0.0612
  10 C9        5.4460    -5.8630     3.2520  C.ar    1  <O>11      -0.0539
  11 C10       2.9431    -7.4968     3.3849  C.2     1  <O>11       0.2582
  12 O2        3.4781    -7.7605     2.3298  O.2     1  <O>11      -0.2692
  13 N1        1.7239    -7.9522     3.7523  N.am    1  <O>11      -0.2028
  14 C11       0.7790    -8.6400     3.0090  C.ar    1  <O>11       0.0448
  15 C12      -0.4400    -9.0240     3.5940  C.ar    1  <O>11      -0.0398
  16 C13      -1.3890    -9.7300     2.8450  C.ar    1  <O>11      -0.0597
  17 C14      -1.1340   -10.0530     1.5100  C.ar    1  <O>11      -0.0581
  18 C15       0.0770    -9.6640     0.9270  C.ar    1  <O>11      -0.0397
  19 C16       0.3410   -10.0070    -0.4840  C.3     1  <O>11       0.0172
  20 C17       1.0118   -11.3309    -0.5553  C.ar    1  <O>11       0.0736
  21 N2        2.4086   -11.4077    -0.5201  N.ar    1  <O>11      -0.1750
  22 N3        3.0366   -12.5952    -0.6885  N.ar    1  <O>11      -0.2425
  23 C18       2.2944   -13.7105    -0.8817  C.ar    1  <O>11       0.2725
  24 O3        3.0087   -14.8940    -1.1475  O.2     1  <O>11      -0.2658
  25 C19       0.8930   -13.7356    -0.8281  C.ar    1  <O>11       0.0496
  26 C20       0.1181   -14.9092    -0.9721  C.ar    1  <O>11      -0.0487
  27 C21      -1.2761   -14.8586    -0.9401  C.ar    1  <O>11      -0.0610
  28 C22      -1.9203   -13.6376    -0.7741  C.ar    1  <O>11      -0.0611
  29 C23      -1.1710   -12.4680    -0.6379  C.ar    1  <O>11      -0.0521
  30 C24       0.2420   -12.5009    -0.6592  C.ar    1  <O>11       0.0106
  31 C25       1.0300    -8.9590     1.6640  C.ar    1  <O>11      -0.0363
  32 H1        2.6802    -6.3513     6.4682  H       1  <O>11       0.0677
  33 H2        0.9850    -9.2487    -0.9282  H       1  <O>11       0.0377
  34 H3       -0.6013   -10.0481    -1.0303  H       1  <O>11       0.0377
  35 H4        4.0447   -12.6471    -0.6713  H       1  <O>11       0.1921
  36 H5        4.5242    -5.0874     6.3906  H       1  <O>11       0.0624
  37 H6        6.5439    -3.7490     6.2542  H       1  <O>11       0.0618
  38 H7        7.8715    -3.7443     4.2166  H       1  <O>11       0.0618
  39 H8        7.1693    -5.0887     2.3193  H       1  <O>11       0.0618
  40 H9        5.1590    -6.4359     2.4430  H       1  <O>11       0.0624
  41 H10      -0.6361    -8.7848     4.5786  H       1  <O>11       0.0636
  42 H11      -2.2806   -10.0130     3.2809  H       1  <O>11       0.0618
  43 H12      -1.8332   -10.5743     0.9583  H       1  <O>11       0.0620
  44 H13       0.5906   -15.8173    -1.1029  H       1  <O>11       0.0625
  45 H14      -1.8276   -15.7252    -1.0395  H       1  <O>11       0.0618
  46 H15      -2.9512   -13.5963    -0.7515  H       1  <O>11       0.0618
  47 H16      -1.6562   -11.5649    -0.5199  H       1  <O>11       0.0624
  48 H17       1.9173    -8.6726     1.2217  H       1  <O>11       0.0639
@<TRIPOS>BOND
     1     1     2    2
     2     2     3    1
     3     3     4    2
     4     4     5    1
     5     5     6   ar
     6     6     7   ar
     7     7     8   ar
     8     8     9   ar
     9     9    10   ar
    10     5    10   ar
    11     4    11    1
    12    11    12    2
    13    11    13   am
    14     2    13   am
    15    13    14    1
    16    14    15   ar
    17    15    16   ar
    18    16    17   ar
    19    17    18   ar
    20    18    19    1
    21    19    20    1
    22    20    21   ar
    23    21    22   ar
    24    22    23   ar
    25    23    24    2
    26    23    25   ar
    27    25    26   ar
    28    26    27   ar
    29    27    28   ar
    30    28    29   ar
    31    29    30   ar
    32    20    30   ar
    33    25    30   ar
    34    18    31   ar
    35    14    31   ar
    36     3    32    1
    37    19    33    1
    38    19    34    1
    39    22    35    1
    40     6    36    1
    41     7    37    1
    42     8    38    1
    43     9    39    1
    44    10    40    1
    45    15    41    1
    46    16    42    1
    47    17    43    1
    48    26    44    1
    49    27    45    1
    50    28    46    1
    51    29    47    1
    52    31    48    1
