@<TRIPOS>MOLECULE
mol91_1_1
 34 35 0 0 0
SMALL
USER_CHARGES
****
VDW energy = -431.38
@<TRIPOS>ATOM
   1 N1        2.6068    -8.6548    -6.8531  N.3     1  <O>11      -0.1906
   2 S1        3.6427    -8.9662    -5.6045  S.O2    1  <O>11       0.1067
   3 O1        4.9274    -9.8601    -6.1608  O.2     1  <O>11      -0.1383
   4 O2        4.1969    -7.5329    -4.9742  O.2     1  <O>11      -0.1383
   5 N2        2.8490    -9.8140    -4.4290  N.pl3   1  <O>11      -0.2067
   6 C1        2.2740   -11.1000    -4.7330  C.ar    1  <O>11       0.0508
   7 C2        3.1160   -12.1653    -5.0608  C.ar    1  <O>11      -0.0392
   8 C3        2.5641   -13.4137    -5.3680  C.ar    1  <O>11      -0.0582
   9 C4        1.1795   -13.5960    -5.3432  C.ar    1  <O>11      -0.0392
  10 C5        0.3494   -12.5213    -5.0063  C.ar    1  <O>11       0.0498
  11 N3       -1.0787   -12.7148    -4.9825  N.pl3   1  <O>11      -0.2160
  12 S2       -1.9706   -12.4504    -6.3476  S.O2    1  <O>11       0.0780
  13 O3       -1.4505   -13.4651    -7.5552  O.2     1  <O>11      -0.1498
  14 O4       -1.7865   -10.8721    -6.8323  O.2     1  <O>11      -0.1498
  15 C6       -3.6792   -12.7671    -6.0065  C.ar    1  <O>11       0.1843
  16 C7       -4.5307   -13.2283    -7.0230  C.ar    1  <O>11       0.1907
  17 F1       -4.0340   -13.4422    -8.2828  F       1  <O>11      -0.2002
  18 C8       -5.8846   -13.4662    -6.7565  C.ar    1  <O>11       0.1983
  19 F2       -6.7076   -13.9134    -7.7561  F       1  <O>11      -0.1993
  20 C9       -6.3955   -13.2508    -5.4740  C.ar    1  <O>11       0.1992
  21 F3       -7.7202   -13.4799    -5.2063  F       1  <O>11      -0.1993
  22 C10      -5.5460   -12.7988    -4.4587  C.ar    1  <O>11       0.1983
  23 F4       -6.0518   -12.5915    -3.2023  F       1  <O>11      -0.1993
  24 C11      -4.1935   -12.5586    -4.7149  C.ar    1  <O>11       0.1907
  25 F5       -3.3587   -12.1222    -3.7189  F       1  <O>11      -0.2002
  26 C12       0.8892   -11.2725    -4.6970  C.ar    1  <O>11      -0.0169
  27 H1        1.8178    -8.1059    -6.5115  H       1  <O>11       0.1456
  28 H2        2.2664    -9.5350    -7.2401  H       1  <O>11       0.1456
  29 H3        2.7670    -9.4280    -3.4890  H       1  <O>11       0.1747
  30 H4       -1.5388   -13.0128    -4.1223  H       1  <O>11       0.1737
  31 H5        4.1393   -12.0322    -5.0763  H       1  <O>11       0.0636
  32 H6        3.1823   -14.2027    -5.6137  H       1  <O>11       0.0619
  33 H7        0.7720   -14.5162    -5.5716  H       1  <O>11       0.0636
  34 H8        0.2717   -10.4852    -4.4443  H       1  <O>11       0.0655
@<TRIPOS>BOND
     1     1     2    1
     2     2     3    2
     3     2     4    2
     4     2     5    1
     5     5     6    1
     6     6     7   ar
     7     7     8   ar
     8     8     9   ar
     9     9    10   ar
    10    10    11    1
    11    11    12    1
    12    12    13    2
    13    12    14    2
    14    12    15    1
    15    15    16   ar
    16    16    17    1
    17    16    18   ar
    18    18    19    1
    19    18    20   ar
    20    20    21    1
    21    20    22   ar
    22    22    23    1
    23    22    24   ar
    24    15    24   ar
    25    24    25    1
    26    10    26   ar
    27     6    26   ar
    28     1    27    1
    29     1    28    1
    30     5    29    1
    31    11    30    1
    32     7    31    1
    33     8    32    1
    34     9    33    1
    35    26    34    1
@<TRIPOS>MOLECULE
mol91_1_2
 34 35 0 0 0
SMALL
USER_CHARGES
****
VDW energy = -430.83
@<TRIPOS>ATOM
   1 N1        2.6068    -8.6548    -6.8531  N.3     1  <O>11      -0.1906
   2 S1        3.6427    -8.9662    -5.6045  S.O2    1  <O>11       0.1067
   3 O1        4.9274    -9.8601    -6.1608  O.2     1  <O>11      -0.1383
   4 O2        4.1969    -7.5329    -4.9742  O.2     1  <O>11      -0.1383
   5 N2        2.8490    -9.8140    -4.4290  N.pl3   1  <O>11      -0.2067
   6 C1        3.5455   -10.2063    -3.2299  C.ar    1  <O>11       0.0508
   7 C2        3.9928    -9.2217    -2.3457  C.ar    1  <O>11      -0.0392
   8 C3        4.6795    -9.5946    -1.1853  C.ar    1  <O>11      -0.0582
   9 C4        4.9133   -10.9438    -0.9093  C.ar    1  <O>11      -0.0392
  10 C5        4.4532   -11.9189    -1.8009  C.ar    1  <O>11       0.0498
  11 N3        4.6974   -13.3095    -1.5115  N.pl3   1  <O>11      -0.2160
  12 S2        3.5994   -14.1751    -0.6317  S.O2    1  <O>11       0.0780
  13 O3        2.1380   -14.1822    -1.4210  O.2     1  <O>11      -0.1498
  14 O4        3.4171   -13.4786     0.8655  O.2     1  <O>11      -0.1498
  15 C6        4.1752   -15.8389    -0.4420  C.ar    1  <O>11       0.1843
  16 C7        3.2593   -16.8962    -0.3234  C.ar    1  <O>11       0.1907
  17 F1        1.9132   -16.6390    -0.3636  F       1  <O>11      -0.2002
  18 C8        3.7145   -18.2102    -0.1603  C.ar    1  <O>11       0.1983
  19 F2        2.8124   -19.2344    -0.0428  F       1  <O>11      -0.1993
  20 C9        5.0853   -18.4777    -0.1199  C.ar    1  <O>11       0.1992
  21 F3        5.5382   -19.7614     0.0413  F       1  <O>11      -0.1993
  22 C10       5.9987   -17.4258    -0.2458  C.ar    1  <O>11       0.1983
  23 F4        7.3418   -17.6941    -0.2078  F       1  <O>11      -0.1993
  24 C11       5.5539   -16.1111    -0.4090  C.ar    1  <O>11       0.1907
  25 F5        6.4483   -15.0803    -0.5393  F       1  <O>11      -0.2002
  26 C12       3.7662   -11.5581    -2.9604  C.ar    1  <O>11      -0.0169
  27 H1        1.8178    -8.1059    -6.5115  H       1  <O>11       0.1456
  28 H2        2.2664    -9.5350    -7.2401  H       1  <O>11       0.1456
  29 H3        1.8669   -10.0585    -4.5515  H       1  <O>11       0.1747
  30 H4        5.5491   -13.7587    -1.8480  H       1  <O>11       0.1737
  31 H5        3.8177    -8.2248    -2.5474  H       1  <O>11       0.0636
  32 H6        5.0145    -8.8703    -0.5308  H       1  <O>11       0.0619
  33 H7        5.4215   -11.2192    -0.0544  H       1  <O>11       0.0636
  34 H8        3.4249   -12.2825    -3.6115  H       1  <O>11       0.0655
@<TRIPOS>BOND
     1     1     2    1
     2     2     3    2
     3     2     4    2
     4     2     5    1
     5     5     6    1
     6     6     7   ar
     7     7     8   ar
     8     8     9   ar
     9     9    10   ar
    10    10    11    1
    11    11    12    1
    12    12    13    2
    13    12    14    2
    14    12    15    1
    15    15    16   ar
    16    16    17    1
    17    16    18   ar
    18    18    19    1
    19    18    20   ar
    20    20    21    1
    21    20    22   ar
    22    22    23    1
    23    22    24   ar
    24    15    24   ar
    25    24    25    1
    26    10    26   ar
    27     6    26   ar
    28     1    27    1
    29     1    28    1
    30     5    29    1
    31    11    30    1
    32     7    31    1
    33     8    32    1
    34     9    33    1
    35    26    34    1
@<TRIPOS>MOLECULE
mol91_1_3
 34 35 0 0 0
SMALL
USER_CHARGES
****
VDW energy = -429.74
@<TRIPOS>ATOM
   1 N1        2.6068    -8.6548    -6.8531  N.3     1  <O>11      -0.1906
   2 S1        3.6427    -8.9662    -5.6045  S.O2    1  <O>11       0.1067
   3 O1        4.9274    -9.8601    -6.1608  O.2     1  <O>11      -0.1383
   4 O2        4.1969    -7.5329    -4.9742  O.2     1  <O>11      -0.1383
   5 N2        2.8490    -9.8140    -4.4290  N.pl3   1  <O>11      -0.2067
   6 C1        2.2740   -11.1000    -4.7330  C.ar    1  <O>11       0.0508
   7 C2        3.1160   -12.1653    -5.0608  C.ar    1  <O>11      -0.0392
   8 C3        2.5641   -13.4137    -5.3680  C.ar    1  <O>11      -0.0582
   9 C4        1.1795   -13.5960    -5.3432  C.ar    1  <O>11      -0.0392
  10 C5        0.3494   -12.5213    -5.0063  C.ar    1  <O>11       0.0498
  11 N3       -1.0787   -12.7148    -4.9825  N.pl3   1  <O>11      -0.2160
  12 S2       -1.8230   -13.2007    -3.5902  S.O2    1  <O>11       0.0780
  13 O3       -1.5522   -12.0790    -2.3957  O.2     1  <O>11      -0.1498
  14 O4       -1.2101   -14.6711    -3.1188  O.2     1  <O>11      -0.1498
  15 C6       -3.5645   -13.3513    -3.8738  C.ar    1  <O>11       0.1843
  16 C7       -4.4743   -13.1288    -2.8280  C.ar    1  <O>11       0.1907
  17 F1       -4.0114   -12.7848    -1.5842  F       1  <O>11      -0.2002
  18 C8       -5.8506   -13.2606    -3.0489  C.ar    1  <O>11       0.1983
  19 F2       -6.7298   -13.0439    -2.0209  F       1  <O>11      -0.1993
  20 C9       -6.3275   -13.6098    -4.3150  C.ar    1  <O>11       0.1992
  21 F3       -7.6735   -13.7425    -4.5382  F       1  <O>11      -0.1993
  22 C10      -5.4222   -13.8241    -5.3596  C.ar    1  <O>11       0.1983
  23 F4       -5.8954   -14.1641    -6.5996  F       1  <O>11      -0.1993
  24 C11      -4.0468   -13.6949    -5.1487  C.ar    1  <O>11       0.1907
  25 F5       -3.1591   -13.8979    -6.1735  F       1  <O>11      -0.2002
  26 C12       0.8892   -11.2725    -4.6970  C.ar    1  <O>11      -0.0169
  27 H1        1.8178    -8.1059    -6.5115  H       1  <O>11       0.1456
  28 H2        2.2664    -9.5350    -7.2401  H       1  <O>11       0.1456
  29 H3        2.7670    -9.4280    -3.4890  H       1  <O>11       0.1747
  30 H4       -1.6293   -12.5537    -5.8259  H       1  <O>11       0.1737
  31 H5        4.1393   -12.0322    -5.0763  H       1  <O>11       0.0636
  32 H6        3.1823   -14.2027    -5.6137  H       1  <O>11       0.0619
  33 H7        0.7720   -14.5162    -5.5716  H       1  <O>11       0.0636
  34 H8        0.2717   -10.4852    -4.4443  H       1  <O>11       0.0655
@<TRIPOS>BOND
     1     1     2    1
     2     2     3    2
     3     2     4    2
     4     2     5    1
     5     5     6    1
     6     6     7   ar
     7     7     8   ar
     8     8     9   ar
     9     9    10   ar
    10    10    11    1
    11    11    12    1
    12    12    13    2
    13    12    14    2
    14    12    15    1
    15    15    16   ar
    16    16    17    1
    17    16    18   ar
    18    18    19    1
    19    18    20   ar
    20    20    21    1
    21    20    22   ar
    22    22    23    1
    23    22    24   ar
    24    15    24   ar
    25    24    25    1
    26    10    26   ar
    27     6    26   ar
    28     1    27    1
    29     1    28    1
    30     5    29    1
    31    11    30    1
    32     7    31    1
    33     8    32    1
    34     9    33    1
    35    26    34    1
@<TRIPOS>MOLECULE
mol91_1_4
 34 35 0 0 0
SMALL
USER_CHARGES
****
VDW energy = -429.67
@<TRIPOS>ATOM
   1 N1        2.6068    -8.6548    -6.8531  N.3     1  <O>11      -0.1906
   2 S1        3.6427    -8.9662    -5.6045  S.O2    1  <O>11       0.1067
   3 O1        4.9274    -9.8601    -6.1608  O.2     1  <O>11      -0.1383
   4 O2        4.1969    -7.5329    -4.9742  O.2     1  <O>11      -0.1383
   5 N2        2.8490    -9.8140    -4.4290  N.pl3   1  <O>11      -0.2067
   6 C1        1.6911    -9.2439    -3.7879  C.ar    1  <O>11       0.0508
   7 C2        0.5336    -9.0227    -4.5379  C.ar    1  <O>11      -0.0392
   8 C3       -0.5906    -8.4592    -3.9248  C.ar    1  <O>11      -0.0582
   9 C4       -0.5582    -8.1232    -2.5694  C.ar    1  <O>11      -0.0392
  10 C5        0.6060    -8.3569    -1.8296  C.ar    1  <O>11       0.0498
  11 N3        0.6342    -8.0081    -0.4314  N.pl3   1  <O>11      -0.2160
  12 S2        0.1746    -9.1151     0.7053  S.O2    1  <O>11       0.0780
  13 O3        1.1566   -10.4510     0.6074  O.2     1  <O>11      -0.1498
  14 O4       -1.4016    -9.5649     0.4347  O.2     1  <O>11      -0.1498
  15 C6        0.3145    -8.3975     2.3181  C.ar    1  <O>11       0.1843
  16 C7        0.6025    -9.2048     3.4300  C.ar    1  <O>11       0.1907
  17 F1        0.7848   -10.5534     3.2637  F       1  <O>11      -0.2002
  18 C8        0.7002    -8.6393     4.7072  C.ar    1  <O>11       0.1983
  19 F2        0.9790    -9.4363     5.7859  F       1  <O>11      -0.1993
  20 C9        0.5164    -7.2653     4.8819  C.ar    1  <O>11       0.1992
  21 F3        0.6088    -6.7051     6.1295  F       1  <O>11      -0.1993
  22 C10       0.2371    -6.4590     3.7735  C.ar    1  <O>11       0.1983
  23 F4        0.0601    -5.1119     3.9502  F       1  <O>11      -0.1993
  24 C11       0.1377    -7.0142     2.4950  C.ar    1  <O>11       0.1907
  25 F5       -0.1292    -6.2238     1.4070  F       1  <O>11      -0.2002
  26 C12       1.7324    -8.9197    -2.4307  C.ar    1  <O>11      -0.0169
  27 H1        1.8178    -8.1059    -6.5115  H       1  <O>11       0.1456
  28 H2        2.2664    -9.5350    -7.2401  H       1  <O>11       0.1456
  29 H3        3.1777   -10.7403    -4.1582  H       1  <O>11       0.1747
  30 H4        0.9358    -7.0770    -0.1440  H       1  <O>11       0.1737
  31 H5        0.5079    -9.2736    -5.5387  H       1  <O>11       0.0636
  32 H6       -1.4469    -8.2913    -4.4759  H       1  <O>11       0.0619
  33 H7       -1.3866    -7.7057    -2.1172  H       1  <O>11       0.0636
  34 H8        2.5864    -9.0942    -1.8782  H       1  <O>11       0.0655
@<TRIPOS>BOND
     1     1     2    1
     2     2     3    2
     3     2     4    2
     4     2     5    1
     5     5     6    1
     6     6     7   ar
     7     7     8   ar
     8     8     9   ar
     9     9    10   ar
    10    10    11    1
    11    11    12    1
    12    12    13    2
    13    12    14    2
    14    12    15    1
    15    15    16   ar
    16    16    17    1
    17    16    18   ar
    18    18    19    1
    19    18    20   ar
    20    20    21    1
    21    20    22   ar
    22    22    23    1
    23    22    24   ar
    24    15    24   ar
    25    24    25    1
    26    10    26   ar
    27     6    26   ar
    28     1    27    1
    29     1    28    1
    30     5    29    1
    31    11    30    1
    32     7    31    1
    33     8    32    1
    34     9    33    1
    35    26    34    1
@<TRIPOS>MOLECULE
mol91_1_5
 34 35 0 0 0
SMALL
USER_CHARGES
****
VDW energy = -429.40
@<TRIPOS>ATOM
   1 N1        2.6068    -8.6548    -6.8531  N.3     1  <O>11      -0.1906
   2 S1        3.6427    -8.9662    -5.6045  S.O2    1  <O>11       0.1067
   3 O1        4.9274    -9.8601    -6.1608  O.2     1  <O>11      -0.1383
   4 O2        4.1969    -7.5329    -4.9742  O.2     1  <O>11      -0.1383
   5 N2        2.8490    -9.8140    -4.4290  N.pl3   1  <O>11      -0.2067
   6 C1        2.2733   -11.0996    -4.7332  C.ar    1  <O>11       0.0508
   7 C2        3.1147   -12.1652    -5.0616  C.ar    1  <O>11      -0.0392
   8 C3        2.5622   -13.4133    -5.3690  C.ar    1  <O>11      -0.0582
   9 C4        1.1774   -13.5949    -5.3438  C.ar    1  <O>11      -0.0392
  10 C5        0.3479   -12.5200    -5.0063  C.ar    1  <O>11       0.0498
  11 N3       -1.0802   -12.7128    -4.9821  N.pl3   1  <O>11      -0.2160
  12 S2       -1.8243   -13.1989    -3.5897  S.O2    1  <O>11       0.0780
  13 O3       -1.2133   -14.6696    -3.1184  O.2     1  <O>11      -0.1498
  14 O4       -3.4586   -13.3369    -3.8543  O.2     1  <O>11      -0.1498
  15 C6       -1.5320   -12.0035    -2.3163  C.ar    1  <O>11       0.1843
  16 C7       -1.9588   -10.6761    -2.4794  C.ar    1  <O>11       0.1907
  17 F1       -2.6126   -10.3069    -3.6265  F       1  <O>11      -0.2002
  18 C8       -1.7161    -9.7279    -1.4781  C.ar    1  <O>11       0.1983
  19 F2       -2.1343    -8.4345    -1.6484  F       1  <O>11      -0.1993
  20 C9       -1.0513   -10.0993    -0.3067  C.ar    1  <O>11       0.1992
  21 F3       -0.8086    -9.1760     0.6770  F       1  <O>11      -0.1993
  22 C10      -0.6326   -11.4235    -0.1399  C.ar    1  <O>11       0.1983
  23 F4        0.0169   -11.7828     1.0118  F       1  <O>11      -0.1993
  24 C11      -0.8703   -12.3769    -1.1335  C.ar    1  <O>11       0.1907
  25 F5       -0.4664   -13.6765    -0.9681  F       1  <O>11      -0.2002
  26 C12       0.8884   -11.2715    -4.6968  C.ar    1  <O>11      -0.0169
  27 H1        1.8178    -8.1059    -6.5115  H       1  <O>11       0.1456
  28 H2        2.2664    -9.5350    -7.2401  H       1  <O>11       0.1456
  29 H3        2.7675    -9.4283    -3.4889  H       1  <O>11       0.1747
  30 H4       -1.6310   -12.5512    -5.8253  H       1  <O>11       0.1737
  31 H5        4.1380   -12.0326    -5.0774  H       1  <O>11       0.0636
  32 H6        3.1799   -14.2025    -5.6152  H       1  <O>11       0.0619
  33 H7        0.7694   -14.5149    -5.5723  H       1  <O>11       0.0636
  34 H8        0.2713   -10.4840    -4.4437  H       1  <O>11       0.0655
@<TRIPOS>BOND
     1     1     2    1
     2     2     3    2
     3     2     4    2
     4     2     5    1
     5     5     6    1
     6     6     7   ar
     7     7     8   ar
     8     8     9   ar
     9     9    10   ar
    10    10    11    1
    11    11    12    1
    12    12    13    2
    13    12    14    2
    14    12    15    1
    15    15    16   ar
    16    16    17    1
    17    16    18   ar
    18    18    19    1
    19    18    20   ar
    20    20    21    1
    21    20    22   ar
    22    22    23    1
    23    22    24   ar
    24    15    24   ar
    25    24    25    1
    26    10    26   ar
    27     6    26   ar
    28     1    27    1
    29     1    28    1
    30     5    29    1
    31    11    30    1
    32     7    31    1
    33     8    32    1
    34     9    33    1
    35    26    34    1
@<TRIPOS>MOLECULE
mol91_1_6
 34 35 0 0 0
SMALL
USER_CHARGES
****
VDW energy = -429.14
@<TRIPOS>ATOM
   1 N1        2.6068    -8.6548    -6.8531  N.3     1  <O>11      -0.1906
   2 S1        3.6427    -8.9662    -5.6045  S.O2    1  <O>11       0.1067
   3 O1        4.9274    -9.8601    -6.1608  O.2     1  <O>11      -0.1383
   4 O2        4.1969    -7.5329    -4.9742  O.2     1  <O>11      -0.1383
   5 N2        2.8490    -9.8140    -4.4290  N.pl3   1  <O>11      -0.2067
   6 C1        1.6911    -9.2439    -3.7879  C.ar    1  <O>11       0.0508
   7 C2        0.5336    -9.0227    -4.5379  C.ar    1  <O>11      -0.0392
   8 C3       -0.5906    -8.4592    -3.9248  C.ar    1  <O>11      -0.0582
   9 C4       -0.5582    -8.1232    -2.5694  C.ar    1  <O>11      -0.0392
  10 C5        0.6060    -8.3569    -1.8296  C.ar    1  <O>11       0.0498
  11 N3        0.6342    -8.0081    -0.4314  N.pl3   1  <O>11      -0.2160
  12 S2        0.1746    -9.1151     0.7053  S.O2    1  <O>11       0.0780
  13 O3       -1.4013    -9.5651     0.4361  O.2     1  <O>11      -0.1498
  14 O4        0.3082    -8.4429     2.2186  O.2     1  <O>11      -0.1498
  15 C6        1.2210   -10.5397     0.5983  C.ar    1  <O>11       0.1843
  16 C7        2.6064   -10.4170     0.7899  C.ar    1  <O>11       0.1907
  17 F1        3.1491    -9.1895     1.0697  F       1  <O>11      -0.2002
  18 C8        3.4354   -11.5411     0.6924  C.ar    1  <O>11       0.1983
  19 F2        4.7862   -11.4100     0.8783  F       1  <O>11      -0.1993
  20 C9        2.8870   -12.7946     0.4086  C.ar    1  <O>11       0.1992
  21 F3        3.6926   -13.8991     0.3098  F       1  <O>11      -0.1993
  22 C10       1.5058   -12.9192     0.2253  C.ar    1  <O>11       0.1983
  23 F4        0.9732   -14.1510    -0.0505  F       1  <O>11      -0.1993
  24 C11       0.6704   -11.8030     0.3207  C.ar    1  <O>11       0.1907
  25 F5       -0.6841   -11.9252     0.1480  F       1  <O>11      -0.2002
  26 C12       1.7324    -8.9197    -2.4307  C.ar    1  <O>11      -0.0169
  27 H1        1.8178    -8.1059    -6.5115  H       1  <O>11       0.1456
  28 H2        2.2664    -9.5350    -7.2401  H       1  <O>11       0.1456
  29 H3        3.1777   -10.7403    -4.1582  H       1  <O>11       0.1747
  30 H4        0.9358    -7.0770    -0.1440  H       1  <O>11       0.1737
  31 H5        0.5079    -9.2736    -5.5387  H       1  <O>11       0.0636
  32 H6       -1.4469    -8.2913    -4.4759  H       1  <O>11       0.0619
  33 H7       -1.3866    -7.7057    -2.1172  H       1  <O>11       0.0636
  34 H8        2.5864    -9.0942    -1.8782  H       1  <O>11       0.0655
@<TRIPOS>BOND
     1     1     2    1
     2     2     3    2
     3     2     4    2
     4     2     5    1
     5     5     6    1
     6     6     7   ar
     7     7     8   ar
     8     8     9   ar
     9     9    10   ar
    10    10    11    1
    11    11    12    1
    12    12    13    2
    13    12    14    2
    14    12    15    1
    15    15    16   ar
    16    16    17    1
    17    16    18   ar
    18    18    19    1
    19    18    20   ar
    20    20    21    1
    21    20    22   ar
    22    22    23    1
    23    22    24   ar
    24    15    24   ar
    25    24    25    1
    26    10    26   ar
    27     6    26   ar
    28     1    27    1
    29     1    28    1
    30     5    29    1
    31    11    30    1
    32     7    31    1
    33     8    32    1
    34     9    33    1
    35    26    34    1
@<TRIPOS>MOLECULE
mol91_1_7
 34 35 0 0 0
SMALL
USER_CHARGES
****
VDW energy = -428.94
@<TRIPOS>ATOM
   1 N1        2.6068    -8.6548    -6.8531  N.3     1  <O>11      -0.1906
   2 S1        3.6427    -8.9662    -5.6045  S.O2    1  <O>11       0.1067
   3 O1        4.9274    -9.8601    -6.1608  O.2     1  <O>11      -0.1383
   4 O2        4.1969    -7.5329    -4.9742  O.2     1  <O>11      -0.1383
   5 N2        2.8490    -9.8140    -4.4290  N.pl3   1  <O>11      -0.2067
   6 C1        1.6911    -9.2439    -3.7879  C.ar    1  <O>11       0.0508
   7 C2        0.5336    -9.0227    -4.5379  C.ar    1  <O>11      -0.0392
   8 C3       -0.5906    -8.4592    -3.9248  C.ar    1  <O>11      -0.0582
   9 C4       -0.5582    -8.1232    -2.5694  C.ar    1  <O>11      -0.0392
  10 C5        0.6060    -8.3569    -1.8296  C.ar    1  <O>11       0.0498
  11 N3        0.6342    -8.0081    -0.4314  N.pl3   1  <O>11      -0.2160
  12 S2        0.1746    -9.1151     0.7053  S.O2    1  <O>11       0.0780
  13 O3        1.1566   -10.4510     0.6074  O.2     1  <O>11      -0.1498
  14 O4       -1.4016    -9.5649     0.4347  O.2     1  <O>11      -0.1498
  15 C6        0.3145    -8.3975     2.3181  C.ar    1  <O>11       0.1843
  16 C7       -0.4236    -7.2501     2.6492  C.ar    1  <O>11       0.1907
  17 F1       -1.2626    -6.6887     1.7216  F       1  <O>11      -0.2002
  18 C8       -0.3030    -6.6750     3.9202  C.ar    1  <O>11       0.1983
  19 F2       -1.0256    -5.5538     4.2322  F       1  <O>11      -0.1993
  20 C9        0.5498    -7.2440     4.8695  C.ar    1  <O>11       0.1992
  21 F3        0.6742    -6.6854     6.1151  F       1  <O>11      -0.1993
  22 C10       1.2796    -8.3918     4.5431  C.ar    1  <O>11       0.1983
  23 F4        2.1127    -8.9469     5.4786  F       1  <O>11      -0.1993
  24 C11       1.1660    -8.9729     3.2773  C.ar    1  <O>11       0.1907
  25 F5        1.8756   -10.1018     2.9587  F       1  <O>11      -0.2002
  26 C12       1.7324    -8.9197    -2.4307  C.ar    1  <O>11      -0.0169
  27 H1        1.8178    -8.1059    -6.5115  H       1  <O>11       0.1456
  28 H2        2.2664    -9.5350    -7.2401  H       1  <O>11       0.1456
  29 H3        3.1777   -10.7403    -4.1582  H       1  <O>11       0.1747
  30 H4        0.9358    -7.0770    -0.1440  H       1  <O>11       0.1737
  31 H5        0.5079    -9.2736    -5.5387  H       1  <O>11       0.0636
  32 H6       -1.4469    -8.2913    -4.4759  H       1  <O>11       0.0619
  33 H7       -1.3866    -7.7057    -2.1172  H       1  <O>11       0.0636
  34 H8        2.5864    -9.0942    -1.8782  H       1  <O>11       0.0655
@<TRIPOS>BOND
     1     1     2    1
     2     2     3    2
     3     2     4    2
     4     2     5    1
     5     5     6    1
     6     6     7   ar
     7     7     8   ar
     8     8     9   ar
     9     9    10   ar
    10    10    11    1
    11    11    12    1
    12    12    13    2
    13    12    14    2
    14    12    15    1
    15    15    16   ar
    16    16    17    1
    17    16    18   ar
    18    18    19    1
    19    18    20   ar
    20    20    21    1
    21    20    22   ar
    22    22    23    1
    23    22    24   ar
    24    15    24   ar
    25    24    25    1
    26    10    26   ar
    27     6    26   ar
    28     1    27    1
    29     1    28    1
    30     5    29    1
    31    11    30    1
    32     7    31    1
    33     8    32    1
    34     9    33    1
    35    26    34    1
@<TRIPOS>MOLECULE
mol91_1_8
 34 35 0 0 0
SMALL
USER_CHARGES
****
VDW energy = -428.16
@<TRIPOS>ATOM
   1 N1        2.6068    -8.6548    -6.8531  N.3     1  <O>11      -0.1906
   2 S1        3.6427    -8.9662    -5.6045  S.O2    1  <O>11       0.1067
   3 O1        4.9274    -9.8601    -6.1608  O.2     1  <O>11      -0.1383
   4 O2        4.1969    -7.5329    -4.9742  O.2     1  <O>11      -0.1383
   5 N2        2.8490    -9.8140    -4.4290  N.pl3   1  <O>11      -0.2067
   6 C1        2.2740   -11.1000    -4.7330  C.ar    1  <O>11       0.0508
   7 C2        3.1160   -12.1653    -5.0608  C.ar    1  <O>11      -0.0392
   8 C3        2.5641   -13.4137    -5.3680  C.ar    1  <O>11      -0.0582
   9 C4        1.1795   -13.5960    -5.3432  C.ar    1  <O>11      -0.0392
  10 C5        0.3494   -12.5213    -5.0063  C.ar    1  <O>11       0.0498
  11 N3       -1.0787   -12.7148    -4.9825  N.pl3   1  <O>11      -0.2160
  12 S2       -1.7562   -13.7282    -3.8678  S.O2    1  <O>11       0.0780
  13 O3       -1.4011   -13.1873    -2.3381  O.2     1  <O>11      -0.1498
  14 O4       -1.1462   -15.2602    -4.0693  O.2     1  <O>11      -0.1498
  15 C6       -3.5129   -13.7591    -4.0893  C.ar    1  <O>11       0.1843
  16 C7       -4.3611   -13.9852    -2.9936  C.ar    1  <O>11       0.1907
  17 F1       -3.8260   -14.1741    -1.7456  F       1  <O>11      -0.2002
  18 C8       -5.7495   -14.0227    -3.1710  C.ar    1  <O>11       0.1983
  19 F2       -6.5681   -14.2468    -2.0958  F       1  <O>11      -0.1993
  20 C9       -6.2998   -13.8296    -4.4407  C.ar    1  <O>11       0.1992
  21 F3       -7.6580   -13.8668    -4.6221  F       1  <O>11      -0.1993
  22 C10      -5.4559   -13.5965    -5.5316  C.ar    1  <O>11       0.1983
  23 F4       -6.0010   -13.4055    -6.7740  F       1  <O>11      -0.1993
  24 C11      -4.0690   -13.5573    -5.3645  C.ar    1  <O>11       0.1907
  25 F5       -3.2414   -13.3221    -6.4318  F       1  <O>11      -0.2002
  26 C12       0.8892   -11.2725    -4.6970  C.ar    1  <O>11      -0.0169
  27 H1        1.8178    -8.1059    -6.5115  H       1  <O>11       0.1456
  28 H2        2.2664    -9.5350    -7.2401  H       1  <O>11       0.1456
  29 H3        2.7670    -9.4280    -3.4890  H       1  <O>11       0.1747
  30 H4       -1.6707   -12.2276    -5.6553  H       1  <O>11       0.1737
  31 H5        4.1393   -12.0322    -5.0763  H       1  <O>11       0.0636
  32 H6        3.1823   -14.2027    -5.6137  H       1  <O>11       0.0619
  33 H7        0.7720   -14.5162    -5.5716  H       1  <O>11       0.0636
  34 H8        0.2717   -10.4852    -4.4443  H       1  <O>11       0.0655
@<TRIPOS>BOND
     1     1     2    1
     2     2     3    2
     3     2     4    2
     4     2     5    1
     5     5     6    1
     6     6     7   ar
     7     7     8   ar
     8     8     9   ar
     9     9    10   ar
    10    10    11    1
    11    11    12    1
    12    12    13    2
    13    12    14    2
    14    12    15    1
    15    15    16   ar
    16    16    17    1
    17    16    18   ar
    18    18    19    1
    19    18    20   ar
    20    20    21    1
    21    20    22   ar
    22    22    23    1
    23    22    24   ar
    24    15    24   ar
    25    24    25    1
    26    10    26   ar
    27     6    26   ar
    28     1    27    1
    29     1    28    1
    30     5    29    1
    31    11    30    1
    32     7    31    1
    33     8    32    1
    34     9    33    1
    35    26    34    1
@<TRIPOS>MOLECULE
mol91_1_9
 34 35 0 0 0
SMALL
USER_CHARGES
****
VDW energy = -427.92
@<TRIPOS>ATOM
   1 N1        2.6068    -8.6548    -6.8531  N.3     1  <O>11      -0.1906
   2 S1        3.6427    -8.9662    -5.6045  S.O2    1  <O>11       0.1067
   3 O1        4.9274    -9.8601    -6.1608  O.2     1  <O>11      -0.1383
   4 O2        4.1969    -7.5329    -4.9742  O.2     1  <O>11      -0.1383
   5 N2        2.8490    -9.8140    -4.4290  N.pl3   1  <O>11      -0.2067
   6 C1        1.6911    -9.2439    -3.7879  C.ar    1  <O>11       0.0508
   7 C2        1.8582    -8.4701    -2.6369  C.ar    1  <O>11      -0.0392
   8 C3        0.7376    -7.9228    -2.0029  C.ar    1  <O>11      -0.0582
   9 C4       -0.5411    -8.1446    -2.5194  C.ar    1  <O>11      -0.0392
  10 C5       -0.6921    -8.9160    -3.6768  C.ar    1  <O>11       0.0498
  11 N3       -2.0137    -9.1421    -4.2054  N.pl3   1  <O>11      -0.2160
  12 S2       -2.6521    -8.0923    -5.3097  S.O2    1  <O>11       0.0780
  13 O3       -1.6844    -8.0502    -6.6589  O.2     1  <O>11      -0.1498
  14 O4       -2.7399    -6.5732    -4.6431  O.2     1  <O>11      -0.1498
  15 C6       -4.2762    -8.6311    -5.7655  C.ar    1  <O>11       0.1843
  16 C7       -5.0300    -7.8991    -6.6967  C.ar    1  <O>11       0.1907
  17 F1       -4.5016    -6.7671    -7.2614  F       1  <O>11      -0.2002
  18 C8       -6.3192    -8.3179    -7.0473  C.ar    1  <O>11       0.1983
  19 F2       -7.0474    -7.5949    -7.9548  F       1  <O>11      -0.1993
  20 C9       -6.8618    -9.4716    -6.4754  C.ar    1  <O>11       0.1992
  21 F3       -8.1240    -9.8865    -6.8126  F       1  <O>11      -0.1993
  22 C10      -6.1085   -10.2058    -5.5535  C.ar    1  <O>11       0.1983
  23 F4       -6.6445   -11.3376    -4.9976  F       1  <O>11      -0.1993
  24 C11      -4.8209    -9.7958    -5.1974  C.ar    1  <O>11       0.1907
  25 F5       -4.0792   -10.5186    -4.2990  F       1  <O>11      -0.2002
  26 C12       0.4188    -9.4655    -4.3179  C.ar    1  <O>11      -0.0169
  27 H1        1.8178    -8.1059    -6.5115  H       1  <O>11       0.1456
  28 H2        2.2664    -9.5350    -7.2401  H       1  <O>11       0.1456
  29 H3        3.1777   -10.7403    -4.1582  H       1  <O>11       0.1747
  30 H4       -2.5556    -9.9489    -3.8960  H       1  <O>11       0.1737
  31 H5        2.8029    -8.3032    -2.2565  H       1  <O>11       0.0636
  32 H6        0.8562    -7.3531    -1.1506  H       1  <O>11       0.0619
  33 H7       -1.3681    -7.7426    -2.0510  H       1  <O>11       0.0636
  34 H8        0.3011   -10.0293    -5.1742  H       1  <O>11       0.0655
@<TRIPOS>BOND
     1     1     2    1
     2     2     3    2
     3     2     4    2
     4     2     5    1
     5     5     6    1
     6     6     7   ar
     7     7     8   ar
     8     8     9   ar
     9     9    10   ar
    10    10    11    1
    11    11    12    1
    12    12    13    2
    13    12    14    2
    14    12    15    1
    15    15    16   ar
    16    16    17    1
    17    16    18   ar
    18    18    19    1
    19    18    20   ar
    20    20    21    1
    21    20    22   ar
    22    22    23    1
    23    22    24   ar
    24    15    24   ar
    25    24    25    1
    26    10    26   ar
    27     6    26   ar
    28     1    27    1
    29     1    28    1
    30     5    29    1
    31    11    30    1
    32     7    31    1
    33     8    32    1
    34     9    33    1
    35    26    34    1
@<TRIPOS>MOLECULE
mol91_1_10
 34 35 0 0 0
SMALL
USER_CHARGES
****
VDW energy = -426.86
@<TRIPOS>ATOM
   1 N1        2.6068    -8.6548    -6.8531  N.3     1  <O>11      -0.1906
   2 S1        3.6427    -8.9662    -5.6045  S.O2    1  <O>11       0.1067
   3 O1        4.9274    -9.8601    -6.1608  O.2     1  <O>11      -0.1383
   4 O2        4.1969    -7.5329    -4.9742  O.2     1  <O>11      -0.1383
   5 N2        2.8490    -9.8140    -4.4290  N.pl3   1  <O>11      -0.2067
   6 C1        2.2740   -11.1000    -4.7330  C.ar    1  <O>11       0.0508
   7 C2        1.2103   -11.1775    -5.6351  C.ar    1  <O>11      -0.0392
   8 C3        0.6398   -12.4213    -5.9265  C.ar    1  <O>11      -0.0582
   9 C4        1.1332   -13.5802    -5.3225  C.ar    1  <O>11      -0.0392
  10 C5        2.2035   -13.4875    -4.4263  C.ar    1  <O>11       0.0498
  11 N3        2.7085   -14.6863    -3.8057  N.pl3   1  <O>11      -0.2160
  12 S2        3.9184   -15.5453    -4.5317  S.O2    1  <O>11       0.0780
  13 O3        5.2623   -14.5828    -4.6930  O.2     1  <O>11      -0.1498
  14 O4        3.4152   -16.0505    -6.0322  O.2     1  <O>11      -0.1498
  15 C6        4.3189   -16.9554    -3.5383  C.ar    1  <O>11       0.1843
  16 C7        5.6230   -17.4753    -3.5394  C.ar    1  <O>11       0.1907
  17 F1        6.5920   -16.8822    -4.3068  F       1  <O>11      -0.2002
  18 C8        5.9365   -18.5982    -2.7640  C.ar    1  <O>11       0.1983
  19 F2        7.2114   -19.0993    -2.7744  F       1  <O>11      -0.1993
  20 C9        4.9528   -19.2056    -1.9793  C.ar    1  <O>11       0.1992
  21 F3        5.2520   -20.3063    -1.2191  F       1  <O>11      -0.1993
  22 C10       3.6551   -18.6836    -1.9715  C.ar    1  <O>11       0.1983
  23 F4        2.6949   -19.2818    -1.1985  F       1  <O>11      -0.1993
  24 C11       3.3326   -17.5633    -2.7420  C.ar    1  <O>11       0.1907
  25 F5        2.0628   -17.0468    -2.7298  F       1  <O>11      -0.2002
  26 C12       2.7807   -12.2524    -4.1296  C.ar    1  <O>11      -0.0169
  27 H1        1.8178    -8.1059    -6.5115  H       1  <O>11       0.1456
  28 H2        2.2664    -9.5350    -7.2401  H       1  <O>11       0.1456
  29 H3        2.7670    -9.4280    -3.4890  H       1  <O>11       0.1747
  30 H4        2.3173   -15.0054    -2.9193  H       1  <O>11       0.1737
  31 H5        0.8473   -10.3221    -6.0841  H       1  <O>11       0.0636
  32 H6       -0.1482   -12.4828    -6.5900  H       1  <O>11       0.0619
  33 H7        0.7114   -14.4976    -5.5357  H       1  <O>11       0.0636
  34 H8        3.5733   -12.1914    -3.4715  H       1  <O>11       0.0655
@<TRIPOS>BOND
     1     1     2    1
     2     2     3    2
     3     2     4    2
     4     2     5    1
     5     5     6    1
     6     6     7   ar
     7     7     8   ar
     8     8     9   ar
     9     9    10   ar
    10    10    11    1
    11    11    12    1
    12    12    13    2
    13    12    14    2
    14    12    15    1
    15    15    16   ar
    16    16    17    1
    17    16    18   ar
    18    18    19    1
    19    18    20   ar
    20    20    21    1
    21    20    22   ar
    22    22    23    1
    23    22    24   ar
    24    15    24   ar
    25    24    25    1
    26    10    26   ar
    27     6    26   ar
    28     1    27    1
    29     1    28    1
    30     5    29    1
    31    11    30    1
    32     7    31    1
    33     8    32    1
    34     9    33    1
    35    26    34    1
@<TRIPOS>MOLECULE
mol91_1_11
 34 35 0 0 0
SMALL
USER_CHARGES
****
VDW energy = -426.64
@<TRIPOS>ATOM
   1 N1        2.6068    -8.6548    -6.8531  N.3     1  <O>11      -0.1906
   2 S1        3.6427    -8.9662    -5.6045  S.O2    1  <O>11       0.1067
   3 O1        4.9274    -9.8601    -6.1608  O.2     1  <O>11      -0.1383
   4 O2        4.1969    -7.5329    -4.9742  O.2     1  <O>11      -0.1383
   5 N2        2.8490    -9.8140    -4.4290  N.pl3   1  <O>11      -0.2067
   6 C1        2.2740   -11.1000    -4.7330  C.ar    1  <O>11       0.0508
   7 C2        3.1160   -12.1653    -5.0608  C.ar    1  <O>11      -0.0392
   8 C3        2.5641   -13.4137    -5.3680  C.ar    1  <O>11      -0.0582
   9 C4        1.1795   -13.5960    -5.3432  C.ar    1  <O>11      -0.0392
  10 C5        0.3494   -12.5213    -5.0063  C.ar    1  <O>11       0.0498
  11 N3       -1.0787   -12.7148    -4.9825  N.pl3   1  <O>11      -0.2160
  12 S2       -1.9706   -12.4504    -6.3476  S.O2    1  <O>11       0.0780
  13 O3       -1.4505   -13.4651    -7.5552  O.2     1  <O>11      -0.1498
  14 O4       -1.7865   -10.8721    -6.8323  O.2     1  <O>11      -0.1498
  15 C6       -3.6792   -12.7671    -6.0065  C.ar    1  <O>11       0.1843
  16 C7       -4.6435   -12.6111    -7.0148  C.ar    1  <O>11       0.1907
  17 F1       -4.2583   -12.2201    -8.2711  F       1  <O>11      -0.2002
  18 C8       -5.9961   -12.8488    -6.7416  C.ar    1  <O>11       0.1983
  19 F2       -6.9294   -12.6910    -7.7319  F       1  <O>11      -0.1993
  20 C9       -6.3937   -13.2486    -5.4632  C.ar    1  <O>11       0.1992
  21 F3       -7.7162   -13.4814    -5.1881  F       1  <O>11      -0.1993
  22 C10      -5.4327   -13.4119    -4.4600  C.ar    1  <O>11       0.1983
  23 F4       -5.8279   -13.8064    -3.2088  F       1  <O>11      -0.1993
  24 C11      -4.0805   -13.1770    -4.7231  C.ar    1  <O>11       0.1907
  25 F5       -3.1370   -13.3435    -3.7425  F       1  <O>11      -0.2002
  26 C12       0.8892   -11.2725    -4.6970  C.ar    1  <O>11      -0.0169
  27 H1        1.8178    -8.1059    -6.5115  H       1  <O>11       0.1456
  28 H2        2.2664    -9.5350    -7.2401  H       1  <O>11       0.1456
  29 H3        2.7670    -9.4280    -3.4890  H       1  <O>11       0.1747
  30 H4       -1.5388   -13.0128    -4.1223  H       1  <O>11       0.1737
  31 H5        4.1393   -12.0322    -5.0763  H       1  <O>11       0.0636
  32 H6        3.1823   -14.2027    -5.6137  H       1  <O>11       0.0619
  33 H7        0.7720   -14.5162    -5.5716  H       1  <O>11       0.0636
  34 H8        0.2717   -10.4852    -4.4443  H       1  <O>11       0.0655
@<TRIPOS>BOND
     1     1     2    1
     2     2     3    2
     3     2     4    2
     4     2     5    1
     5     5     6    1
     6     6     7   ar
     7     7     8   ar
     8     8     9   ar
     9     9    10   ar
    10    10    11    1
    11    11    12    1
    12    12    13    2
    13    12    14    2
    14    12    15    1
    15    15    16   ar
    16    16    17    1
    17    16    18   ar
    18    18    19    1
    19    18    20   ar
    20    20    21    1
    21    20    22   ar
    22    22    23    1
    23    22    24   ar
    24    15    24   ar
    25    24    25    1
    26    10    26   ar
    27     6    26   ar
    28     1    27    1
    29     1    28    1
    30     5    29    1
    31    11    30    1
    32     7    31    1
    33     8    32    1
    34     9    33    1
    35    26    34    1
@<TRIPOS>MOLECULE
mol91_1_12
 34 35 0 0 0
SMALL
USER_CHARGES
****
VDW energy = -425.02
@<TRIPOS>ATOM
   1 N1        2.6068    -8.6548    -6.8531  N.3     1  <O>11      -0.1906
   2 S1        3.6427    -8.9662    -5.6045  S.O2    1  <O>11       0.1067
   3 O1        4.9274    -9.8601    -6.1608  O.2     1  <O>11      -0.1383
   4 O2        4.1969    -7.5329    -4.9742  O.2     1  <O>11      -0.1383
   5 N2        2.8490    -9.8140    -4.4290  N.pl3   1  <O>11      -0.2067
   6 C1        2.2733   -11.0996    -4.7332  C.ar    1  <O>11       0.0508
   7 C2        3.1147   -12.1652    -5.0616  C.ar    1  <O>11      -0.0392
   8 C3        2.5622   -13.4133    -5.3690  C.ar    1  <O>11      -0.0582
   9 C4        1.1774   -13.5949    -5.3438  C.ar    1  <O>11      -0.0392
  10 C5        0.3479   -12.5200    -5.0063  C.ar    1  <O>11       0.0498
  11 N3       -1.0802   -12.7128    -4.9821  N.pl3   1  <O>11      -0.2160
  12 S2       -2.0764   -11.4562    -4.5855  S.O2    1  <O>11       0.0780
  13 O3       -1.8596   -10.2139    -5.6663  O.2     1  <O>11      -0.1498
  14 O4       -1.7161   -10.9264    -3.0527  O.2     1  <O>11      -0.1498
  15 C6       -3.7612   -11.9987    -4.6410  C.ar    1  <O>11       0.1843
  16 C7       -4.3062   -12.4957    -5.8356  C.ar    1  <O>11       0.1907
  17 F1       -3.5270   -12.5689    -6.9612  F       1  <O>11      -0.2002
  18 C8       -5.6421   -12.9125    -5.8829  C.ar    1  <O>11       0.1983
  19 F2       -6.1650   -13.3932    -7.0542  F       1  <O>11      -0.1993
  20 C9       -6.4401   -12.8410    -4.7381  C.ar    1  <O>11       0.1992
  21 F3       -7.7492   -13.2455    -4.7775  F       1  <O>11      -0.1993
  22 C10      -5.8957   -12.3533    -3.5455  C.ar    1  <O>11       0.1983
  23 F4       -6.6821   -12.2876    -2.4254  F       1  <O>11      -0.1993
  24 C11      -4.5636   -11.9351    -3.4885  C.ar    1  <O>11       0.1907
  25 F5       -4.0270   -11.4634    -2.3184  F       1  <O>11      -0.2002
  26 C12       0.8884   -11.2715    -4.6968  C.ar    1  <O>11      -0.0169
  27 H1        1.8178    -8.1059    -6.5115  H       1  <O>11       0.1456
  28 H2        2.2664    -9.5350    -7.2401  H       1  <O>11       0.1456
  29 H3        2.7675    -9.4283    -3.4889  H       1  <O>11       0.1747
  30 H4       -1.4755   -13.6256    -5.2078  H       1  <O>11       0.1737
  31 H5        4.1380   -12.0326    -5.0774  H       1  <O>11       0.0636
  32 H6        3.1799   -14.2025    -5.6152  H       1  <O>11       0.0619
  33 H7        0.7694   -14.5149    -5.5723  H       1  <O>11       0.0636
  34 H8        0.2713   -10.4840    -4.4437  H       1  <O>11       0.0655
@<TRIPOS>BOND
     1     1     2    1
     2     2     3    2
     3     2     4    2
     4     2     5    1
     5     5     6    1
     6     6     7   ar
     7     7     8   ar
     8     8     9   ar
     9     9    10   ar
    10    10    11    1
    11    11    12    1
    12    12    13    2
    13    12    14    2
    14    12    15    1
    15    15    16   ar
    16    16    17    1
    17    16    18   ar
    18    18    19    1
    19    18    20   ar
    20    20    21    1
    21    20    22   ar
    22    22    23    1
    23    22    24   ar
    24    15    24   ar
    25    24    25    1
    26    10    26   ar
    27     6    26   ar
    28     1    27    1
    29     1    28    1
    30     5    29    1
    31    11    30    1
    32     7    31    1
    33     8    32    1
    34     9    33    1
    35    26    34    1
@<TRIPOS>MOLECULE
mol91_1_13
 34 35 0 0 0
SMALL
USER_CHARGES
****
VDW energy = -424.83
@<TRIPOS>ATOM
   1 N1        2.6068    -8.6548    -6.8531  N.3     1  <O>11      -0.1906
   2 S1        3.6427    -8.9662    -5.6045  S.O2    1  <O>11       0.1067
   3 O1        4.9274    -9.8601    -6.1608  O.2     1  <O>11      -0.1383
   4 O2        4.1969    -7.5329    -4.9742  O.2     1  <O>11      -0.1383
   5 N2        2.8490    -9.8140    -4.4290  N.pl3   1  <O>11      -0.2067
   6 C1        1.6911    -9.2439    -3.7879  C.ar    1  <O>11       0.0508
   7 C2        0.5336    -9.0227    -4.5379  C.ar    1  <O>11      -0.0392
   8 C3       -0.5906    -8.4592    -3.9248  C.ar    1  <O>11      -0.0582
   9 C4       -0.5582    -8.1232    -2.5694  C.ar    1  <O>11      -0.0392
  10 C5        0.6060    -8.3569    -1.8296  C.ar    1  <O>11       0.0498
  11 N3        0.6342    -8.0081    -0.4314  N.pl3   1  <O>11      -0.2160
  12 S2        0.1746    -9.1151     0.7053  S.O2    1  <O>11       0.0780
  13 O3        1.1566   -10.4510     0.6074  O.2     1  <O>11      -0.1498
  14 O4       -1.4016    -9.5649     0.4347  O.2     1  <O>11      -0.1498
  15 C6        0.3145    -8.3975     2.3181  C.ar    1  <O>11       0.1843
  16 C7       -0.0215    -9.1455     3.4577  C.ar    1  <O>11       0.1907
  17 F1       -0.4513   -10.4400     3.3204  F       1  <O>11      -0.2002
  18 C8        0.0766    -8.5738     4.7321  C.ar    1  <O>11       0.1983
  19 F2       -0.2563    -9.3113     5.8375  F       1  <O>11      -0.1993
  20 C9        0.5152    -7.2551     4.8775  C.ar    1  <O>11       0.1992
  21 F3        0.6120    -6.6883     6.1218  F       1  <O>11      -0.1993
  22 C10       0.8576    -6.5117     3.7432  C.ar    1  <O>11       0.1983
  23 F4        1.2893    -5.2199     3.8917  F       1  <O>11      -0.1993
  24 C11       0.7630    -7.0736     2.4672  C.ar    1  <O>11       0.1907
  25 F5        1.1049    -6.3481     1.3553  F       1  <O>11      -0.2002
  26 C12       1.7324    -8.9197    -2.4307  C.ar    1  <O>11      -0.0169
  27 H1        1.8178    -8.1059    -6.5115  H       1  <O>11       0.1456
  28 H2        2.2664    -9.5350    -7.2401  H       1  <O>11       0.1456
  29 H3        3.1777   -10.7403    -4.1582  H       1  <O>11       0.1747
  30 H4        0.9358    -7.0770    -0.1440  H       1  <O>11       0.1737
  31 H5        0.5079    -9.2736    -5.5387  H       1  <O>11       0.0636
  32 H6       -1.4469    -8.2913    -4.4759  H       1  <O>11       0.0619
  33 H7       -1.3866    -7.7057    -2.1172  H       1  <O>11       0.0636
  34 H8        2.5864    -9.0942    -1.8782  H       1  <O>11       0.0655
@<TRIPOS>BOND
     1     1     2    1
     2     2     3    2
     3     2     4    2
     4     2     5    1
     5     5     6    1
     6     6     7   ar
     7     7     8   ar
     8     8     9   ar
     9     9    10   ar
    10    10    11    1
    11    11    12    1
    12    12    13    2
    13    12    14    2
    14    12    15    1
    15    15    16   ar
    16    16    17    1
    17    16    18   ar
    18    18    19    1
    19    18    20   ar
    20    20    21    1
    21    20    22   ar
    22    22    23    1
    23    22    24   ar
    24    15    24   ar
    25    24    25    1
    26    10    26   ar
    27     6    26   ar
    28     1    27    1
    29     1    28    1
    30     5    29    1
    31    11    30    1
    32     7    31    1
    33     8    32    1
    34     9    33    1
    35    26    34    1
@<TRIPOS>MOLECULE
mol91_1_14
 34 35 0 0 0
SMALL
USER_CHARGES
****
VDW energy = -424.35
@<TRIPOS>ATOM
   1 N1        2.6068    -8.6548    -6.8531  N.3     1  <O>11      -0.1906
   2 S1        3.6427    -8.9662    -5.6045  S.O2    1  <O>11       0.1067
   3 O1        4.9274    -9.8601    -6.1608  O.2     1  <O>11      -0.1383
   4 O2        4.1969    -7.5329    -4.9742  O.2     1  <O>11      -0.1383
   5 N2        2.8490    -9.8140    -4.4290  N.pl3   1  <O>11      -0.2067
   6 C1        2.2740   -11.1000    -4.7330  C.ar    1  <O>11       0.0508
   7 C2        1.6060   -11.8050    -3.7290  C.ar    1  <O>11      -0.0392
   8 C3        1.0550   -13.0590    -4.0140  C.ar    1  <O>11      -0.0582
   9 C4        1.1680   -13.6020    -5.2960  C.ar    1  <O>11      -0.0392
  10 C5        1.8340   -12.8810    -6.2930  C.ar    1  <O>11       0.0498
  11 N3        1.9480   -13.4460    -7.6140  N.pl3   1  <O>11      -0.2160
  12 S2        0.7805   -13.1466    -8.7437  S.O2    1  <O>11       0.0780
  13 O3        0.6788   -11.5114    -9.0164  O.2     1  <O>11      -0.1498
  14 O4       -0.6819   -13.7082    -8.1909  O.2     1  <O>11      -0.1498
  15 C6        1.1961   -13.9715   -10.2545  C.ar    1  <O>11       0.1843
  16 C7        0.7923   -13.4364   -11.4880  C.ar    1  <O>11       0.1907
  17 F1        0.0805   -12.2652   -11.5221  F       1  <O>11      -0.2002
  18 C8        1.1096   -14.0955   -12.6819  C.ar    1  <O>11       0.1983
  19 F2        0.7084   -13.5663   -13.8801  F       1  <O>11      -0.1993
  20 C9        1.8359   -15.2889   -12.6527  C.ar    1  <O>11       0.1992
  21 F3        2.1486   -15.9406   -13.8174  F       1  <O>11      -0.1993
  22 C10       2.2454   -15.8187   -11.4246  C.ar    1  <O>11       0.1983
  23 F4        2.9593   -16.9880   -11.4019  F       1  <O>11      -0.1993
  24 C11       1.9335   -15.1681   -10.2278  C.ar    1  <O>11       0.1907
  25 F5        2.3403   -15.6830    -9.0241  F       1  <O>11      -0.2002
  26 C12       2.3860   -11.6290    -6.0200  C.ar    1  <O>11      -0.0169
  27 H1        1.8178    -8.1059    -6.5115  H       1  <O>11       0.1456
  28 H2        2.2664    -9.5350    -7.2401  H       1  <O>11       0.1456
  29 H3        2.7670    -9.4280    -3.4890  H       1  <O>11       0.1747
  30 H4        2.7484   -14.0324    -7.8506  H       1  <O>11       0.1737
  31 H5        1.5194   -11.4031    -2.7824  H       1  <O>11       0.0636
  32 H6        0.5633   -13.5847    -3.2744  H       1  <O>11       0.0619
  33 H7        0.7634   -14.5278    -5.5061  H       1  <O>11       0.0636
  34 H8        2.8716   -11.1000    -6.7612  H       1  <O>11       0.0655
@<TRIPOS>BOND
     1     1     2    1
     2     2     3    2
     3     2     4    2
     4     2     5    1
     5     5     6    1
     6     6     7   ar
     7     7     8   ar
     8     8     9   ar
     9     9    10   ar
    10    10    11    1
    11    11    12    1
    12    12    13    2
    13    12    14    2
    14    12    15    1
    15    15    16   ar
    16    16    17    1
    17    16    18   ar
    18    18    19    1
    19    18    20   ar
    20    20    21    1
    21    20    22   ar
    22    22    23    1
    23    22    24   ar
    24    15    24   ar
    25    24    25    1
    26    10    26   ar
    27     6    26   ar
    28     1    27    1
    29     1    28    1
    30     5    29    1
    31    11    30    1
    32     7    31    1
    33     8    32    1
    34     9    33    1
    35    26    34    1
@<TRIPOS>MOLECULE
mol91_1_15
 34 35 0 0 0
SMALL
USER_CHARGES
****
VDW energy = -423.90
@<TRIPOS>ATOM
   1 N1        2.6068    -8.6548    -6.8531  N.3     1  <O>11      -0.1906
   2 S1        3.6427    -8.9662    -5.6045  S.O2    1  <O>11       0.1067
   3 O1        4.9274    -9.8601    -6.1608  O.2     1  <O>11      -0.1383
   4 O2        4.1969    -7.5329    -4.9742  O.2     1  <O>11      -0.1383
   5 N2        2.8490    -9.8140    -4.4290  N.pl3   1  <O>11      -0.2067
   6 C1        1.6911    -9.2439    -3.7879  C.ar    1  <O>11       0.0508
   7 C2        1.0305    -9.9724    -2.7959  C.ar    1  <O>11      -0.0392
   8 C3       -0.1009    -9.4299    -2.1771  C.ar    1  <O>11      -0.0582
   9 C4       -0.5656    -8.1652    -2.5454  C.ar    1  <O>11      -0.0392
  10 C5        0.1106    -7.4446    -3.5358  C.ar    1  <O>11       0.0498
  11 N3       -0.3734    -6.1402    -3.9122  N.pl3   1  <O>11      -0.2160
  12 S2       -1.4806    -5.9897    -5.1289  S.O2    1  <O>11       0.0780
  13 O3       -2.8587    -6.8273    -4.7315  O.2     1  <O>11      -0.1498
  14 O4       -0.8448    -6.6042    -6.5353  O.2     1  <O>11      -0.1498
  15 C6       -1.8760    -4.2789    -5.3585  C.ar    1  <O>11       0.1843
  16 C7       -2.4294    -3.5325    -4.3061  C.ar    1  <O>11       0.1907
  17 F1       -2.6561    -4.1297    -3.0931  F       1  <O>11      -0.2002
  18 C8       -2.7543    -2.1832    -4.4916  C.ar    1  <O>11       0.1983
  19 F2       -3.2964    -1.4644    -3.4591  F       1  <O>11      -0.1993
  20 C9       -2.5241    -1.5695    -5.7257  C.ar    1  <O>11       0.1992
  21 F3       -2.8413    -0.2495    -5.9151  F       1  <O>11      -0.1993
  22 C10      -1.9655    -2.3105    -6.7724  C.ar    1  <O>11       0.1983
  23 F4       -1.7398    -1.7031    -7.9797  F       1  <O>11      -0.1993
  24 C11      -1.6380    -3.6576    -6.5968  C.ar    1  <O>11       0.1907
  25 F5       -1.0841    -4.3828    -7.6199  F       1  <O>11      -0.2002
  26 C12       1.2406    -7.9756    -4.1584  C.ar    1  <O>11      -0.0169
  27 H1        1.8178    -8.1059    -6.5115  H       1  <O>11       0.1456
  28 H2        2.2664    -9.5350    -7.2401  H       1  <O>11       0.1456
  29 H3        3.1777   -10.7403    -4.1582  H       1  <O>11       0.1747
  30 H4       -0.0305    -5.3099    -3.4289  H       1  <O>11       0.1737
  31 H5        1.3751   -10.9056    -2.5210  H       1  <O>11       0.0636
  32 H6       -0.5939    -9.9660    -1.4458  H       1  <O>11       0.0619
  33 H7       -1.4013    -7.7655    -2.0905  H       1  <O>11       0.0636
  34 H8        1.7379    -7.4368    -4.8847  H       1  <O>11       0.0655
@<TRIPOS>BOND
     1     1     2    1
     2     2     3    2
     3     2     4    2
     4     2     5    1
     5     5     6    1
     6     6     7   ar
     7     7     8   ar
     8     8     9   ar
     9     9    10   ar
    10    10    11    1
    11    11    12    1
    12    12    13    2
    13    12    14    2
    14    12    15    1
    15    15    16   ar
    16    16    17    1
    17    16    18   ar
    18    18    19    1
    19    18    20   ar
    20    20    21    1
    21    20    22   ar
    22    22    23    1
    23    22    24   ar
    24    15    24   ar
    25    24    25    1
    26    10    26   ar
    27     6    26   ar
    28     1    27    1
    29     1    28    1
    30     5    29    1
    31    11    30    1
    32     7    31    1
    33     8    32    1
    34     9    33    1
    35    26    34    1
@<TRIPOS>MOLECULE
mol91_1_16
 34 35 0 0 0
SMALL
USER_CHARGES
****
VDW energy = -423.27
@<TRIPOS>ATOM
   1 N1        2.6068    -8.6548    -6.8531  N.3     1  <O>11      -0.1906
   2 S1        3.6427    -8.9662    -5.6045  S.O2    1  <O>11       0.1067
   3 O1        4.9274    -9.8601    -6.1608  O.2     1  <O>11      -0.1383
   4 O2        4.1969    -7.5329    -4.9742  O.2     1  <O>11      -0.1383
   5 N2        2.8490    -9.8140    -4.4290  N.pl3   1  <O>11      -0.2067
   6 C1        2.2740   -11.1000    -4.7330  C.ar    1  <O>11       0.0508
   7 C2        1.6060   -11.8050    -3.7290  C.ar    1  <O>11      -0.0392
   8 C3        1.0550   -13.0590    -4.0140  C.ar    1  <O>11      -0.0582
   9 C4        1.1680   -13.6020    -5.2960  C.ar    1  <O>11      -0.0392
  10 C5        1.8340   -12.8810    -6.2930  C.ar    1  <O>11       0.0498
  11 N3        1.9480   -13.4460    -7.6140  N.pl3   1  <O>11      -0.2160
  12 S2        0.7805   -13.1466    -8.7437  S.O2    1  <O>11       0.0780
  13 O3        0.6788   -11.5114    -9.0164  O.2     1  <O>11      -0.1498
  14 O4       -0.6819   -13.7082    -8.1909  O.2     1  <O>11      -0.1498
  15 C6        1.1961   -13.9715   -10.2545  C.ar    1  <O>11       0.1843
  16 C7        2.3942   -13.6683   -10.9207  C.ar    1  <O>11       0.1907
  17 F1        3.2494   -12.7355   -10.3935  F       1  <O>11      -0.2002
  18 C8        2.7166   -14.3111   -12.1221  C.ar    1  <O>11       0.1983
  19 F2        3.8868   -14.0060   -12.7657  F       1  <O>11      -0.1993
  20 C9        1.8489   -15.2635   -12.6630  C.ar    1  <O>11       0.1992
  21 F3        2.1572   -15.8954   -13.8397  F       1  <O>11      -0.1993
  22 C10       0.6587   -15.5719   -11.9959  C.ar    1  <O>11       0.1983
  23 F4       -0.1873   -16.5082   -12.5295  F       1  <O>11      -0.1993
  24 C11       0.3283   -14.9357   -10.7963  C.ar    1  <O>11       0.1907
  25 F5       -0.8346   -15.2422   -10.1382  F       1  <O>11      -0.2002
  26 C12       2.3860   -11.6290    -6.0200  C.ar    1  <O>11      -0.0169
  27 H1        1.8178    -8.1059    -6.5115  H       1  <O>11       0.1456
  28 H2        2.2664    -9.5350    -7.2401  H       1  <O>11       0.1456
  29 H3        2.7670    -9.4280    -3.4890  H       1  <O>11       0.1747
  30 H4        2.7484   -14.0324    -7.8506  H       1  <O>11       0.1737
  31 H5        1.5194   -11.4031    -2.7824  H       1  <O>11       0.0636
  32 H6        0.5633   -13.5847    -3.2744  H       1  <O>11       0.0619
  33 H7        0.7634   -14.5278    -5.5061  H       1  <O>11       0.0636
  34 H8        2.8716   -11.1000    -6.7612  H       1  <O>11       0.0655
@<TRIPOS>BOND
     1     1     2    1
     2     2     3    2
     3     2     4    2
     4     2     5    1
     5     5     6    1
     6     6     7   ar
     7     7     8   ar
     8     8     9   ar
     9     9    10   ar
    10    10    11    1
    11    11    12    1
    12    12    13    2
    13    12    14    2
    14    12    15    1
    15    15    16   ar
    16    16    17    1
    17    16    18   ar
    18    18    19    1
    19    18    20   ar
    20    20    21    1
    21    20    22   ar
    22    22    23    1
    23    22    24   ar
    24    15    24   ar
    25    24    25    1
    26    10    26   ar
    27     6    26   ar
    28     1    27    1
    29     1    28    1
    30     5    29    1
    31    11    30    1
    32     7    31    1
    33     8    32    1
    34     9    33    1
    35    26    34    1
@<TRIPOS>MOLECULE
mol91_1_17
 34 35 0 0 0
SMALL
USER_CHARGES
****
VDW energy = -421.85
@<TRIPOS>ATOM
   1 N1        2.6068    -8.6548    -6.8531  N.3     1  <O>11      -0.1906
   2 S1        3.6427    -8.9662    -5.6045  S.O2    1  <O>11       0.1067
   3 O1        4.9274    -9.8601    -6.1608  O.2     1  <O>11      -0.1383
   4 O2        4.1969    -7.5329    -4.9742  O.2     1  <O>11      -0.1383
   5 N2        2.8490    -9.8140    -4.4290  N.pl3   1  <O>11      -0.2067
   6 C1        1.6911    -9.2439    -3.7879  C.ar    1  <O>11       0.0508
   7 C2        1.0305    -9.9724    -2.7959  C.ar    1  <O>11      -0.0392
   8 C3       -0.1009    -9.4299    -2.1771  C.ar    1  <O>11      -0.0582
   9 C4       -0.5656    -8.1652    -2.5454  C.ar    1  <O>11      -0.0392
  10 C5        0.1106    -7.4446    -3.5358  C.ar    1  <O>11       0.0498
  11 N3       -0.3734    -6.1402    -3.9122  N.pl3   1  <O>11      -0.2160
  12 S2       -1.8429    -5.9862    -4.6509  S.O2    1  <O>11       0.0780
  13 O3       -3.0303    -6.5797    -3.6528  O.2     1  <O>11      -0.1498
  14 O4       -1.8387    -6.8403    -6.0758  O.2     1  <O>11      -0.1498
  15 C6       -2.1569    -4.2765    -4.9890  C.ar    1  <O>11       0.1843
  16 C7       -3.4733    -3.7888    -5.0102  C.ar    1  <O>11       0.1907
  17 F1       -4.5188    -4.6393    -4.7592  F       1  <O>11      -0.2002
  18 C8       -3.7224    -2.4398    -5.2905  C.ar    1  <O>11       0.1983
  19 F2       -5.0107    -1.9747    -5.3115  F       1  <O>11      -0.1993
  20 C9       -2.6602    -1.5687    -5.5459  C.ar    1  <O>11       0.1992
  21 F3       -2.8967    -0.2472    -5.8228  F       1  <O>11      -0.1993
  22 C10      -1.3479    -2.0520    -5.5172  C.ar    1  <O>11       0.1983
  23 F4       -0.3099    -1.1929    -5.7661  F       1  <O>11      -0.1993
  24 C11      -1.0893    -3.3967    -5.2384  C.ar    1  <O>11       0.1907
  25 F5        0.1969    -3.8699    -5.2034  F       1  <O>11      -0.2002
  26 C12       1.2406    -7.9756    -4.1584  C.ar    1  <O>11      -0.0169
  27 H1        1.8178    -8.1059    -6.5115  H       1  <O>11       0.1456
  28 H2        2.2664    -9.5350    -7.2401  H       1  <O>11       0.1456
  29 H3        3.1777   -10.7403    -4.1582  H       1  <O>11       0.1747
  30 H4        0.1925    -5.3125    -3.7246  H       1  <O>11       0.1737
  31 H5        1.3751   -10.9056    -2.5210  H       1  <O>11       0.0636
  32 H6       -0.5939    -9.9660    -1.4458  H       1  <O>11       0.0619
  33 H7       -1.4013    -7.7655    -2.0905  H       1  <O>11       0.0636
  34 H8        1.7379    -7.4368    -4.8847  H       1  <O>11       0.0655
@<TRIPOS>BOND
     1     1     2    1
     2     2     3    2
     3     2     4    2
     4     2     5    1
     5     5     6    1
     6     6     7   ar
     7     7     8   ar
     8     8     9   ar
     9     9    10   ar
    10    10    11    1
    11    11    12    1
    12    12    13    2
    13    12    14    2
    14    12    15    1
    15    15    16   ar
    16    16    17    1
    17    16    18   ar
    18    18    19    1
    19    18    20   ar
    20    20    21    1
    21    20    22   ar
    22    22    23    1
    23    22    24   ar
    24    15    24   ar
    25    24    25    1
    26    10    26   ar
    27     6    26   ar
    28     1    27    1
    29     1    28    1
    30     5    29    1
    31    11    30    1
    32     7    31    1
    33     8    32    1
    34     9    33    1
    35    26    34    1
@<TRIPOS>MOLECULE
mol91_1_18
 34 35 0 0 0
SMALL
USER_CHARGES
****
VDW energy = -421.61
@<TRIPOS>ATOM
   1 N1        2.6068    -8.6548    -6.8531  N.3     1  <O>11      -0.1906
   2 S1        3.6427    -8.9662    -5.6045  S.O2    1  <O>11       0.1067
   3 O1        4.9274    -9.8601    -6.1608  O.2     1  <O>11      -0.1383
   4 O2        4.1969    -7.5329    -4.9742  O.2     1  <O>11      -0.1383
   5 N2        2.8490    -9.8140    -4.4290  N.pl3   1  <O>11      -0.2067
   6 C1        1.6911    -9.2439    -3.7879  C.ar    1  <O>11       0.0508
   7 C2        1.0305    -9.9724    -2.7959  C.ar    1  <O>11      -0.0392
   8 C3       -0.1009    -9.4299    -2.1771  C.ar    1  <O>11      -0.0582
   9 C4       -0.5656    -8.1652    -2.5454  C.ar    1  <O>11      -0.0392
  10 C5        0.1106    -7.4446    -3.5358  C.ar    1  <O>11       0.0498
  11 N3       -0.3734    -6.1402    -3.9122  N.pl3   1  <O>11      -0.2160
  12 S2       -1.8429    -5.9862    -4.6509  S.O2    1  <O>11       0.0780
  13 O3       -3.0303    -6.5797    -3.6528  O.2     1  <O>11      -0.1498
  14 O4       -1.8387    -6.8403    -6.0758  O.2     1  <O>11      -0.1498
  15 C6       -2.1569    -4.2765    -4.9890  C.ar    1  <O>11       0.1843
  16 C7       -2.2087    -3.3449    -3.9400  C.ar    1  <O>11       0.1907
  17 F1       -2.0063    -3.7605    -2.6494  F       1  <O>11      -0.2002
  18 C8       -2.4700    -1.9953    -4.2061  C.ar    1  <O>11       0.1983
  19 F2       -2.5211    -1.0948    -3.1750  F       1  <O>11      -0.1993
  20 C9       -2.6758    -1.5664    -5.5199  C.ar    1  <O>11       0.1992
  21 F3       -2.9338    -0.2471    -5.7876  F       1  <O>11      -0.1993
  22 C10      -2.6166    -2.4926    -6.5665  C.ar    1  <O>11       0.1983
  23 F4       -2.8169    -2.0662    -7.8531  F       1  <O>11      -0.1993
  24 C11      -2.3565    -3.8416    -6.3108  C.ar    1  <O>11       0.1907
  25 F5       -2.2915    -4.7489    -7.3365  F       1  <O>11      -0.2002
  26 C12       1.2406    -7.9756    -4.1584  C.ar    1  <O>11      -0.0169
  27 H1        1.8178    -8.1059    -6.5115  H       1  <O>11       0.1456
  28 H2        2.2664    -9.5350    -7.2401  H       1  <O>11       0.1456
  29 H3        3.1777   -10.7403    -4.1582  H       1  <O>11       0.1747
  30 H4        0.1925    -5.3125    -3.7246  H       1  <O>11       0.1737
  31 H5        1.3751   -10.9056    -2.5210  H       1  <O>11       0.0636
  32 H6       -0.5939    -9.9660    -1.4458  H       1  <O>11       0.0619
  33 H7       -1.4013    -7.7655    -2.0905  H       1  <O>11       0.0636
  34 H8        1.7379    -7.4368    -4.8847  H       1  <O>11       0.0655
@<TRIPOS>BOND
     1     1     2    1
     2     2     3    2
     3     2     4    2
     4     2     5    1
     5     5     6    1
     6     6     7   ar
     7     7     8   ar
     8     8     9   ar
     9     9    10   ar
    10    10    11    1
    11    11    12    1
    12    12    13    2
    13    12    14    2
    14    12    15    1
    15    15    16   ar
    16    16    17    1
    17    16    18   ar
    18    18    19    1
    19    18    20   ar
    20    20    21    1
    21    20    22   ar
    22    22    23    1
    23    22    24   ar
    24    15    24   ar
    25    24    25    1
    26    10    26   ar
    27     6    26   ar
    28     1    27    1
    29     1    28    1
    30     5    29    1
    31    11    30    1
    32     7    31    1
    33     8    32    1
    34     9    33    1
    35    26    34    1
@<TRIPOS>MOLECULE
mol91_1_19
 34 35 0 0 0
SMALL
USER_CHARGES
****
VDW energy = -420.37
@<TRIPOS>ATOM
   1 N1        2.6068    -8.6548    -6.8531  N.3     1  <O>11      -0.1906
   2 S1        3.6427    -8.9662    -5.6045  S.O2    1  <O>11       0.1067
   3 O1        4.9274    -9.8601    -6.1608  O.2     1  <O>11      -0.1383
   4 O2        4.1969    -7.5329    -4.9742  O.2     1  <O>11      -0.1383
   5 N2        2.8490    -9.8140    -4.4290  N.pl3   1  <O>11      -0.2067
   6 C1        1.6911    -9.2439    -3.7879  C.ar    1  <O>11       0.0508
   7 C2        0.5336    -9.0227    -4.5379  C.ar    1  <O>11      -0.0392
   8 C3       -0.5906    -8.4592    -3.9248  C.ar    1  <O>11      -0.0582
   9 C4       -0.5582    -8.1232    -2.5694  C.ar    1  <O>11      -0.0392
  10 C5        0.6060    -8.3569    -1.8296  C.ar    1  <O>11       0.0498
  11 N3        0.6342    -8.0081    -0.4314  N.pl3   1  <O>11      -0.2160
  12 S2        1.9991    -8.2769     0.4594  S.O2    1  <O>11       0.0780
  13 O3        3.2640    -7.4196    -0.1915  O.2     1  <O>11      -0.1498
  14 O4        2.3613    -9.8981     0.4420  O.2     1  <O>11      -0.1498
  15 C6        1.7274    -7.7511     2.1284  C.ar    1  <O>11       0.1843
  16 C7        1.4030    -6.4137     2.4058  C.ar    1  <O>11       0.1907
  17 F1        1.2877    -5.5136     1.3782  F       1  <O>11      -0.2002
  18 C8        1.2010    -5.9951     3.7266  C.ar    1  <O>11       0.1983
  19 F2        0.8875    -4.6872     3.9867  F       1  <O>11      -0.1993
  20 C9        1.3162    -6.9089     4.7774  C.ar    1  <O>11       0.1992
  21 F3        1.1217    -6.5058     6.0730  F       1  <O>11      -0.1993
  22 C10       1.6318    -8.2434     4.5013  C.ar    1  <O>11       0.1983
  23 F4        1.7412    -9.1356     5.5353  F       1  <O>11      -0.1993
  24 C11       1.8351    -8.6705     3.1864  C.ar    1  <O>11       0.1907
  25 F5        2.1377    -9.9797     2.9141  F       1  <O>11      -0.2002
  26 C12       1.7324    -8.9197    -2.4307  C.ar    1  <O>11      -0.0169
  27 H1        1.8178    -8.1059    -6.5115  H       1  <O>11       0.1456
  28 H2        2.2664    -9.5350    -7.2401  H       1  <O>11       0.1456
  29 H3        3.1777   -10.7403    -4.1582  H       1  <O>11       0.1747
  30 H4       -0.1894    -7.5973     0.0084  H       1  <O>11       0.1737
  31 H5        0.5079    -9.2736    -5.5387  H       1  <O>11       0.0636
  32 H6       -1.4469    -8.2913    -4.4759  H       1  <O>11       0.0619
  33 H7       -1.3866    -7.7057    -2.1172  H       1  <O>11       0.0636
  34 H8        2.5864    -9.0942    -1.8782  H       1  <O>11       0.0655
@<TRIPOS>BOND
     1     1     2    1
     2     2     3    2
     3     2     4    2
     4     2     5    1
     5     5     6    1
     6     6     7   ar
     7     7     8   ar
     8     8     9   ar
     9     9    10   ar
    10    10    11    1
    11    11    12    1
    12    12    13    2
    13    12    14    2
    14    12    15    1
    15    15    16   ar
    16    16    17    1
    17    16    18   ar
    18    18    19    1
    19    18    20   ar
    20    20    21    1
    21    20    22   ar
    22    22    23    1
    23    22    24   ar
    24    15    24   ar
    25    24    25    1
    26    10    26   ar
    27     6    26   ar
    28     1    27    1
    29     1    28    1
    30     5    29    1
    31    11    30    1
    32     7    31    1
    33     8    32    1
    34     9    33    1
    35    26    34    1
@<TRIPOS>MOLECULE
mol91_1_20
 34 35 0 0 0
SMALL
USER_CHARGES
****
VDW energy = -418.69
@<TRIPOS>ATOM
   1 N1        2.6068    -8.6548    -6.8531  N.3     1  <O>11      -0.1906
   2 S1        3.6427    -8.9662    -5.6045  S.O2    1  <O>11       0.1067
   3 O1        4.9274    -9.8601    -6.1608  O.2     1  <O>11      -0.1383
   4 O2        4.1969    -7.5329    -4.9742  O.2     1  <O>11      -0.1383
   5 N2        2.8490    -9.8140    -4.4290  N.pl3   1  <O>11      -0.2067
   6 C1        3.5455   -10.2063    -3.2299  C.ar    1  <O>11       0.0508
   7 C2        2.8614   -10.9226    -2.2450  C.ar    1  <O>11      -0.0392
   8 C3        3.5281   -11.2971    -1.0734  C.ar    1  <O>11      -0.0582
   9 C4        4.8714   -10.9607    -0.8905  C.ar    1  <O>11      -0.0392
  10 C5        5.5452   -10.2489    -1.8888  C.ar    1  <O>11       0.0498
  11 N3        6.9311    -9.9041    -1.6949  N.pl3   1  <O>11      -0.2160
  12 S2        7.3329    -8.4749    -0.9704  S.O2    1  <O>11       0.0780
  13 O3        6.6923    -8.4301     0.5613  O.2     1  <O>11      -0.1498
  14 O4        6.7253    -7.2120    -1.8624  O.2     1  <O>11      -0.1498
  15 C6        9.0958    -8.3362    -0.8765  C.ar    1  <O>11       0.1843
  16 C7        9.6872    -7.2018    -0.2982  C.ar    1  <O>11       0.1907
  17 F1        8.8950    -6.2017     0.2035  F       1  <O>11      -0.2002
  18 C8       11.0812    -7.0861    -0.2358  C.ar    1  <O>11       0.1983
  19 F2       11.6482    -5.9738     0.3281  F       1  <O>11      -0.1993
  20 C9       11.8929    -8.1032    -0.7447  C.ar    1  <O>11       0.1992
  21 F3       13.2583    -7.9959    -0.6886  F       1  <O>11      -0.1993
  22 C10      11.3045    -9.2373    -1.3140  C.ar    1  <O>11       0.1983
  23 F4       12.1053   -10.2327    -1.8094  F       1  <O>11      -0.1993
  24 C11       9.9143    -9.3618    -1.3808  C.ar    1  <O>11       0.1907
  25 F5        9.3366   -10.4761    -1.9323  F       1  <O>11      -0.2002
  26 C12       4.8903    -9.8717    -3.0617  C.ar    1  <O>11      -0.0169
  27 H1        1.8178    -8.1059    -6.5115  H       1  <O>11       0.1456
  28 H2        2.2664    -9.5350    -7.2401  H       1  <O>11       0.1456
  29 H3        1.8669   -10.0585    -4.5515  H       1  <O>11       0.1747
  30 H4        7.6638   -10.5416    -2.0069  H       1  <O>11       0.1737
  31 H5        1.8697   -11.1742    -2.3808  H       1  <O>11       0.0636
  32 H6        3.0256   -11.8237    -0.3418  H       1  <O>11       0.0619
  33 H7        5.3630   -11.2350    -0.0256  H       1  <O>11       0.0636
  34 H8        5.3944    -9.3512    -3.7965  H       1  <O>11       0.0655
@<TRIPOS>BOND
     1     1     2    1
     2     2     3    2
     3     2     4    2
     4     2     5    1
     5     5     6    1
     6     6     7   ar
     7     7     8   ar
     8     8     9   ar
     9     9    10   ar
    10    10    11    1
    11    11    12    1
    12    12    13    2
    13    12    14    2
    14    12    15    1
    15    15    16   ar
    16    16    17    1
    17    16    18   ar
    18    18    19    1
    19    18    20   ar
    20    20    21    1
    21    20    22   ar
    22    22    23    1
    23    22    24   ar
    24    15    24   ar
    25    24    25    1
    26    10    26   ar
    27     6    26   ar
    28     1    27    1
    29     1    28    1
    30     5    29    1
    31    11    30    1
    32     7    31    1
    33     8    32    1
    34     9    33    1
    35    26    34    1
@<TRIPOS>MOLECULE
mol91_1_21
 34 35 0 0 0
SMALL
USER_CHARGES
****
VDW energy = -417.57
@<TRIPOS>ATOM
   1 N1        2.6068    -8.6548    -6.8531  N.3     1  <O>11      -0.1906
   2 S1        3.6427    -8.9662    -5.6045  S.O2    1  <O>11       0.1067
   3 O1        4.9274    -9.8601    -6.1608  O.2     1  <O>11      -0.1383
   4 O2        4.1969    -7.5329    -4.9742  O.2     1  <O>11      -0.1383
   5 N2        2.8490    -9.8140    -4.4290  N.pl3   1  <O>11      -0.2067
   6 C1        1.6911    -9.2439    -3.7879  C.ar    1  <O>11       0.0508
   7 C2        1.0305    -9.9724    -2.7959  C.ar    1  <O>11      -0.0392
   8 C3       -0.1009    -9.4299    -2.1771  C.ar    1  <O>11      -0.0582
   9 C4       -0.5656    -8.1652    -2.5454  C.ar    1  <O>11      -0.0392
  10 C5        0.1106    -7.4446    -3.5358  C.ar    1  <O>11       0.0498
  11 N3       -0.3734    -6.1402    -3.9122  N.pl3   1  <O>11      -0.2160
  12 S2        0.1794    -4.7961    -3.1270  S.O2    1  <O>11       0.0780
  13 O3        1.8255    -4.6809    -3.3158  O.2     1  <O>11      -0.1498
  14 O4       -0.1863    -4.9096    -1.5104  O.2     1  <O>11      -0.1498
  15 C6       -0.5942    -3.3556    -3.8069  C.ar    1  <O>11       0.1843
  16 C7       -0.4346    -3.0405    -5.1657  C.ar    1  <O>11       0.1907
  17 F1        0.3166    -3.8573    -5.9706  F       1  <O>11      -0.2002
  18 C8       -1.0356    -1.8944    -5.7004  C.ar    1  <O>11       0.1983
  19 F2       -0.8713    -1.5945    -7.0269  F       1  <O>11      -0.1993
  20 C9       -1.8032    -1.0593    -4.8845  C.ar    1  <O>11       0.1992
  21 F3       -2.3930     0.0653    -5.4007  F       1  <O>11      -0.1993
  22 C10      -1.9692    -1.3767    -3.5323  C.ar    1  <O>11       0.1983
  23 F4       -2.7249    -0.5555    -2.7374  F       1  <O>11      -0.1993
  24 C11      -1.3734    -2.5183    -2.9896  C.ar    1  <O>11       0.1907
  25 F5       -1.5412    -2.8339    -1.6661  F       1  <O>11      -0.2002
  26 C12       1.2406    -7.9756    -4.1584  C.ar    1  <O>11      -0.0169
  27 H1        1.8178    -8.1059    -6.5115  H       1  <O>11       0.1456
  28 H2        2.2664    -9.5350    -7.2401  H       1  <O>11       0.1456
  29 H3        3.1777   -10.7403    -4.1582  H       1  <O>11       0.1747
  30 H4       -1.0587    -6.0472    -4.6620  H       1  <O>11       0.1737
  31 H5        1.3751   -10.9056    -2.5210  H       1  <O>11       0.0636
  32 H6       -0.5939    -9.9660    -1.4458  H       1  <O>11       0.0619
  33 H7       -1.4013    -7.7655    -2.0905  H       1  <O>11       0.0636
  34 H8        1.7379    -7.4368    -4.8847  H       1  <O>11       0.0655
@<TRIPOS>BOND
     1     1     2    1
     2     2     3    2
     3     2     4    2
     4     2     5    1
     5     5     6    1
     6     6     7   ar
     7     7     8   ar
     8     8     9   ar
     9     9    10   ar
    10    10    11    1
    11    11    12    1
    12    12    13    2
    13    12    14    2
    14    12    15    1
    15    15    16   ar
    16    16    17    1
    17    16    18   ar
    18    18    19    1
    19    18    20   ar
    20    20    21    1
    21    20    22   ar
    22    22    23    1
    23    22    24   ar
    24    15    24   ar
    25    24    25    1
    26    10    26   ar
    27     6    26   ar
    28     1    27    1
    29     1    28    1
    30     5    29    1
    31    11    30    1
    32     7    31    1
    33     8    32    1
    34     9    33    1
    35    26    34    1
@<TRIPOS>MOLECULE
mol91_1_22
 34 35 0 0 0
SMALL
USER_CHARGES
****
VDW energy = -417.01
@<TRIPOS>ATOM
   1 N1        2.6068    -8.6548    -6.8531  N.3     1  <O>11      -0.1906
   2 S1        3.6427    -8.9662    -5.6045  S.O2    1  <O>11       0.1067
   3 O1        4.9274    -9.8601    -6.1608  O.2     1  <O>11      -0.1383
   4 O2        4.1969    -7.5329    -4.9742  O.2     1  <O>11      -0.1383
   5 N2        2.8490    -9.8140    -4.4290  N.pl3   1  <O>11      -0.2067
   6 C1        1.6911    -9.2439    -3.7879  C.ar    1  <O>11       0.0508
   7 C2        1.0305    -9.9724    -2.7959  C.ar    1  <O>11      -0.0392
   8 C3       -0.1009    -9.4299    -2.1771  C.ar    1  <O>11      -0.0582
   9 C4       -0.5656    -8.1652    -2.5454  C.ar    1  <O>11      -0.0392
  10 C5        0.1106    -7.4446    -3.5358  C.ar    1  <O>11       0.0498
  11 N3       -0.3734    -6.1402    -3.9122  N.pl3   1  <O>11      -0.2160
  12 S2       -0.3288    -4.8974    -2.8249  S.O2    1  <O>11       0.0780
  13 O3        1.2422    -4.6219    -2.3614  O.2     1  <O>11      -0.1498
  14 O4       -1.2380    -5.2946    -1.4925  O.2     1  <O>11      -0.1498
  15 C6       -0.9878    -3.4343    -3.5738  C.ar    1  <O>11       0.1843
  16 C7       -0.3892    -2.8962    -4.7240  C.ar    1  <O>11       0.1907
  17 F1        0.7052    -3.5121    -5.2740  F       1  <O>11      -0.2002
  18 C8       -0.9023    -1.7319    -5.3086  C.ar    1  <O>11       0.1983
  19 F2       -0.3091    -1.2135    -6.4293  F       1  <O>11      -0.1993
  20 C9       -2.0182    -1.1010    -4.7526  C.ar    1  <O>11       0.1992
  21 F3       -2.5249     0.0400    -5.3185  F       1  <O>11      -0.1993
  22 C10      -2.6200    -1.6409    -3.6111  C.ar    1  <O>11       0.1983
  23 F4       -3.7154    -1.0194    -3.0715  F       1  <O>11      -0.1993
  24 C11      -2.1151    -2.8024    -3.0206  C.ar    1  <O>11       0.1907
  25 F5       -2.7084    -3.3362    -1.9059  F       1  <O>11      -0.2002
  26 C12       1.2406    -7.9756    -4.1584  C.ar    1  <O>11      -0.0169
  27 H1        1.8178    -8.1059    -6.5115  H       1  <O>11       0.1456
  28 H2        2.2664    -9.5350    -7.2401  H       1  <O>11       0.1456
  29 H3        3.1777   -10.7403    -4.1582  H       1  <O>11       0.1747
  30 H4       -0.7453    -5.9850    -4.8493  H       1  <O>11       0.1737
  31 H5        1.3751   -10.9056    -2.5210  H       1  <O>11       0.0636
  32 H6       -0.5939    -9.9660    -1.4458  H       1  <O>11       0.0619
  33 H7       -1.4013    -7.7655    -2.0905  H       1  <O>11       0.0636
  34 H8        1.7379    -7.4368    -4.8847  H       1  <O>11       0.0655
@<TRIPOS>BOND
     1     1     2    1
     2     2     3    2
     3     2     4    2
     4     2     5    1
     5     5     6    1
     6     6     7   ar
     7     7     8   ar
     8     8     9   ar
     9     9    10   ar
    10    10    11    1
    11    11    12    1
    12    12    13    2
    13    12    14    2
    14    12    15    1
    15    15    16   ar
    16    16    17    1
    17    16    18   ar
    18    18    19    1
    19    18    20   ar
    20    20    21    1
    21    20    22   ar
    22    22    23    1
    23    22    24   ar
    24    15    24   ar
    25    24    25    1
    26    10    26   ar
    27     6    26   ar
    28     1    27    1
    29     1    28    1
    30     5    29    1
    31    11    30    1
    32     7    31    1
    33     8    32    1
    34     9    33    1
    35    26    34    1
@<TRIPOS>MOLECULE
mol91_1_23
 34 35 0 0 0
SMALL
USER_CHARGES
****
VDW energy = -416.99
@<TRIPOS>ATOM
   1 N1        2.6068    -8.6548    -6.8531  N.3     1  <O>11      -0.1906
   2 S1        3.6427    -8.9662    -5.6045  S.O2    1  <O>11       0.1067
   3 O1        4.9274    -9.8601    -6.1608  O.2     1  <O>11      -0.1383
   4 O2        4.1969    -7.5329    -4.9742  O.2     1  <O>11      -0.1383
   5 N2        2.8490    -9.8140    -4.4290  N.pl3   1  <O>11      -0.2067
   6 C1        2.2740   -11.1000    -4.7330  C.ar    1  <O>11       0.0508
   7 C2        1.6060   -11.8050    -3.7290  C.ar    1  <O>11      -0.0392
   8 C3        1.0550   -13.0590    -4.0140  C.ar    1  <O>11      -0.0582
   9 C4        1.1680   -13.6020    -5.2960  C.ar    1  <O>11      -0.0392
  10 C5        1.8340   -12.8810    -6.2930  C.ar    1  <O>11       0.0498
  11 N3        1.9480   -13.4460    -7.6140  N.pl3   1  <O>11      -0.2160
  12 S2        3.2461   -14.3928    -7.9979  S.O2    1  <O>11       0.0780
  13 O3        3.2847   -15.7150    -6.9936  O.2     1  <O>11      -0.1498
  14 O4        4.6449   -13.5158    -7.8135  O.2     1  <O>11      -0.1498
  15 C6        3.1059   -14.9329    -9.6786  C.ar    1  <O>11       0.1843
  16 C7        2.0007   -15.6959   -10.0875  C.ar    1  <O>11       0.1907
  17 F1        1.0218   -16.0162    -9.1826  F       1  <O>11      -0.2002
  18 C8        1.8963   -16.1340   -11.4133  C.ar    1  <O>11       0.1983
  19 F2        0.8152   -16.8804   -11.8013  F       1  <O>11      -0.1993
  20 C9        2.8906   -15.8092   -12.3396  C.ar    1  <O>11       0.1992
  21 F3        2.7960   -16.2362   -13.6388  F       1  <O>11      -0.1993
  22 C10       3.9883   -15.0424   -11.9350  C.ar    1  <O>11       0.1983
  23 F4        4.9592   -14.7249   -12.8481  F       1  <O>11      -0.1993
  24 C11       4.1012   -14.6006   -10.6141  C.ar    1  <O>11       0.1907
  25 F5        5.1731   -13.8432   -10.2181  F       1  <O>11      -0.2002
  26 C12       2.3860   -11.6290    -6.0200  C.ar    1  <O>11      -0.0169
  27 H1        1.8178    -8.1059    -6.5115  H       1  <O>11       0.1456
  28 H2        2.2664    -9.5350    -7.2401  H       1  <O>11       0.1456
  29 H3        2.7670    -9.4280    -3.4890  H       1  <O>11       0.1747
  30 H4        1.2283   -13.2595    -8.3124  H       1  <O>11       0.1737
  31 H5        1.5194   -11.4031    -2.7824  H       1  <O>11       0.0636
  32 H6        0.5633   -13.5847    -3.2744  H       1  <O>11       0.0619
  33 H7        0.7634   -14.5278    -5.5061  H       1  <O>11       0.0636
  34 H8        2.8716   -11.1000    -6.7612  H       1  <O>11       0.0655
@<TRIPOS>BOND
     1     1     2    1
     2     2     3    2
     3     2     4    2
     4     2     5    1
     5     5     6    1
     6     6     7   ar
     7     7     8   ar
     8     8     9   ar
     9     9    10   ar
    10    10    11    1
    11    11    12    1
    12    12    13    2
    13    12    14    2
    14    12    15    1
    15    15    16   ar
    16    16    17    1
    17    16    18   ar
    18    18    19    1
    19    18    20   ar
    20    20    21    1
    21    20    22   ar
    22    22    23    1
    23    22    24   ar
    24    15    24   ar
    25    24    25    1
    26    10    26   ar
    27     6    26   ar
    28     1    27    1
    29     1    28    1
    30     5    29    1
    31    11    30    1
    32     7    31    1
    33     8    32    1
    34     9    33    1
    35    26    34    1
@<TRIPOS>MOLECULE
mol91_1_24
 34 35 0 0 0
SMALL
USER_CHARGES
****
VDW energy = -414.14
@<TRIPOS>ATOM
   1 N1        2.6068    -8.6548    -6.8531  N.3     1  <O>11      -0.1906
   2 S1        3.6427    -8.9662    -5.6045  S.O2    1  <O>11       0.1067
   3 O1        4.9274    -9.8601    -6.1608  O.2     1  <O>11      -0.1383
   4 O2        4.1969    -7.5329    -4.9742  O.2     1  <O>11      -0.1383
   5 N2        2.8490    -9.8140    -4.4290  N.pl3   1  <O>11      -0.2067
   6 C1        2.2740   -11.1000    -4.7330  C.ar    1  <O>11       0.0508
   7 C2        1.6060   -11.8050    -3.7290  C.ar    1  <O>11      -0.0392
   8 C3        1.0550   -13.0590    -4.0140  C.ar    1  <O>11      -0.0582
   9 C4        1.1680   -13.6020    -5.2960  C.ar    1  <O>11      -0.0392
  10 C5        1.8340   -12.8810    -6.2930  C.ar    1  <O>11       0.0498
  11 N3        1.9480   -13.4460    -7.6140  N.pl3   1  <O>11      -0.2160
  12 S2        2.7300   -12.6100    -8.8050  S.O2    1  <O>11       0.0780
  13 O3        4.3040   -12.3380    -8.3500  O.2     1  <O>11      -0.1498
  14 O4        1.9660   -11.1560    -9.0540  O.2     1  <O>11      -0.1498
  15 C6        2.7040   -13.5540   -10.3030  C.ar    1  <O>11       0.1843
  16 C7        3.7481   -13.4343   -11.2339  C.ar    1  <O>11       0.1907
  17 F1        4.7963   -12.5889   -10.9767  F       1  <O>11      -0.2002
  18 C8        3.7211   -14.1709   -12.4243  C.ar    1  <O>11       0.1983
  19 F2        4.7435   -14.0447   -13.3273  F       1  <O>11      -0.1993
  20 C9        2.6556   -15.0347   -12.6906  C.ar    1  <O>11       0.1992
  21 F3        2.6216   -15.7576   -13.8548  F       1  <O>11      -0.1993
  22 C10       1.6187   -15.1605   -11.7602  C.ar    1  <O>11       0.1983
  23 F4        0.5776   -16.0107   -12.0254  F       1  <O>11      -0.1993
  24 C11       1.6369   -14.4296   -10.5693  C.ar    1  <O>11       0.1907
  25 F5        0.6246   -14.5573    -9.6536  F       1  <O>11      -0.2002
  26 C12       2.3860   -11.6290    -6.0200  C.ar    1  <O>11      -0.0169
  27 H1        1.8178    -8.1059    -6.5115  H       1  <O>11       0.1456
  28 H2        2.2664    -9.5350    -7.2401  H       1  <O>11       0.1456
  29 H3        2.7670    -9.4280    -3.4890  H       1  <O>11       0.1747
  30 H4        1.5440   -14.3610    -7.8140  H       1  <O>11       0.1737
  31 H5        1.5194   -11.4031    -2.7824  H       1  <O>11       0.0636
  32 H6        0.5633   -13.5847    -3.2744  H       1  <O>11       0.0619
  33 H7        0.7634   -14.5278    -5.5061  H       1  <O>11       0.0636
  34 H8        2.8716   -11.1000    -6.7612  H       1  <O>11       0.0655
@<TRIPOS>BOND
     1     1     2    1
     2     2     3    2
     3     2     4    2
     4     2     5    1
     5     5     6    1
     6     6     7   ar
     7     7     8   ar
     8     8     9   ar
     9     9    10   ar
    10    10    11    1
    11    11    12    1
    12    12    13    2
    13    12    14    2
    14    12    15    1
    15    15    16   ar
    16    16    17    1
    17    16    18   ar
    18    18    19    1
    19    18    20   ar
    20    20    21    1
    21    20    22   ar
    22    22    23    1
    23    22    24   ar
    24    15    24   ar
    25    24    25    1
    26    10    26   ar
    27     6    26   ar
    28     1    27    1
    29     1    28    1
    30     5    29    1
    31    11    30    1
    32     7    31    1
    33     8    32    1
    34     9    33    1
    35    26    34    1
@<TRIPOS>MOLECULE
mol91_1_25
 34 35 0 0 0
SMALL
USER_CHARGES
****
VDW energy = -413.84
@<TRIPOS>ATOM
   1 N1        2.6068    -8.6548    -6.8531  N.3     1  <O>11      -0.1906
   2 S1        3.6427    -8.9662    -5.6045  S.O2    1  <O>11       0.1067
   3 O1        4.9274    -9.8601    -6.1608  O.2     1  <O>11      -0.1383
   4 O2        4.1969    -7.5329    -4.9742  O.2     1  <O>11      -0.1383
   5 N2        2.8490    -9.8140    -4.4290  N.pl3   1  <O>11      -0.2067
   6 C1        2.2740   -11.1000    -4.7330  C.ar    1  <O>11       0.0508
   7 C2        1.6060   -11.8050    -3.7290  C.ar    1  <O>11      -0.0392
   8 C3        1.0550   -13.0590    -4.0140  C.ar    1  <O>11      -0.0582
   9 C4        1.1680   -13.6020    -5.2960  C.ar    1  <O>11      -0.0392
  10 C5        1.8340   -12.8810    -6.2930  C.ar    1  <O>11       0.0498
  11 N3        1.9480   -13.4460    -7.6140  N.pl3   1  <O>11      -0.2160
  12 S2        2.7300   -12.6100    -8.8050  S.O2    1  <O>11       0.0780
  13 O3        4.3040   -12.3380    -8.3500  O.2     1  <O>11      -0.1498
  14 O4        1.9660   -11.1560    -9.0540  O.2     1  <O>11      -0.1498
  15 C6        2.7040   -13.5540   -10.3030  C.ar    1  <O>11       0.1843
  16 C7        3.2900   -14.8290   -10.3470  C.ar    1  <O>11       0.1907
  17 F1        3.8770   -15.3480    -9.2220  F       1  <O>11      -0.2002
  18 C8        3.2810   -15.5700   -11.5350  C.ar    1  <O>11       0.1983
  19 F2        3.8580   -16.8120   -11.5680  F       1  <O>11      -0.1993
  20 C9        2.6830   -15.0460   -12.6840  C.ar    1  <O>11       0.1992
  21 F3        2.6720   -15.7650   -13.8510  F       1  <O>11      -0.1993
  22 C10       2.0920   -13.7790   -12.6390  C.ar    1  <O>11       0.1983
  23 F4        1.5050   -13.2710   -13.7680  F       1  <O>11      -0.1993
  24 C11       2.0960   -13.0320   -11.4580  C.ar    1  <O>11       0.1907
  25 F5        1.5110   -11.7930   -11.4110  F       1  <O>11      -0.2002
  26 C12       2.3860   -11.6290    -6.0200  C.ar    1  <O>11      -0.0169
  27 H1        1.8178    -8.1059    -6.5115  H       1  <O>11       0.1456
  28 H2        2.2664    -9.5350    -7.2401  H       1  <O>11       0.1456
  29 H3        2.7670    -9.4280    -3.4890  H       1  <O>11       0.1747
  30 H4        1.5440   -14.3610    -7.8140  H       1  <O>11       0.1737
  31 H5        1.5194   -11.4031    -2.7824  H       1  <O>11       0.0636
  32 H6        0.5633   -13.5847    -3.2744  H       1  <O>11       0.0619
  33 H7        0.7634   -14.5278    -5.5061  H       1  <O>11       0.0636
  34 H8        2.8716   -11.1000    -6.7612  H       1  <O>11       0.0655
@<TRIPOS>BOND
     1     1     2    1
     2     2     3    2
     3     2     4    2
     4     2     5    1
     5     5     6    1
     6     6     7   ar
     7     7     8   ar
     8     8     9   ar
     9     9    10   ar
    10    10    11    1
    11    11    12    1
    12    12    13    2
    13    12    14    2
    14    12    15    1
    15    15    16   ar
    16    16    17    1
    17    16    18   ar
    18    18    19    1
    19    18    20   ar
    20    20    21    1
    21    20    22   ar
    22    22    23    1
    23    22    24   ar
    24    15    24   ar
    25    24    25    1
    26    10    26   ar
    27     6    26   ar
    28     1    27    1
    29     1    28    1
    30     5    29    1
    31    11    30    1
    32     7    31    1
    33     8    32    1
    34     9    33    1
    35    26    34    1
@<TRIPOS>MOLECULE
mol91_1_26
 34 35 0 0 0
SMALL
USER_CHARGES
****
VDW energy = -413.77
@<TRIPOS>ATOM
   1 N1        2.6068    -8.6548    -6.8531  N.3     1  <O>11      -0.1906
   2 S1        3.6427    -8.9662    -5.6045  S.O2    1  <O>11       0.1067
   3 O1        4.9274    -9.8601    -6.1608  O.2     1  <O>11      -0.1383
   4 O2        4.1969    -7.5329    -4.9742  O.2     1  <O>11      -0.1383
   5 N2        2.8490    -9.8140    -4.4290  N.pl3   1  <O>11      -0.2067
   6 C1        1.6911    -9.2439    -3.7879  C.ar    1  <O>11       0.0508
   7 C2        1.0305    -9.9724    -2.7959  C.ar    1  <O>11      -0.0392
   8 C3       -0.1009    -9.4299    -2.1771  C.ar    1  <O>11      -0.0582
   9 C4       -0.5656    -8.1652    -2.5454  C.ar    1  <O>11      -0.0392
  10 C5        0.1106    -7.4446    -3.5358  C.ar    1  <O>11       0.0498
  11 N3       -0.3734    -6.1402    -3.9122  N.pl3   1  <O>11      -0.2160
  12 S2        0.4116    -5.2733    -5.0790  S.O2    1  <O>11       0.0780
  13 O3        0.4055    -6.1277    -6.5033  O.2     1  <O>11      -0.1498
  14 O4        1.9797    -4.9989    -4.6041  O.2     1  <O>11      -0.1498
  15 C6       -0.4121    -3.7240    -5.3174  C.ar    1  <O>11       0.1843
  16 C7       -1.7562    -3.6912    -5.7214  C.ar    1  <O>11       0.1907
  17 F1       -2.4355    -4.8647    -5.9235  F       1  <O>11      -0.2002
  18 C8       -2.4038    -2.4661    -5.9225  C.ar    1  <O>11       0.1983
  19 F2       -3.7147    -2.4452    -6.3194  F       1  <O>11      -0.1993
  20 C9       -1.7162    -1.2672    -5.7168  C.ar    1  <O>11       0.1992
  21 F3       -2.3431    -0.0642    -5.9135  F       1  <O>11      -0.1993
  22 C10      -0.3792    -1.2989    -5.3066  C.ar    1  <O>11       0.1983
  23 F4        0.2895    -0.1203    -5.1041  F       1  <O>11      -0.1993
  24 C11       0.2754    -2.5166    -5.1033  C.ar    1  <O>11       0.1907
  25 F5        1.5837    -2.5488    -4.6947  F       1  <O>11      -0.2002
  26 C12       1.2406    -7.9756    -4.1584  C.ar    1  <O>11      -0.0169
  27 H1        1.8178    -8.1059    -6.5115  H       1  <O>11       0.1456
  28 H2        2.2664    -9.5350    -7.2401  H       1  <O>11       0.1456
  29 H3        3.1777   -10.7403    -4.1582  H       1  <O>11       0.1747
  30 H4       -1.1991    -5.7515    -3.4568  H       1  <O>11       0.1737
  31 H5        1.3751   -10.9056    -2.5210  H       1  <O>11       0.0636
  32 H6       -0.5939    -9.9660    -1.4458  H       1  <O>11       0.0619
  33 H7       -1.4013    -7.7655    -2.0905  H       1  <O>11       0.0636
  34 H8        1.7379    -7.4368    -4.8847  H       1  <O>11       0.0655
@<TRIPOS>BOND
     1     1     2    1
     2     2     3    2
     3     2     4    2
     4     2     5    1
     5     5     6    1
     6     6     7   ar
     7     7     8   ar
     8     8     9   ar
     9     9    10   ar
    10    10    11    1
    11    11    12    1
    12    12    13    2
    13    12    14    2
    14    12    15    1
    15    15    16   ar
    16    16    17    1
    17    16    18   ar
    18    18    19    1
    19    18    20   ar
    20    20    21    1
    21    20    22   ar
    22    22    23    1
    23    22    24   ar
    24    15    24   ar
    25    24    25    1
    26    10    26   ar
    27     6    26   ar
    28     1    27    1
    29     1    28    1
    30     5    29    1
    31    11    30    1
    32     7    31    1
    33     8    32    1
    34     9    33    1
    35    26    34    1
@<TRIPOS>MOLECULE
mol91_1_27
 34 35 0 0 0
SMALL
USER_CHARGES
****
VDW energy = -413.64
@<TRIPOS>ATOM
   1 N1        2.6068    -8.6548    -6.8531  N.3     1  <O>11      -0.1906
   2 S1        3.6427    -8.9662    -5.6045  S.O2    1  <O>11       0.1067
   3 O1        4.9274    -9.8601    -6.1608  O.2     1  <O>11      -0.1383
   4 O2        4.1969    -7.5329    -4.9742  O.2     1  <O>11      -0.1383
   5 N2        2.8490    -9.8140    -4.4290  N.pl3   1  <O>11      -0.2067
   6 C1        2.2740   -11.1000    -4.7330  C.ar    1  <O>11       0.0508
   7 C2        1.6060   -11.8050    -3.7290  C.ar    1  <O>11      -0.0392
   8 C3        1.0550   -13.0590    -4.0140  C.ar    1  <O>11      -0.0582
   9 C4        1.1680   -13.6020    -5.2960  C.ar    1  <O>11      -0.0392
  10 C5        1.8340   -12.8810    -6.2930  C.ar    1  <O>11       0.0498
  11 N3        1.9480   -13.4460    -7.6140  N.pl3   1  <O>11      -0.2160
  12 S2        3.2461   -14.3928    -7.9979  S.O2    1  <O>11       0.0780
  13 O3        3.2847   -15.7150    -6.9936  O.2     1  <O>11      -0.1498
  14 O4        4.6449   -13.5158    -7.8135  O.2     1  <O>11      -0.1498
  15 C6        3.1059   -14.9329    -9.6786  C.ar    1  <O>11       0.1843
  16 C7        4.0941   -15.7547   -10.2432  C.ar    1  <O>11       0.1907
  17 F1        5.1677   -16.1474    -9.4863  F       1  <O>11      -0.2002
  18 C8        3.9900   -16.1710   -11.5760  C.ar    1  <O>11       0.1983
  19 F2        4.9612   -16.9706   -12.1182  F       1  <O>11      -0.1993
  20 C9        2.8973   -15.7745   -12.3514  C.ar    1  <O>11       0.1992
  21 F3        2.7896   -16.1767   -13.6573  F       1  <O>11      -0.1993
  22 C10       1.9081   -14.9621   -11.7873  C.ar    1  <O>11       0.1983
  23 F4        0.8376   -14.5782   -12.5514  F       1  <O>11      -0.1993
  24 C11       2.0034   -14.5416   -10.4580  C.ar    1  <O>11       0.1907
  25 F5        1.0310   -13.7510    -9.9022  F       1  <O>11      -0.2002
  26 C12       2.3860   -11.6290    -6.0200  C.ar    1  <O>11      -0.0169
  27 H1        1.8178    -8.1059    -6.5115  H       1  <O>11       0.1456
  28 H2        2.2664    -9.5350    -7.2401  H       1  <O>11       0.1456
  29 H3        2.7670    -9.4280    -3.4890  H       1  <O>11       0.1747
  30 H4        1.2283   -13.2595    -8.3124  H       1  <O>11       0.1737
  31 H5        1.5194   -11.4031    -2.7824  H       1  <O>11       0.0636
  32 H6        0.5633   -13.5847    -3.2744  H       1  <O>11       0.0619
  33 H7        0.7634   -14.5278    -5.5061  H       1  <O>11       0.0636
  34 H8        2.8716   -11.1000    -6.7612  H       1  <O>11       0.0655
@<TRIPOS>BOND
     1     1     2    1
     2     2     3    2
     3     2     4    2
     4     2     5    1
     5     5     6    1
     6     6     7   ar
     7     7     8   ar
     8     8     9   ar
     9     9    10   ar
    10    10    11    1
    11    11    12    1
    12    12    13    2
    13    12    14    2
    14    12    15    1
    15    15    16   ar
    16    16    17    1
    17    16    18   ar
    18    18    19    1
    19    18    20   ar
    20    20    21    1
    21    20    22   ar
    22    22    23    1
    23    22    24   ar
    24    15    24   ar
    25    24    25    1
    26    10    26   ar
    27     6    26   ar
    28     1    27    1
    29     1    28    1
    30     5    29    1
    31    11    30    1
    32     7    31    1
    33     8    32    1
    34     9    33    1
    35    26    34    1
@<TRIPOS>MOLECULE
mol91_1_28
 34 35 0 0 0
SMALL
USER_CHARGES
****
VDW energy = -412.53
@<TRIPOS>ATOM
   1 N1        2.6068    -8.6548    -6.8531  N.3     1  <O>11      -0.1906
   2 S1        3.6427    -8.9662    -5.6045  S.O2    1  <O>11       0.1067
   3 O1        4.9274    -9.8601    -6.1608  O.2     1  <O>11      -0.1383
   4 O2        4.1969    -7.5329    -4.9742  O.2     1  <O>11      -0.1383
   5 N2        2.8490    -9.8140    -4.4290  N.pl3   1  <O>11      -0.2067
   6 C1        2.2740   -11.1000    -4.7330  C.ar    1  <O>11       0.0508
   7 C2        1.6060   -11.8050    -3.7290  C.ar    1  <O>11      -0.0392
   8 C3        1.0550   -13.0590    -4.0140  C.ar    1  <O>11      -0.0582
   9 C4        1.1680   -13.6020    -5.2960  C.ar    1  <O>11      -0.0392
  10 C5        1.8340   -12.8810    -6.2930  C.ar    1  <O>11       0.0498
  11 N3        1.9480   -13.4460    -7.6140  N.pl3   1  <O>11      -0.2160
  12 S2        3.2461   -14.3928    -7.9979  S.O2    1  <O>11       0.0780
  13 O3        4.6452   -13.5168    -7.8145  O.2     1  <O>11      -0.1498
  14 O4        3.1135   -14.9017    -9.5738  O.2     1  <O>11      -0.1498
  15 C6        3.2871   -15.8010    -6.9250  C.ar    1  <O>11       0.1843
  16 C7        3.3950   -15.6300    -5.5357  C.ar    1  <O>11       0.1907
  17 F1        3.4600   -14.3663    -5.0080  F       1  <O>11      -0.2002
  18 C8        3.4407   -16.7437    -4.6883  C.ar    1  <O>11       0.1983
  19 F2        3.5488   -16.5659    -3.3343  F       1  <O>11      -0.1993
  20 C9        3.3737   -18.0337    -5.2211  C.ar    1  <O>11       0.1992
  21 F3        3.4196   -19.1286    -4.3977  F       1  <O>11      -0.1993
  22 C10       3.2583   -18.2048    -6.6046  C.ar    1  <O>11       0.1983
  23 F4        3.1906   -19.4719    -7.1214  F       1  <O>11      -0.1993
  24 C11       3.2119   -17.0995    -7.4583  C.ar    1  <O>11       0.1907
  25 F5        3.0919   -17.2660    -8.8138  F       1  <O>11      -0.2002
  26 C12       2.3860   -11.6290    -6.0200  C.ar    1  <O>11      -0.0169
  27 H1        1.8178    -8.1059    -6.5115  H       1  <O>11       0.1456
  28 H2        2.2664    -9.5350    -7.2401  H       1  <O>11       0.1456
  29 H3        2.7670    -9.4280    -3.4890  H       1  <O>11       0.1747
  30 H4        1.2283   -13.2595    -8.3124  H       1  <O>11       0.1737
  31 H5        1.5194   -11.4031    -2.7824  H       1  <O>11       0.0636
  32 H6        0.5633   -13.5847    -3.2744  H       1  <O>11       0.0619
  33 H7        0.7634   -14.5278    -5.5061  H       1  <O>11       0.0636
  34 H8        2.8716   -11.1000    -6.7612  H       1  <O>11       0.0655
@<TRIPOS>BOND
     1     1     2    1
     2     2     3    2
     3     2     4    2
     4     2     5    1
     5     5     6    1
     6     6     7   ar
     7     7     8   ar
     8     8     9   ar
     9     9    10   ar
    10    10    11    1
    11    11    12    1
    12    12    13    2
    13    12    14    2
    14    12    15    1
    15    15    16   ar
    16    16    17    1
    17    16    18   ar
    18    18    19    1
    19    18    20   ar
    20    20    21    1
    21    20    22   ar
    22    22    23    1
    23    22    24   ar
    24    15    24   ar
    25    24    25    1
    26    10    26   ar
    27     6    26   ar
    28     1    27    1
    29     1    28    1
    30     5    29    1
    31    11    30    1
    32     7    31    1
    33     8    32    1
    34     9    33    1
    35    26    34    1
@<TRIPOS>MOLECULE
mol91_1_29
 34 35 0 0 0
SMALL
USER_CHARGES
****
VDW energy = -409.67
@<TRIPOS>ATOM
   1 N1        2.6068    -8.6548    -6.8531  N.3     1  <O>11      -0.1906
   2 S1        3.6427    -8.9662    -5.6045  S.O2    1  <O>11       0.1067
   3 O1        4.9274    -9.8601    -6.1608  O.2     1  <O>11      -0.1383
   4 O2        4.1969    -7.5329    -4.9742  O.2     1  <O>11      -0.1383
   5 N2        2.8490    -9.8140    -4.4290  N.pl3   1  <O>11      -0.2067
   6 C1        1.6911    -9.2439    -3.7879  C.ar    1  <O>11       0.0508
   7 C2        1.0305    -9.9724    -2.7959  C.ar    1  <O>11      -0.0392
   8 C3       -0.1009    -9.4299    -2.1771  C.ar    1  <O>11      -0.0582
   9 C4       -0.5656    -8.1652    -2.5454  C.ar    1  <O>11      -0.0392
  10 C5        0.1106    -7.4446    -3.5358  C.ar    1  <O>11       0.0498
  11 N3       -0.3734    -6.1402    -3.9122  N.pl3   1  <O>11      -0.2160
  12 S2        0.4116    -5.2733    -5.0790  S.O2    1  <O>11       0.0780
  13 O3        0.4055    -6.1277    -6.5033  O.2     1  <O>11      -0.1498
  14 O4        1.9797    -4.9989    -4.6041  O.2     1  <O>11      -0.1498
  15 C6       -0.4121    -3.7240    -5.3174  C.ar    1  <O>11       0.1843
  16 C7        0.0688    -2.8042    -6.2627  C.ar    1  <O>11       0.1907
  17 F1        1.1760    -3.1119    -7.0103  F       1  <O>11      -0.2002
  18 C8       -0.5748    -1.5737    -6.4419  C.ar    1  <O>11       0.1983
  19 F2       -0.0959    -0.6821    -7.3651  F       1  <O>11      -0.1993
  20 C9       -1.7044    -1.2558    -5.6834  C.ar    1  <O>11       0.1992
  21 F3       -2.3384    -0.0523    -5.8522  F       1  <O>11      -0.1993
  22 C10      -2.1888    -2.1748    -4.7467  C.ar    1  <O>11       0.1983
  23 F4       -3.2982    -1.8589    -4.0072  F       1  <O>11      -0.1993
  24 C11      -1.5533    -3.4054    -4.5608  C.ar    1  <O>11       0.1907
  25 F5       -2.0314    -4.3097    -3.6479  F       1  <O>11      -0.2002
  26 C12       1.2406    -7.9756    -4.1584  C.ar    1  <O>11      -0.0169
  27 H1        1.8178    -8.1059    -6.5115  H       1  <O>11       0.1456
  28 H2        2.2664    -9.5350    -7.2401  H       1  <O>11       0.1456
  29 H3        3.1777   -10.7403    -4.1582  H       1  <O>11       0.1747
  30 H4       -1.1991    -5.7515    -3.4568  H       1  <O>11       0.1737
  31 H5        1.3751   -10.9056    -2.5210  H       1  <O>11       0.0636
  32 H6       -0.5939    -9.9660    -1.4458  H       1  <O>11       0.0619
  33 H7       -1.4013    -7.7655    -2.0905  H       1  <O>11       0.0636
  34 H8        1.7379    -7.4368    -4.8847  H       1  <O>11       0.0655
@<TRIPOS>BOND
     1     1     2    1
     2     2     3    2
     3     2     4    2
     4     2     5    1
     5     5     6    1
     6     6     7   ar
     7     7     8   ar
     8     8     9   ar
     9     9    10   ar
    10    10    11    1
    11    11    12    1
    12    12    13    2
    13    12    14    2
    14    12    15    1
    15    15    16   ar
    16    16    17    1
    17    16    18   ar
    18    18    19    1
    19    18    20   ar
    20    20    21    1
    21    20    22   ar
    22    22    23    1
    23    22    24   ar
    24    15    24   ar
    25    24    25    1
    26    10    26   ar
    27     6    26   ar
    28     1    27    1
    29     1    28    1
    30     5    29    1
    31    11    30    1
    32     7    31    1
    33     8    32    1
    34     9    33    1
    35    26    34    1
@<TRIPOS>MOLECULE
mol91_1_30
 34 35 0 0 0
SMALL
USER_CHARGES
****
VDW energy = -409.48
@<TRIPOS>ATOM
   1 N1        2.6068    -8.6548    -6.8531  N.3     1  <O>11      -0.1906
   2 S1        3.6427    -8.9662    -5.6045  S.O2    1  <O>11       0.1067
   3 O1        4.9274    -9.8601    -6.1608  O.2     1  <O>11      -0.1383
   4 O2        4.1969    -7.5329    -4.9742  O.2     1  <O>11      -0.1383
   5 N2        2.8490    -9.8140    -4.4290  N.pl3   1  <O>11      -0.2067
   6 C1        2.2740   -11.1000    -4.7330  C.ar    1  <O>11       0.0508
   7 C2        1.6060   -11.8050    -3.7290  C.ar    1  <O>11      -0.0392
   8 C3        1.0550   -13.0590    -4.0140  C.ar    1  <O>11      -0.0582
   9 C4        1.1680   -13.6020    -5.2960  C.ar    1  <O>11      -0.0392
  10 C5        1.8340   -12.8810    -6.2930  C.ar    1  <O>11       0.0498
  11 N3        1.9480   -13.4460    -7.6140  N.pl3   1  <O>11      -0.2160
  12 S2        2.7300   -12.6100    -8.8050  S.O2    1  <O>11       0.0780
  13 O3        4.3040   -12.3380    -8.3500  O.2     1  <O>11      -0.1498
  14 O4        1.9660   -11.1560    -9.0540  O.2     1  <O>11      -0.1498
  15 C6        2.7040   -13.5540   -10.3030  C.ar    1  <O>11       0.1843
  16 C7        3.3081   -13.0525   -11.4668  C.ar    1  <O>11       0.1907
  17 F1        3.9282   -11.8301   -11.4398  F       1  <O>11      -0.2002
  18 C8        3.2761   -13.7930   -12.6547  C.ar    1  <O>11       0.1983
  19 F2        3.8662   -13.2934   -13.7855  F       1  <O>11      -0.1993
  20 C9        2.6464   -15.0400   -12.6872  C.ar    1  <O>11       0.1992
  21 F3        2.6097   -15.7697   -13.8470  F       1  <O>11      -0.1993
  22 C10       2.0511   -15.5439   -11.5261  C.ar    1  <O>11       0.1983
  23 F4        1.4370   -16.7682   -11.5630  F       1  <O>11      -0.1993
  24 C11       2.0778   -14.8122   -10.3359  C.ar    1  <O>11       0.1907
  25 F5        1.5006   -15.3083    -9.1956  F       1  <O>11      -0.2002
  26 C12       2.3860   -11.6290    -6.0200  C.ar    1  <O>11      -0.0169
  27 H1        1.8178    -8.1059    -6.5115  H       1  <O>11       0.1456
  28 H2        2.2664    -9.5350    -7.2401  H       1  <O>11       0.1456
  29 H3        2.7670    -9.4280    -3.4890  H       1  <O>11       0.1747
  30 H4        1.5440   -14.3610    -7.8140  H       1  <O>11       0.1737
  31 H5        1.5194   -11.4031    -2.7824  H       1  <O>11       0.0636
  32 H6        0.5633   -13.5847    -3.2744  H       1  <O>11       0.0619
  33 H7        0.7634   -14.5278    -5.5061  H       1  <O>11       0.0636
  34 H8        2.8716   -11.1000    -6.7612  H       1  <O>11       0.0655
@<TRIPOS>BOND
     1     1     2    1
     2     2     3    2
     3     2     4    2
     4     2     5    1
     5     5     6    1
     6     6     7   ar
     7     7     8   ar
     8     8     9   ar
     9     9    10   ar
    10    10    11    1
    11    11    12    1
    12    12    13    2
    13    12    14    2
    14    12    15    1
    15    15    16   ar
    16    16    17    1
    17    16    18   ar
    18    18    19    1
    19    18    20   ar
    20    20    21    1
    21    20    22   ar
    22    22    23    1
    23    22    24   ar
    24    15    24   ar
    25    24    25    1
    26    10    26   ar
    27     6    26   ar
    28     1    27    1
    29     1    28    1
    30     5    29    1
    31    11    30    1
    32     7    31    1
    33     8    32    1
    34     9    33    1
    35    26    34    1
@<TRIPOS>MOLECULE
mol91_2_1
 34 35 0 0 0
SMALL
USER_CHARGES
****
VDW energy = -437.24
@<TRIPOS>ATOM
   1 N1        2.6068    -8.6548    -6.8531  N.3     1  <O>11      -0.1906
   2 S1        3.6427    -8.9662    -5.6045  S.O2    1  <O>11       0.1067
   3 O1        4.9274    -9.8601    -6.1608  O.2     1  <O>11      -0.1383
   4 O2        4.1969    -7.5329    -4.9742  O.2     1  <O>11      -0.1383
   5 N2        2.8490    -9.8140    -4.4290  N.pl3   1  <O>11      -0.2067
   6 C1        1.6911    -9.2439    -3.7879  C.ar    1  <O>11       0.0508
   7 C2        0.4251    -9.4765    -4.3304  C.ar    1  <O>11      -0.0392
   8 C3       -0.7025    -8.9170    -3.7197  C.ar    1  <O>11      -0.0582
   9 C4       -0.5645    -8.1334    -2.5716  C.ar    1  <O>11      -0.0392
  10 C5        0.7093    -7.9149    -2.0360  C.ar    1  <O>11       0.0498
  11 N3        0.8461    -7.1055    -0.8513  N.pl3   1  <O>11      -0.2160
  12 S2        1.0666    -5.4735    -0.9867  S.O2    1  <O>11       0.0780
  13 O3        1.1899    -4.8041     0.5287  O.2     1  <O>11      -0.1498
  14 O4       -0.2282    -4.8040    -1.7832  O.2     1  <O>11      -0.1498
  15 C6        2.5502    -5.1521    -1.8979  C.ar    1  <O>11       0.1843
  16 C7        3.7878    -5.6203    -1.4250  C.ar    1  <O>11       0.1907
  17 F1        3.8424    -6.3391    -0.2584  F       1  <O>11      -0.2002
  18 C8        4.9604    -5.3565    -2.1400  C.ar    1  <O>11       0.1983
  19 F2        6.1630    -5.8141    -1.6654  F       1  <O>11      -0.1993
  20 C9        4.9111    -4.6271    -3.3309  C.ar    1  <O>11       0.1992
  21 F3        6.0583    -4.3627    -4.0334  F       1  <O>11      -0.1993
  22 C10       3.6772    -4.1671    -3.8041  C.ar    1  <O>11       0.1983
  23 F4        3.6339    -3.4537    -4.9750  F       1  <O>11      -0.1993
  24 C11       2.5002    -4.4275    -3.1006  C.ar    1  <O>11       0.1907
  25 F5        1.2917    -3.9818    -3.5675  F       1  <O>11      -0.2002
  26 C12       1.8404    -8.4693    -2.6361  C.ar    1  <O>11      -0.0169
  27 H1        1.8178    -8.1059    -6.5115  H       1  <O>11       0.1456
  28 H2        2.2664    -9.5350    -7.2401  H       1  <O>11       0.1456
  29 H3        3.1777   -10.7403    -4.1582  H       1  <O>11       0.1747
  30 H4        0.8055    -7.5393     0.0710  H       1  <O>11       0.1737
  31 H5        0.3220   -10.0579    -5.1769  H       1  <O>11       0.0636
  32 H6       -1.6395    -9.0837    -4.1190  H       1  <O>11       0.0619
  33 H7       -1.3958    -7.7189    -2.1220  H       1  <O>11       0.0636
  34 H8        2.7767    -8.3085    -2.2331  H       1  <O>11       0.0655
@<TRIPOS>BOND
     1     1     2    1
     2     2     3    2
     3     2     4    2
     4     2     5    1
     5     5     6    1
     6     6     7   ar
     7     7     8   ar
     8     8     9   ar
     9     9    10   ar
    10    10    11    1
    11    11    12    1
    12    12    13    2
    13    12    14    2
    14    12    15    1
    15    15    16   ar
    16    16    17    1
    17    16    18   ar
    18    18    19    1
    19    18    20   ar
    20    20    21    1
    21    20    22   ar
    22    22    23    1
    23    22    24   ar
    24    15    24   ar
    25    24    25    1
    26    10    26   ar
    27     6    26   ar
    28     1    27    1
    29     1    28    1
    30     5    29    1
    31    11    30    1
    32     7    31    1
    33     8    32    1
    34     9    33    1
    35    26    34    1
@<TRIPOS>MOLECULE
mol91_2_2
 34 35 0 0 0
SMALL
USER_CHARGES
****
VDW energy = -430.72
@<TRIPOS>ATOM
   1 N1        2.6068    -8.6548    -6.8531  N.3     1  <O>11      -0.1906
   2 S1        3.6427    -8.9662    -5.6045  S.O2    1  <O>11       0.1067
   3 O1        4.9274    -9.8601    -6.1608  O.2     1  <O>11      -0.1383
   4 O2        4.1969    -7.5329    -4.9742  O.2     1  <O>11      -0.1383
   5 N2        2.8490    -9.8140    -4.4290  N.pl3   1  <O>11      -0.2067
   6 C1        3.5455   -10.2063    -3.2299  C.ar    1  <O>11       0.0508
   7 C2        4.5911   -11.1285    -3.3170  C.ar    1  <O>11      -0.0392
   8 C3        5.2644   -11.5224    -2.1556  C.ar    1  <O>11      -0.0582
   9 C4        4.8967   -10.9939    -0.9160  C.ar    1  <O>11      -0.0392
  10 C5        3.8520   -10.0660    -0.8455  C.ar    1  <O>11       0.0498
  11 N3        3.4765    -9.5240     0.4361  N.pl3   1  <O>11      -0.2160
  12 S2        2.3250   -10.2808     1.3480  S.O2    1  <O>11       0.0780
  13 O3        2.8217   -11.8277     1.6942  O.2     1  <O>11      -0.1498
  14 O4        0.8964   -10.3350     0.5022  O.2     1  <O>11      -0.1498
  15 C6        2.0841    -9.3853     2.8562  C.ar    1  <O>11       0.1843
  16 C7        1.6920   -10.0589     4.0254  C.ar    1  <O>11       0.1907
  17 F1        1.5072   -11.4175     3.9982  F       1  <O>11      -0.2002
  18 C8        1.4914    -9.3490     5.2135  C.ar    1  <O>11       0.1983
  19 F2        1.1035   -10.0169     6.3468  F       1  <O>11      -0.1993
  20 C9        1.6809    -7.9650     5.2485  C.ar    1  <O>11       0.1992
  21 F3        1.4819    -7.2641     6.4098  F       1  <O>11      -0.1993
  22 C10       2.0778    -7.2964     4.0851  C.ar    1  <O>11       0.1983
  23 F4        2.2648    -5.9379     4.1253  F       1  <O>11      -0.1993
  24 C11       2.2842    -7.9951     2.8947  C.ar    1  <O>11       0.1907
  25 F5        2.6785    -7.3407     1.7574  F       1  <O>11      -0.2002
  26 C12       3.1748    -9.6652    -1.9976  C.ar    1  <O>11      -0.0169
  27 H1        1.8178    -8.1059    -6.5115  H       1  <O>11       0.1456
  28 H2        2.2664    -9.5350    -7.2401  H       1  <O>11       0.1456
  29 H3        1.8669   -10.0585    -4.5515  H       1  <O>11       0.1747
  30 H4        3.9223    -8.6738     0.7814  H       1  <O>11       0.1737
  31 H5        4.8653   -11.5171    -4.2330  H       1  <O>11       0.0636
  32 H6        6.0354   -12.2058    -2.2150  H       1  <O>11       0.0619
  33 H7        5.3918   -11.2856    -0.0589  H       1  <O>11       0.0636
  34 H8        2.4084    -8.9765    -1.9394  H       1  <O>11       0.0655
@<TRIPOS>BOND
     1     1     2    1
     2     2     3    2
     3     2     4    2
     4     2     5    1
     5     5     6    1
     6     6     7   ar
     7     7     8   ar
     8     8     9   ar
     9     9    10   ar
    10    10    11    1
    11    11    12    1
    12    12    13    2
    13    12    14    2
    14    12    15    1
    15    15    16   ar
    16    16    17    1
    17    16    18   ar
    18    18    19    1
    19    18    20   ar
    20    20    21    1
    21    20    22   ar
    22    22    23    1
    23    22    24   ar
    24    15    24   ar
    25    24    25    1
    26    10    26   ar
    27     6    26   ar
    28     1    27    1
    29     1    28    1
    30     5    29    1
    31    11    30    1
    32     7    31    1
    33     8    32    1
    34     9    33    1
    35    26    34    1
@<TRIPOS>MOLECULE
mol91_2_3
 34 35 0 0 0
SMALL
USER_CHARGES
****
VDW energy = -430.68
@<TRIPOS>ATOM
   1 N1        2.6068    -8.6548    -6.8531  N.3     1  <O>11      -0.1906
   2 S1        3.6427    -8.9662    -5.6045  S.O2    1  <O>11       0.1067
   3 O1        4.9274    -9.8601    -6.1608  O.2     1  <O>11      -0.1383
   4 O2        4.1969    -7.5329    -4.9742  O.2     1  <O>11      -0.1383
   5 N2        2.8490    -9.8140    -4.4290  N.pl3   1  <O>11      -0.2067
   6 C1        2.2740   -11.1000    -4.7330  C.ar    1  <O>11       0.0508
   7 C2        3.1160   -12.1653    -5.0608  C.ar    1  <O>11      -0.0392
   8 C3        2.5641   -13.4137    -5.3680  C.ar    1  <O>11      -0.0582
   9 C4        1.1795   -13.5960    -5.3432  C.ar    1  <O>11      -0.0392
  10 C5        0.3494   -12.5213    -5.0063  C.ar    1  <O>11       0.0498
  11 N3       -1.0787   -12.7148    -4.9825  N.pl3   1  <O>11      -0.2160
  12 S2       -1.9712   -12.4504    -6.3478  S.O2    1  <O>11       0.0780
  13 O3       -1.4478   -13.4634    -7.5559  O.2     1  <O>11      -0.1498
  14 O4       -1.7883   -10.8720    -6.8318  O.2     1  <O>11      -0.1498
  15 C6       -3.6791   -12.7689    -6.0071  C.ar    1  <O>11       0.1843
  16 C7       -4.0907   -14.0421    -5.5779  C.ar    1  <O>11       0.1907
  17 F1       -3.1617   -15.0371    -5.4117  F       1  <O>11      -0.2002
  18 C8       -5.4415   -14.2955    -5.3195  C.ar    1  <O>11       0.1983
  19 F2       -5.8317   -15.5437    -4.9063  F       1  <O>11      -0.1993
  20 C9       -6.3926   -13.2850    -5.4841  C.ar    1  <O>11       0.1992
  21 F3       -7.7185   -13.5297    -5.2357  F       1  <O>11      -0.1993
  22 C10      -5.9805   -12.0159    -5.9052  C.ar    1  <O>11       0.1983
  23 F4       -6.9178   -11.0266    -6.0629  F       1  <O>11      -0.1993
  24 C11      -4.6346   -11.7506    -6.1626  C.ar    1  <O>11       0.1907
  25 F5       -4.2310   -10.5061    -6.5692  F       1  <O>11      -0.2002
  26 C12       0.8892   -11.2725    -4.6970  C.ar    1  <O>11      -0.0169
  27 H1        1.8178    -8.1059    -6.5115  H       1  <O>11       0.1456
  28 H2        2.2664    -9.5350    -7.2401  H       1  <O>11       0.1456
  29 H3        2.7670    -9.4280    -3.4890  H       1  <O>11       0.1747
  30 H4       -1.5389   -13.0161    -4.1234  H       1  <O>11       0.1737
  31 H5        4.1393   -12.0322    -5.0763  H       1  <O>11       0.0636
  32 H6        3.1823   -14.2027    -5.6137  H       1  <O>11       0.0619
  33 H7        0.7720   -14.5162    -5.5716  H       1  <O>11       0.0636
  34 H8        0.2717   -10.4852    -4.4443  H       1  <O>11       0.0655
@<TRIPOS>BOND
     1     1     2    1
     2     2     3    2
     3     2     4    2
     4     2     5    1
     5     5     6    1
     6     6     7   ar
     7     7     8   ar
     8     8     9   ar
     9     9    10   ar
    10    10    11    1
    11    11    12    1
    12    12    13    2
    13    12    14    2
    14    12    15    1
    15    15    16   ar
    16    16    17    1
    17    16    18   ar
    18    18    19    1
    19    18    20   ar
    20    20    21    1
    21    20    22   ar
    22    22    23    1
    23    22    24   ar
    24    15    24   ar
    25    24    25    1
    26    10    26   ar
    27     6    26   ar
    28     1    27    1
    29     1    28    1
    30     5    29    1
    31    11    30    1
    32     7    31    1
    33     8    32    1
    34     9    33    1
    35    26    34    1
@<TRIPOS>MOLECULE
mol91_2_4
 34 35 0 0 0
SMALL
USER_CHARGES
****
VDW energy = -429.40
@<TRIPOS>ATOM
   1 N1        2.6068    -8.6548    -6.8531  N.3     1  <O>11      -0.1906
   2 S1        3.6427    -8.9662    -5.6045  S.O2    1  <O>11       0.1067
   3 O1        4.9274    -9.8601    -6.1608  O.2     1  <O>11      -0.1383
   4 O2        4.1969    -7.5329    -4.9742  O.2     1  <O>11      -0.1383
   5 N2        2.8490    -9.8140    -4.4290  N.pl3   1  <O>11      -0.2067
   6 C1        2.2740   -11.1000    -4.7330  C.ar    1  <O>11       0.0508
   7 C2        3.1160   -12.1653    -5.0608  C.ar    1  <O>11      -0.0392
   8 C3        2.5641   -13.4137    -5.3680  C.ar    1  <O>11      -0.0582
   9 C4        1.1795   -13.5960    -5.3432  C.ar    1  <O>11      -0.0392
  10 C5        0.3494   -12.5213    -5.0063  C.ar    1  <O>11       0.0498
  11 N3       -1.0787   -12.7148    -4.9825  N.pl3   1  <O>11      -0.2160
  12 S2       -1.8914   -13.0440    -6.3831  S.O2    1  <O>11       0.0780
  13 O3       -1.3050   -14.4498    -7.0459  O.2     1  <O>11      -0.1498
  14 O4       -1.6745   -11.7944    -7.4558  O.2     1  <O>11      -0.1498
  15 C6       -3.6172   -13.2292    -6.0342  C.ar    1  <O>11       0.1843
  16 C7       -4.4118   -14.0804    -6.8207  C.ar    1  <O>11       0.1907
  17 F1       -3.8430   -14.7785    -7.8551  F       1  <O>11      -0.2002
  18 C8       -5.7772   -14.2176    -6.5510  C.ar    1  <O>11       0.1983
  19 F2       -6.5434   -15.0472    -7.3292  F       1  <O>11      -0.1993
  20 C9       -6.3621   -13.5113    -5.4967  C.ar    1  <O>11       0.1992
  21 F3       -7.7009   -13.6395    -5.2307  F       1  <O>11      -0.1993
  22 C10      -5.5684   -12.6691    -4.7102  C.ar    1  <O>11       0.1983
  23 F4       -6.1469   -11.9797    -3.6748  F       1  <O>11      -0.1993
  24 C11      -4.2040   -12.5271    -4.9680  C.ar    1  <O>11       0.1907
  25 F5       -3.4263   -11.7069    -4.1938  F       1  <O>11      -0.2002
  26 C12       0.8892   -11.2725    -4.6970  C.ar    1  <O>11      -0.0169
  27 H1        1.8178    -8.1059    -6.5115  H       1  <O>11       0.1456
  28 H2        2.2664    -9.5350    -7.2401  H       1  <O>11       0.1456
  29 H3        2.7670    -9.4280    -3.4890  H       1  <O>11       0.1747
  30 H4       -1.5881   -12.6498    -4.1011  H       1  <O>11       0.1737
  31 H5        4.1393   -12.0322    -5.0763  H       1  <O>11       0.0636
  32 H6        3.1823   -14.2027    -5.6137  H       1  <O>11       0.0619
  33 H7        0.7720   -14.5162    -5.5716  H       1  <O>11       0.0636
  34 H8        0.2717   -10.4852    -4.4443  H       1  <O>11       0.0655
@<TRIPOS>BOND
     1     1     2    1
     2     2     3    2
     3     2     4    2
     4     2     5    1
     5     5     6    1
     6     6     7   ar
     7     7     8   ar
     8     8     9   ar
     9     9    10   ar
    10    10    11    1
    11    11    12    1
    12    12    13    2
    13    12    14    2
    14    12    15    1
    15    15    16   ar
    16    16    17    1
    17    16    18   ar
    18    18    19    1
    19    18    20   ar
    20    20    21    1
    21    20    22   ar
    22    22    23    1
    23    22    24   ar
    24    15    24   ar
    25    24    25    1
    26    10    26   ar
    27     6    26   ar
    28     1    27    1
    29     1    28    1
    30     5    29    1
    31    11    30    1
    32     7    31    1
    33     8    32    1
    34     9    33    1
    35    26    34    1
@<TRIPOS>MOLECULE
mol91_2_5
 34 35 0 0 0
SMALL
USER_CHARGES
****
VDW energy = -428.89
@<TRIPOS>ATOM
   1 N1        2.6068    -8.6548    -6.8531  N.3     1  <O>11      -0.1906
   2 S1        3.6427    -8.9662    -5.6045  S.O2    1  <O>11       0.1067
   3 O1        4.9274    -9.8601    -6.1608  O.2     1  <O>11      -0.1383
   4 O2        4.1969    -7.5329    -4.9742  O.2     1  <O>11      -0.1383
   5 N2        2.8490    -9.8140    -4.4290  N.pl3   1  <O>11      -0.2067
   6 C1        2.2740   -11.1000    -4.7330  C.ar    1  <O>11       0.0508
   7 C2        3.1160   -12.1653    -5.0608  C.ar    1  <O>11      -0.0392
   8 C3        2.5641   -13.4137    -5.3680  C.ar    1  <O>11      -0.0582
   9 C4        1.1795   -13.5960    -5.3432  C.ar    1  <O>11      -0.0392
  10 C5        0.3494   -12.5213    -5.0063  C.ar    1  <O>11       0.0498
  11 N3       -1.0787   -12.7148    -4.9825  N.pl3   1  <O>11      -0.2160
  12 S2       -1.7567   -13.7284    -3.8676  S.O2    1  <O>11       0.0780
  13 O3       -3.4049   -13.7547    -4.0736  O.2     1  <O>11      -0.1498
  14 O4       -1.3992   -13.1879    -2.3381  O.2     1  <O>11      -0.1498
  15 C6       -1.1075   -15.3614    -4.0829  C.ar    1  <O>11       0.1843
  16 C7       -1.2815   -16.0382    -5.3020  C.ar    1  <O>11       0.1907
  17 F1       -1.9473   -15.4243    -6.3318  F       1  <O>11      -0.2002
  18 C8       -0.7777   -17.3323    -5.4673  C.ar    1  <O>11       0.1983
  19 F2       -0.9586   -17.9846    -6.6600  F       1  <O>11      -0.1993
  20 C9       -0.0958   -17.9622    -4.4228  C.ar    1  <O>11       0.1992
  21 F3        0.3967   -19.2321    -4.5787  F       1  <O>11      -0.1993
  22 C10       0.0826   -17.2846    -3.2116  C.ar    1  <O>11       0.1983
  23 F4        0.7548   -17.9064    -2.1902  F       1  <O>11      -0.1993
  24 C11      -0.4129   -15.9916    -3.0366  C.ar    1  <O>11       0.1907
  25 F5       -0.2329   -15.3264    -1.8525  F       1  <O>11      -0.2002
  26 C12       0.8892   -11.2725    -4.6970  C.ar    1  <O>11      -0.0169
  27 H1        1.8178    -8.1059    -6.5115  H       1  <O>11       0.1456
  28 H2        2.2664    -9.5350    -7.2401  H       1  <O>11       0.1456
  29 H3        2.7670    -9.4280    -3.4890  H       1  <O>11       0.1747
  30 H4       -1.6715   -12.2251    -5.6529  H       1  <O>11       0.1737
  31 H5        4.1393   -12.0322    -5.0763  H       1  <O>11       0.0636
  32 H6        3.1823   -14.2027    -5.6137  H       1  <O>11       0.0619
  33 H7        0.7720   -14.5162    -5.5716  H       1  <O>11       0.0636
  34 H8        0.2717   -10.4852    -4.4443  H       1  <O>11       0.0655
@<TRIPOS>BOND
     1     1     2    1
     2     2     3    2
     3     2     4    2
     4     2     5    1
     5     5     6    1
     6     6     7   ar
     7     7     8   ar
     8     8     9   ar
     9     9    10   ar
    10    10    11    1
    11    11    12    1
    12    12    13    2
    13    12    14    2
    14    12    15    1
    15    15    16   ar
    16    16    17    1
    17    16    18   ar
    18    18    19    1
    19    18    20   ar
    20    20    21    1
    21    20    22   ar
    22    22    23    1
    23    22    24   ar
    24    15    24   ar
    25    24    25    1
    26    10    26   ar
    27     6    26   ar
    28     1    27    1
    29     1    28    1
    30     5    29    1
    31    11    30    1
    32     7    31    1
    33     8    32    1
    34     9    33    1
    35    26    34    1
@<TRIPOS>MOLECULE
mol91_2_6
 34 35 0 0 0
SMALL
USER_CHARGES
****
VDW energy = -428.67
@<TRIPOS>ATOM
   1 N1        2.6068    -8.6548    -6.8531  N.3     1  <O>11      -0.1906
   2 S1        3.6427    -8.9662    -5.6045  S.O2    1  <O>11       0.1067
   3 O1        4.9274    -9.8601    -6.1608  O.2     1  <O>11      -0.1383
   4 O2        4.1969    -7.5329    -4.9742  O.2     1  <O>11      -0.1383
   5 N2        2.8490    -9.8140    -4.4290  N.pl3   1  <O>11      -0.2067
   6 C1        2.2740   -11.1000    -4.7330  C.ar    1  <O>11       0.0508
   7 C2        3.1160   -12.1653    -5.0608  C.ar    1  <O>11      -0.0392
   8 C3        2.5641   -13.4137    -5.3680  C.ar    1  <O>11      -0.0582
   9 C4        1.1795   -13.5960    -5.3432  C.ar    1  <O>11      -0.0392
  10 C5        0.3494   -12.5213    -5.0063  C.ar    1  <O>11       0.0498
  11 N3       -1.0787   -12.7148    -4.9825  N.pl3   1  <O>11      -0.2160
  12 S2       -1.8914   -13.0440    -6.3831  S.O2    1  <O>11       0.0780
  13 O3       -1.3050   -14.4498    -7.0459  O.2     1  <O>11      -0.1498
  14 O4       -1.6745   -11.7944    -7.4558  O.2     1  <O>11      -0.1498
  15 C6       -3.6172   -13.2292    -6.0342  C.ar    1  <O>11       0.1843
  16 C7       -4.0580   -14.2263    -5.1477  C.ar    1  <O>11       0.1907
  17 F1       -3.1443   -15.0506    -4.5424  F       1  <O>11      -0.2002
  18 C8       -5.4224   -14.3787    -4.8813  C.ar    1  <O>11       0.1983
  19 F2       -5.8407   -15.3592    -4.0183  F       1  <O>11      -0.1993
  20 C9       -6.3582   -13.5402    -5.4926  C.ar    1  <O>11       0.1992
  21 F3       -7.6970   -13.6881    -5.2375  F       1  <O>11      -0.1993
  22 C10      -5.9174   -12.5434    -6.3701  C.ar    1  <O>11       0.1983
  23 F4       -6.8399   -11.7211    -6.9658  F       1  <O>11      -0.1993
  24 C11      -4.5579   -12.3798    -6.6407  C.ar    1  <O>11       0.1907
  25 F5       -4.1265   -11.3999    -7.4954  F       1  <O>11      -0.2002
  26 C12       0.8892   -11.2725    -4.6970  C.ar    1  <O>11      -0.0169
  27 H1        1.8178    -8.1059    -6.5115  H       1  <O>11       0.1456
  28 H2        2.2664    -9.5350    -7.2401  H       1  <O>11       0.1456
  29 H3        2.7670    -9.4280    -3.4890  H       1  <O>11       0.1747
  30 H4       -1.5881   -12.6498    -4.1011  H       1  <O>11       0.1737
  31 H5        4.1393   -12.0322    -5.0763  H       1  <O>11       0.0636
  32 H6        3.1823   -14.2027    -5.6137  H       1  <O>11       0.0619
  33 H7        0.7720   -14.5162    -5.5716  H       1  <O>11       0.0636
  34 H8        0.2717   -10.4852    -4.4443  H       1  <O>11       0.0655
@<TRIPOS>BOND
     1     1     2    1
     2     2     3    2
     3     2     4    2
     4     2     5    1
     5     5     6    1
     6     6     7   ar
     7     7     8   ar
     8     8     9   ar
     9     9    10   ar
    10    10    11    1
    11    11    12    1
    12    12    13    2
    13    12    14    2
    14    12    15    1
    15    15    16   ar
    16    16    17    1
    17    16    18   ar
    18    18    19    1
    19    18    20   ar
    20    20    21    1
    21    20    22   ar
    22    22    23    1
    23    22    24   ar
    24    15    24   ar
    25    24    25    1
    26    10    26   ar
    27     6    26   ar
    28     1    27    1
    29     1    28    1
    30     5    29    1
    31    11    30    1
    32     7    31    1
    33     8    32    1
    34     9    33    1
    35    26    34    1
@<TRIPOS>MOLECULE
mol91_2_7
 34 35 0 0 0
SMALL
USER_CHARGES
****
VDW energy = -427.84
@<TRIPOS>ATOM
   1 N1        2.6068    -8.6548    -6.8531  N.3     1  <O>11      -0.1906
   2 S1        3.6427    -8.9662    -5.6045  S.O2    1  <O>11       0.1067
   3 O1        4.9274    -9.8601    -6.1608  O.2     1  <O>11      -0.1383
   4 O2        4.1969    -7.5329    -4.9742  O.2     1  <O>11      -0.1383
   5 N2        2.8490    -9.8140    -4.4290  N.pl3   1  <O>11      -0.2067
   6 C1        2.2740   -11.1000    -4.7330  C.ar    1  <O>11       0.0508
   7 C2        3.1160   -12.1653    -5.0608  C.ar    1  <O>11      -0.0392
   8 C3        2.5641   -13.4137    -5.3680  C.ar    1  <O>11      -0.0582
   9 C4        1.1795   -13.5960    -5.3432  C.ar    1  <O>11      -0.0392
  10 C5        0.3494   -12.5213    -5.0063  C.ar    1  <O>11       0.0498
  11 N3       -1.0787   -12.7148    -4.9825  N.pl3   1  <O>11      -0.2160
  12 S2       -1.9712   -12.4504    -6.3478  S.O2    1  <O>11       0.0780
  13 O3       -3.5735   -12.7508    -6.0283  O.2     1  <O>11      -0.1498
  14 O4       -1.4488   -13.4641    -7.5556  O.2     1  <O>11      -0.1498
  15 C6       -1.7760   -10.7681    -6.8639  C.ar    1  <O>11       0.1843
  16 C7       -2.1495    -9.7169    -6.0095  C.ar    1  <O>11       0.1907
  17 F1       -2.6562    -9.9979    -4.7666  F       1  <O>11      -0.2002
  18 C8       -2.0050    -8.3887    -6.4225  C.ar    1  <O>11       0.1983
  19 F2       -2.3782    -7.3714    -5.5817  F       1  <O>11      -0.1993
  20 C9       -1.4865    -8.0957    -7.6866  C.ar    1  <O>11       0.1992
  21 F3       -1.3465    -6.7953    -8.0974  F       1  <O>11      -0.1993
  22 C10      -1.1088    -9.1433    -8.5338  C.ar    1  <O>11       0.1983
  23 F4       -0.5981    -8.8504    -9.7729  F       1  <O>11      -0.1993
  24 C11      -1.2453   -10.4726    -8.1308  C.ar    1  <O>11       0.1907
  25 F5       -0.8699   -11.4978    -8.9585  F       1  <O>11      -0.2002
  26 C12       0.8892   -11.2725    -4.6970  C.ar    1  <O>11      -0.0169
  27 H1        1.8178    -8.1059    -6.5115  H       1  <O>11       0.1456
  28 H2        2.2664    -9.5350    -7.2401  H       1  <O>11       0.1456
  29 H3        2.7670    -9.4280    -3.4890  H       1  <O>11       0.1747
  30 H4       -1.5389   -13.0161    -4.1234  H       1  <O>11       0.1737
  31 H5        4.1393   -12.0322    -5.0763  H       1  <O>11       0.0636
  32 H6        3.1823   -14.2027    -5.6137  H       1  <O>11       0.0619
  33 H7        0.7720   -14.5162    -5.5716  H       1  <O>11       0.0636
  34 H8        0.2717   -10.4852    -4.4443  H       1  <O>11       0.0655
@<TRIPOS>BOND
     1     1     2    1
     2     2     3    2
     3     2     4    2
     4     2     5    1
     5     5     6    1
     6     6     7   ar
     7     7     8   ar
     8     8     9   ar
     9     9    10   ar
    10    10    11    1
    11    11    12    1
    12    12    13    2
    13    12    14    2
    14    12    15    1
    15    15    16   ar
    16    16    17    1
    17    16    18   ar
    18    18    19    1
    19    18    20   ar
    20    20    21    1
    21    20    22   ar
    22    22    23    1
    23    22    24   ar
    24    15    24   ar
    25    24    25    1
    26    10    26   ar
    27     6    26   ar
    28     1    27    1
    29     1    28    1
    30     5    29    1
    31    11    30    1
    32     7    31    1
    33     8    32    1
    34     9    33    1
    35    26    34    1
@<TRIPOS>MOLECULE
mol91_2_8
 34 35 0 0 0
SMALL
USER_CHARGES
****
VDW energy = -427.68
@<TRIPOS>ATOM
   1 N1        2.6068    -8.6548    -6.8531  N.3     1  <O>11      -0.1906
   2 S1        3.6427    -8.9662    -5.6045  S.O2    1  <O>11       0.1067
   3 O1        4.9274    -9.8601    -6.1608  O.2     1  <O>11      -0.1383
   4 O2        4.1969    -7.5329    -4.9742  O.2     1  <O>11      -0.1383
   5 N2        2.8490    -9.8140    -4.4290  N.pl3   1  <O>11      -0.2067
   6 C1        1.6911    -9.2439    -3.7879  C.ar    1  <O>11       0.0508
   7 C2        0.5336    -9.0227    -4.5379  C.ar    1  <O>11      -0.0392
   8 C3       -0.5906    -8.4592    -3.9248  C.ar    1  <O>11      -0.0582
   9 C4       -0.5582    -8.1232    -2.5694  C.ar    1  <O>11      -0.0392
  10 C5        0.6060    -8.3569    -1.8296  C.ar    1  <O>11       0.0498
  11 N3        0.6342    -8.0081    -0.4314  N.pl3   1  <O>11      -0.2160
  12 S2       -0.3367    -8.8084     0.6396  S.O2    1  <O>11       0.0780
  13 O3       -0.0941    -8.2017     2.1669  O.2     1  <O>11      -0.1498
  14 O4        0.0360   -10.4271     0.6221  O.2     1  <O>11      -0.1498
  15 C6       -2.0317    -8.5884     0.1779  C.ar    1  <O>11       0.1843
  16 C7       -2.5883    -7.2995     0.1182  C.ar    1  <O>11       0.1907
  17 F1       -1.8098    -6.2083     0.4079  F       1  <O>11      -0.2002
  18 C8       -3.9302    -7.1277    -0.2361  C.ar    1  <O>11       0.1983
  19 F2       -4.4635    -5.8651    -0.2856  F       1  <O>11      -0.1993
  20 C9       -4.7279    -8.2353    -0.5352  C.ar    1  <O>11       0.1992
  21 F3       -6.0449    -8.0722    -0.8793  F       1  <O>11      -0.1993
  22 C10      -4.1707    -9.5177    -0.4817  C.ar    1  <O>11       0.1983
  23 F4       -4.9574   -10.6016    -0.7787  F       1  <O>11      -0.1993
  24 C11      -2.8317    -9.7008    -0.1328  C.ar    1  <O>11       0.1907
  25 F5       -2.2852   -10.9562    -0.0863  F       1  <O>11      -0.2002
  26 C12       1.7324    -8.9197    -2.4307  C.ar    1  <O>11      -0.0169
  27 H1        1.8178    -8.1059    -6.5115  H       1  <O>11       0.1456
  28 H2        2.2664    -9.5350    -7.2401  H       1  <O>11       0.1456
  29 H3        3.1777   -10.7403    -4.1582  H       1  <O>11       0.1747
  30 H4        1.2543    -7.2680    -0.1022  H       1  <O>11       0.1737
  31 H5        0.5079    -9.2736    -5.5387  H       1  <O>11       0.0636
  32 H6       -1.4469    -8.2913    -4.4759  H       1  <O>11       0.0619
  33 H7       -1.3866    -7.7057    -2.1172  H       1  <O>11       0.0636
  34 H8        2.5864    -9.0942    -1.8782  H       1  <O>11       0.0655
@<TRIPOS>BOND
     1     1     2    1
     2     2     3    2
     3     2     4    2
     4     2     5    1
     5     5     6    1
     6     6     7   ar
     7     7     8   ar
     8     8     9   ar
     9     9    10   ar
    10    10    11    1
    11    11    12    1
    12    12    13    2
    13    12    14    2
    14    12    15    1
    15    15    16   ar
    16    16    17    1
    17    16    18   ar
    18    18    19    1
    19    18    20   ar
    20    20    21    1
    21    20    22   ar
    22    22    23    1
    23    22    24   ar
    24    15    24   ar
    25    24    25    1
    26    10    26   ar
    27     6    26   ar
    28     1    27    1
    29     1    28    1
    30     5    29    1
    31    11    30    1
    32     7    31    1
    33     8    32    1
    34     9    33    1
    35    26    34    1
@<TRIPOS>MOLECULE
mol91_2_9
 34 35 0 0 0
SMALL
USER_CHARGES
****
VDW energy = -427.46
@<TRIPOS>ATOM
   1 N1        2.6068    -8.6548    -6.8531  N.3     1  <O>11      -0.1906
   2 S1        3.6427    -8.9662    -5.6045  S.O2    1  <O>11       0.1067
   3 O1        4.9274    -9.8601    -6.1608  O.2     1  <O>11      -0.1383
   4 O2        4.1969    -7.5329    -4.9742  O.2     1  <O>11      -0.1383
   5 N2        2.8490    -9.8140    -4.4290  N.pl3   1  <O>11      -0.2067
   6 C1        2.2740   -11.1000    -4.7330  C.ar    1  <O>11       0.0508
   7 C2        3.1160   -12.1653    -5.0608  C.ar    1  <O>11      -0.0392
   8 C3        2.5641   -13.4137    -5.3680  C.ar    1  <O>11      -0.0582
   9 C4        1.1795   -13.5960    -5.3432  C.ar    1  <O>11      -0.0392
  10 C5        0.3494   -12.5213    -5.0063  C.ar    1  <O>11       0.0498
  11 N3       -1.0787   -12.7148    -4.9825  N.pl3   1  <O>11      -0.2160
  12 S2       -1.7567   -13.7284    -3.8676  S.O2    1  <O>11       0.0780
  13 O3       -1.3973   -13.1889    -2.3382  O.2     1  <O>11      -0.1498
  14 O4       -1.1486   -15.2609    -4.0704  O.2     1  <O>11      -0.1498
  15 C6       -3.5133   -13.7570    -4.0873  C.ar    1  <O>11       0.1843
  16 C7       -4.2620   -12.5742    -3.9653  C.ar    1  <O>11       0.1907
  17 F1       -3.6256   -11.3920    -3.6863  F       1  <O>11      -0.2002
  18 C8       -5.6508   -12.5999    -4.1283  C.ar    1  <O>11       0.1983
  19 F2       -6.3713   -11.4399    -4.0014  F       1  <O>11      -0.1993
  20 C9       -6.3049   -13.8008    -4.4156  C.ar    1  <O>11       0.1992
  21 F3       -7.6665   -13.8317    -4.5726  F       1  <O>11      -0.1993
  22 C10      -5.5574   -14.9767    -4.5434  C.ar    1  <O>11       0.1983
  23 F4       -6.2040   -16.1527    -4.8280  F       1  <O>11      -0.1993
  24 C11      -4.1706   -14.9623    -4.3862  C.ar    1  <O>11       0.1907
  25 F5       -3.4386   -16.1130    -4.5173  F       1  <O>11      -0.2002
  26 C12       0.8892   -11.2725    -4.6970  C.ar    1  <O>11      -0.0169
  27 H1        1.8178    -8.1059    -6.5115  H       1  <O>11       0.1456
  28 H2        2.2664    -9.5350    -7.2401  H       1  <O>11       0.1456
  29 H3        2.7670    -9.4280    -3.4890  H       1  <O>11       0.1747
  30 H4       -1.6715   -12.2251    -5.6529  H       1  <O>11       0.1737
  31 H5        4.1393   -12.0322    -5.0763  H       1  <O>11       0.0636
  32 H6        3.1823   -14.2027    -5.6137  H       1  <O>11       0.0619
  33 H7        0.7720   -14.5162    -5.5716  H       1  <O>11       0.0636
  34 H8        0.2717   -10.4852    -4.4443  H       1  <O>11       0.0655
@<TRIPOS>BOND
     1     1     2    1
     2     2     3    2
     3     2     4    2
     4     2     5    1
     5     5     6    1
     6     6     7   ar
     7     7     8   ar
     8     8     9   ar
     9     9    10   ar
    10    10    11    1
    11    11    12    1
    12    12    13    2
    13    12    14    2
    14    12    15    1
    15    15    16   ar
    16    16    17    1
    17    16    18   ar
    18    18    19    1
    19    18    20   ar
    20    20    21    1
    21    20    22   ar
    22    22    23    1
    23    22    24   ar
    24    15    24   ar
    25    24    25    1
    26    10    26   ar
    27     6    26   ar
    28     1    27    1
    29     1    28    1
    30     5    29    1
    31    11    30    1
    32     7    31    1
    33     8    32    1
    34     9    33    1
    35    26    34    1
@<TRIPOS>MOLECULE
mol91_2_10
 34 35 0 0 0
SMALL
USER_CHARGES
****
VDW energy = -426.97
@<TRIPOS>ATOM
   1 N1        2.6068    -8.6548    -6.8531  N.3     1  <O>11      -0.1906
   2 S1        3.6427    -8.9662    -5.6045  S.O2    1  <O>11       0.1067
   3 O1        4.9274    -9.8601    -6.1608  O.2     1  <O>11      -0.1383
   4 O2        4.1969    -7.5329    -4.9742  O.2     1  <O>11      -0.1383
   5 N2        2.8490    -9.8140    -4.4290  N.pl3   1  <O>11      -0.2067
   6 C1        2.2740   -11.1000    -4.7330  C.ar    1  <O>11       0.0508
   7 C2        3.0458   -12.2517    -4.5625  C.ar    1  <O>11      -0.0392
   8 C3        2.4978   -13.5027    -4.8662  C.ar    1  <O>11      -0.0582
   9 C4        1.1851   -13.6008    -5.3335  C.ar    1  <O>11      -0.0392
  10 C5        0.4221   -12.4389    -5.4927  C.ar    1  <O>11       0.0498
  11 N3       -0.9317   -12.5458    -5.9754  N.pl3   1  <O>11      -0.2160
  12 S2       -1.2378   -12.4828    -7.5979  S.O2    1  <O>11       0.0780
  13 O3       -2.8715   -12.6318    -7.8591  O.2     1  <O>11      -0.1498
  14 O4       -0.4405   -13.7247    -8.3604  O.2     1  <O>11      -0.1498
  15 C6       -0.6739   -10.9344    -8.2452  C.ar    1  <O>11       0.1843
  16 C7       -1.2023    -9.7275    -7.7565  C.ar    1  <O>11       0.1907
  17 F1       -2.1501    -9.7516    -6.7657  F       1  <O>11      -0.2002
  18 C8       -0.7640    -8.5053    -8.2761  C.ar    1  <O>11       0.1983
  19 F2       -1.2912    -7.3342    -7.7948  F       1  <O>11      -0.1993
  20 C9        0.2037    -8.4739    -9.2837  C.ar    1  <O>11       0.1992
  21 F3        0.6338    -7.2785    -9.7989  F       1  <O>11      -0.1993
  22 C10       0.7338    -9.6762    -9.7648  C.ar    1  <O>11       0.1983
  23 F4        1.6853    -9.6398   -10.7523  F       1  <O>11      -0.1993
  24 C11       0.3064   -10.9016    -9.2512  C.ar    1  <O>11       0.1907
  25 F5        0.8300   -12.0782    -9.7185  F       1  <O>11      -0.2002
  26 C12       0.9583   -11.1865    -5.1914  C.ar    1  <O>11      -0.0169
  27 H1        1.8178    -8.1059    -6.5115  H       1  <O>11       0.1456
  28 H2        2.2664    -9.5350    -7.2401  H       1  <O>11       0.1456
  29 H3        2.7670    -9.4280    -3.4890  H       1  <O>11       0.1747
  30 H4       -1.7013   -12.6616    -5.3158  H       1  <O>11       0.1737
  31 H5        4.0147   -12.1803    -4.2143  H       1  <O>11       0.0636
  32 H6        3.0655   -14.3559    -4.7446  H       1  <O>11       0.0619
  33 H7        0.7812   -14.5231    -5.5595  H       1  <O>11       0.0636
  34 H8        0.3885   -10.3337    -5.3062  H       1  <O>11       0.0655
@<TRIPOS>BOND
     1     1     2    1
     2     2     3    2
     3     2     4    2
     4     2     5    1
     5     5     6    1
     6     6     7   ar
     7     7     8   ar
     8     8     9   ar
     9     9    10   ar
    10    10    11    1
    11    11    12    1
    12    12    13    2
    13    12    14    2
    14    12    15    1
    15    15    16   ar
    16    16    17    1
    17    16    18   ar
    18    18    19    1
    19    18    20   ar
    20    20    21    1
    21    20    22   ar
    22    22    23    1
    23    22    24   ar
    24    15    24   ar
    25    24    25    1
    26    10    26   ar
    27     6    26   ar
    28     1    27    1
    29     1    28    1
    30     5    29    1
    31    11    30    1
    32     7    31    1
    33     8    32    1
    34     9    33    1
    35    26    34    1
@<TRIPOS>MOLECULE
mol91_2_11
 34 35 0 0 0
SMALL
USER_CHARGES
****
VDW energy = -426.91
@<TRIPOS>ATOM
   1 N1        2.6068    -8.6548    -6.8531  N.3     1  <O>11      -0.1906
   2 S1        3.6427    -8.9662    -5.6045  S.O2    1  <O>11       0.1067
   3 O1        4.9274    -9.8601    -6.1608  O.2     1  <O>11      -0.1383
   4 O2        4.1969    -7.5329    -4.9742  O.2     1  <O>11      -0.1383
   5 N2        2.8490    -9.8140    -4.4290  N.pl3   1  <O>11      -0.2067
   6 C1        2.2740   -11.1000    -4.7330  C.ar    1  <O>11       0.0508
   7 C2        3.1160   -12.1653    -5.0608  C.ar    1  <O>11      -0.0392
   8 C3        2.5641   -13.4137    -5.3680  C.ar    1  <O>11      -0.0582
   9 C4        1.1795   -13.5960    -5.3432  C.ar    1  <O>11      -0.0392
  10 C5        0.3494   -12.5213    -5.0063  C.ar    1  <O>11       0.0498
  11 N3       -1.0787   -12.7148    -4.9825  N.pl3   1  <O>11      -0.2160
  12 S2       -1.8914   -13.0440    -6.3831  S.O2    1  <O>11       0.0780
  13 O3       -3.5106   -13.2182    -6.0555  O.2     1  <O>11      -0.1498
  14 O4       -1.3066   -14.4509    -7.0449  O.2     1  <O>11      -0.1498
  15 C6       -1.6591   -11.7128    -7.5270  C.ar    1  <O>11       0.1843
  16 C7       -2.0751   -10.4123    -7.1948  C.ar    1  <O>11       0.1907
  17 F1       -2.6525   -10.1738    -5.9741  F       1  <O>11      -0.2002
  18 C8       -1.9009    -9.3636    -8.1035  C.ar    1  <O>11       0.1983
  19 F2       -2.3160    -8.0997    -7.7700  F       1  <O>11      -0.1993
  20 C9       -1.3105    -9.5996    -9.3479  C.ar    1  <O>11       0.1992
  21 F3       -1.1411    -8.5756   -10.2435  F       1  <O>11      -0.1993
  22 C10      -0.8907   -10.8937    -9.6747  C.ar    1  <O>11       0.1983
  23 F4       -0.3095   -11.1197   -10.8966  F       1  <O>11      -0.1993
  24 C11      -1.0563   -11.9473    -8.7743  C.ar    1  <O>11       0.1907
  25 F5       -0.6398   -13.2131    -9.0925  F       1  <O>11      -0.2002
  26 C12       0.8892   -11.2725    -4.6970  C.ar    1  <O>11      -0.0169
  27 H1        1.8178    -8.1059    -6.5115  H       1  <O>11       0.1456
  28 H2        2.2664    -9.5350    -7.2401  H       1  <O>11       0.1456
  29 H3        2.7670    -9.4280    -3.4890  H       1  <O>11       0.1747
  30 H4       -1.5881   -12.6498    -4.1011  H       1  <O>11       0.1737
  31 H5        4.1393   -12.0322    -5.0763  H       1  <O>11       0.0636
  32 H6        3.1823   -14.2027    -5.6137  H       1  <O>11       0.0619
  33 H7        0.7720   -14.5162    -5.5716  H       1  <O>11       0.0636
  34 H8        0.2717   -10.4852    -4.4443  H       1  <O>11       0.0655
@<TRIPOS>BOND
     1     1     2    1
     2     2     3    2
     3     2     4    2
     4     2     5    1
     5     5     6    1
     6     6     7   ar
     7     7     8   ar
     8     8     9   ar
     9     9    10   ar
    10    10    11    1
    11    11    12    1
    12    12    13    2
    13    12    14    2
    14    12    15    1
    15    15    16   ar
    16    16    17    1
    17    16    18   ar
    18    18    19    1
    19    18    20   ar
    20    20    21    1
    21    20    22   ar
    22    22    23    1
    23    22    24   ar
    24    15    24   ar
    25    24    25    1
    26    10    26   ar
    27     6    26   ar
    28     1    27    1
    29     1    28    1
    30     5    29    1
    31    11    30    1
    32     7    31    1
    33     8    32    1
    34     9    33    1
    35    26    34    1
@<TRIPOS>MOLECULE
mol91_2_12
 34 35 0 0 0
SMALL
USER_CHARGES
****
VDW energy = -425.79
@<TRIPOS>ATOM
   1 N1        2.6068    -8.6548    -6.8531  N.3     1  <O>11      -0.1906
   2 S1        3.6427    -8.9662    -5.6045  S.O2    1  <O>11       0.1067
   3 O1        4.9274    -9.8601    -6.1608  O.2     1  <O>11      -0.1383
   4 O2        4.1969    -7.5329    -4.9742  O.2     1  <O>11      -0.1383
   5 N2        2.8490    -9.8140    -4.4290  N.pl3   1  <O>11      -0.2067
   6 C1        2.2740   -11.1000    -4.7330  C.ar    1  <O>11       0.0508
   7 C2        3.1160   -12.1653    -5.0608  C.ar    1  <O>11      -0.0392
   8 C3        2.5641   -13.4137    -5.3680  C.ar    1  <O>11      -0.0582
   9 C4        1.1795   -13.5960    -5.3432  C.ar    1  <O>11      -0.0392
  10 C5        0.3494   -12.5213    -5.0063  C.ar    1  <O>11       0.0498
  11 N3       -1.0787   -12.7148    -4.9825  N.pl3   1  <O>11      -0.2160
  12 S2       -1.9712   -12.4504    -6.3478  S.O2    1  <O>11       0.0780
  13 O3       -1.7891   -10.8716    -6.8310  O.2     1  <O>11      -0.1498
  14 O4       -3.5736   -12.7496    -6.0282  O.2     1  <O>11      -0.1498
  15 C6       -1.4146   -13.5311    -7.6350  C.ar    1  <O>11       0.1843
  16 C7       -0.0851   -13.4704    -8.0857  C.ar    1  <O>11       0.1907
  17 F1        0.7861   -12.5774    -7.5163  F       1  <O>11      -0.2002
  18 C8        0.3505   -14.3170    -9.1101  C.ar    1  <O>11       0.1983
  19 F2        1.6492   -14.2446    -9.5452  F       1  <O>11      -0.1993
  20 C9       -0.5315   -15.2311    -9.6924  C.ar    1  <O>11       0.1992
  21 F3       -0.1102   -16.0605   -10.6994  F       1  <O>11      -0.1993
  22 C10      -1.8534   -15.2951    -9.2381  C.ar    1  <O>11       0.1983
  23 F4       -2.7147   -16.1959    -9.8113  F       1  <O>11      -0.1993
  24 C11      -2.2982   -14.4575    -8.2141  C.ar    1  <O>11       0.1907
  25 F5       -3.5910   -14.5246    -7.7656  F       1  <O>11      -0.2002
  26 C12       0.8892   -11.2725    -4.6970  C.ar    1  <O>11      -0.0169
  27 H1        1.8178    -8.1059    -6.5115  H       1  <O>11       0.1456
  28 H2        2.2664    -9.5350    -7.2401  H       1  <O>11       0.1456
  29 H3        2.7670    -9.4280    -3.4890  H       1  <O>11       0.1747
  30 H4       -1.5389   -13.0161    -4.1234  H       1  <O>11       0.1737
  31 H5        4.1393   -12.0322    -5.0763  H       1  <O>11       0.0636
  32 H6        3.1823   -14.2027    -5.6137  H       1  <O>11       0.0619
  33 H7        0.7720   -14.5162    -5.5716  H       1  <O>11       0.0636
  34 H8        0.2717   -10.4852    -4.4443  H       1  <O>11       0.0655
@<TRIPOS>BOND
     1     1     2    1
     2     2     3    2
     3     2     4    2
     4     2     5    1
     5     5     6    1
     6     6     7   ar
     7     7     8   ar
     8     8     9   ar
     9     9    10   ar
    10    10    11    1
    11    11    12    1
    12    12    13    2
    13    12    14    2
    14    12    15    1
    15    15    16   ar
    16    16    17    1
    17    16    18   ar
    18    18    19    1
    19    18    20   ar
    20    20    21    1
    21    20    22   ar
    22    22    23    1
    23    22    24   ar
    24    15    24   ar
    25    24    25    1
    26    10    26   ar
    27     6    26   ar
    28     1    27    1
    29     1    28    1
    30     5    29    1
    31    11    30    1
    32     7    31    1
    33     8    32    1
    34     9    33    1
    35    26    34    1
@<TRIPOS>MOLECULE
mol91_2_13
 34 35 0 0 0
SMALL
USER_CHARGES
****
VDW energy = -425.04
@<TRIPOS>ATOM
   1 N1        2.6068    -8.6548    -6.8531  N.3     1  <O>11      -0.1906
   2 S1        3.6427    -8.9662    -5.6045  S.O2    1  <O>11       0.1067
   3 O1        4.9274    -9.8601    -6.1608  O.2     1  <O>11      -0.1383
   4 O2        4.1969    -7.5329    -4.9742  O.2     1  <O>11      -0.1383
   5 N2        2.8490    -9.8140    -4.4290  N.pl3   1  <O>11      -0.2067
   6 C1        2.2740   -11.1000    -4.7330  C.ar    1  <O>11       0.0508
   7 C2        3.1160   -12.1653    -5.0608  C.ar    1  <O>11      -0.0392
   8 C3        2.5641   -13.4137    -5.3680  C.ar    1  <O>11      -0.0582
   9 C4        1.1795   -13.5960    -5.3432  C.ar    1  <O>11      -0.0392
  10 C5        0.3494   -12.5213    -5.0063  C.ar    1  <O>11       0.0498
  11 N3       -1.0787   -12.7148    -4.9825  N.pl3   1  <O>11      -0.2160
  12 S2       -2.0763   -11.4578    -4.5886  S.O2    1  <O>11       0.0780
  13 O3       -1.8555   -10.2161    -5.6698  O.2     1  <O>11      -0.1498
  14 O4       -1.7187   -10.9265    -3.0559  O.2     1  <O>11      -0.1498
  15 C6       -3.7605   -12.0006    -4.6469  C.ar    1  <O>11       0.1843
  16 C7       -4.3036   -12.4984    -5.8435  C.ar    1  <O>11       0.1907
  17 F1       -3.5201   -12.5739    -6.9665  F       1  <O>11      -0.2002
  18 C8       -5.6372   -12.9167    -5.8911  C.ar    1  <O>11       0.1983
  19 F2       -6.1575   -13.3956    -7.0663  F       1  <O>11      -0.1993
  20 C9       -6.4399   -12.8450    -4.7496  C.ar    1  <O>11       0.1992
  21 F3       -7.7489   -13.2503    -4.7923  F       1  <O>11      -0.1993
  22 C10      -5.8960   -12.3552    -3.5570  C.ar    1  <O>11       0.1983
  23 F4       -6.6875   -12.2892    -2.4385  F       1  <O>11      -0.1993
  24 C11      -4.5654   -11.9382    -3.4969  C.ar    1  <O>11       0.1907
  25 F5       -4.0317   -11.4644    -2.3275  F       1  <O>11      -0.2002
  26 C12       0.8892   -11.2725    -4.6970  C.ar    1  <O>11      -0.0169
  27 H1        1.8178    -8.1059    -6.5115  H       1  <O>11       0.1456
  28 H2        2.2664    -9.5350    -7.2401  H       1  <O>11       0.1456
  29 H3        2.7670    -9.4280    -3.4890  H       1  <O>11       0.1747
  30 H4       -1.4742   -13.6271    -5.2101  H       1  <O>11       0.1737
  31 H5        4.1393   -12.0322    -5.0763  H       1  <O>11       0.0636
  32 H6        3.1823   -14.2027    -5.6137  H       1  <O>11       0.0619
  33 H7        0.7720   -14.5162    -5.5716  H       1  <O>11       0.0636
  34 H8        0.2717   -10.4852    -4.4443  H       1  <O>11       0.0655
@<TRIPOS>BOND
     1     1     2    1
     2     2     3    2
     3     2     4    2
     4     2     5    1
     5     5     6    1
     6     6     7   ar
     7     7     8   ar
     8     8     9   ar
     9     9    10   ar
    10    10    11    1
    11    11    12    1
    12    12    13    2
    13    12    14    2
    14    12    15    1
    15    15    16   ar
    16    16    17    1
    17    16    18   ar
    18    18    19    1
    19    18    20   ar
    20    20    21    1
    21    20    22   ar
    22    22    23    1
    23    22    24   ar
    24    15    24   ar
    25    24    25    1
    26    10    26   ar
    27     6    26   ar
    28     1    27    1
    29     1    28    1
    30     5    29    1
    31    11    30    1
    32     7    31    1
    33     8    32    1
    34     9    33    1
    35    26    34    1
@<TRIPOS>MOLECULE
mol91_2_14
 34 35 0 0 0
SMALL
USER_CHARGES
****
VDW energy = -423.52
@<TRIPOS>ATOM
   1 N1        2.6068    -8.6548    -6.8531  N.3     1  <O>11      -0.1906
   2 S1        3.6427    -8.9662    -5.6045  S.O2    1  <O>11       0.1067
   3 O1        4.9274    -9.8601    -6.1608  O.2     1  <O>11      -0.1383
   4 O2        4.1969    -7.5329    -4.9742  O.2     1  <O>11      -0.1383
   5 N2        2.8490    -9.8140    -4.4290  N.pl3   1  <O>11      -0.2067
   6 C1        2.2740   -11.1000    -4.7330  C.ar    1  <O>11       0.0508
   7 C2        3.1160   -12.1653    -5.0608  C.ar    1  <O>11      -0.0392
   8 C3        2.5641   -13.4137    -5.3680  C.ar    1  <O>11      -0.0582
   9 C4        1.1795   -13.5960    -5.3432  C.ar    1  <O>11      -0.0392
  10 C5        0.3494   -12.5213    -5.0063  C.ar    1  <O>11       0.0498
  11 N3       -1.0787   -12.7148    -4.9825  N.pl3   1  <O>11      -0.2160
  12 S2       -2.0763   -11.4578    -4.5886  S.O2    1  <O>11       0.0780
  13 O3       -3.6565   -11.9671    -4.6439  O.2     1  <O>11      -0.1498
  14 O4       -1.8572   -10.2169    -5.6709  O.2     1  <O>11      -0.1498
  15 C6       -1.6943   -10.8906    -2.9555  C.ar    1  <O>11       0.1843
  16 C7       -1.8033   -11.7625    -1.8590  C.ar    1  <O>11       0.1907
  17 F1       -2.1962   -13.0611    -2.0589  F       1  <O>11      -0.2002
  18 C8       -1.5117   -11.3103    -0.5681  C.ar    1  <O>11       0.1983
  19 F2       -1.6271   -12.1693     0.4948  F       1  <O>11      -0.1993
  20 C9       -1.1080    -9.9892    -0.3582  C.ar    1  <O>11       0.1992
  21 F3       -0.8247    -9.5402     0.9058  F       1  <O>11      -0.1993
  22 C10      -0.9934    -9.1238    -1.4518  C.ar    1  <O>11       0.1983
  23 F4       -0.5943    -7.8284    -1.2407  F       1  <O>11      -0.1993
  24 C11      -1.2785    -9.5651    -2.7449  C.ar    1  <O>11       0.1907
  25 F5       -1.1605    -8.7191    -3.8160  F       1  <O>11      -0.2002
  26 C12       0.8892   -11.2725    -4.6970  C.ar    1  <O>11      -0.0169
  27 H1        1.8178    -8.1059    -6.5115  H       1  <O>11       0.1456
  28 H2        2.2664    -9.5350    -7.2401  H       1  <O>11       0.1456
  29 H3        2.7670    -9.4280    -3.4890  H       1  <O>11       0.1747
  30 H4       -1.4742   -13.6271    -5.2101  H       1  <O>11       0.1737
  31 H5        4.1393   -12.0322    -5.0763  H       1  <O>11       0.0636
  32 H6        3.1823   -14.2027    -5.6137  H       1  <O>11       0.0619
  33 H7        0.7720   -14.5162    -5.5716  H       1  <O>11       0.0636
  34 H8        0.2717   -10.4852    -4.4443  H       1  <O>11       0.0655
@<TRIPOS>BOND
     1     1     2    1
     2     2     3    2
     3     2     4    2
     4     2     5    1
     5     5     6    1
     6     6     7   ar
     7     7     8   ar
     8     8     9   ar
     9     9    10   ar
    10    10    11    1
    11    11    12    1
    12    12    13    2
    13    12    14    2
    14    12    15    1
    15    15    16   ar
    16    16    17    1
    17    16    18   ar
    18    18    19    1
    19    18    20   ar
    20    20    21    1
    21    20    22   ar
    22    22    23    1
    23    22    24   ar
    24    15    24   ar
    25    24    25    1
    26    10    26   ar
    27     6    26   ar
    28     1    27    1
    29     1    28    1
    30     5    29    1
    31    11    30    1
    32     7    31    1
    33     8    32    1
    34     9    33    1
    35    26    34    1
@<TRIPOS>MOLECULE
mol91_2_15
 34 35 0 0 0
SMALL
USER_CHARGES
****
VDW energy = -423.46
@<TRIPOS>ATOM
   1 N1        2.6068    -8.6548    -6.8531  N.3     1  <O>11      -0.1906
   2 S1        3.6427    -8.9662    -5.6045  S.O2    1  <O>11       0.1067
   3 O1        4.9274    -9.8601    -6.1608  O.2     1  <O>11      -0.1383
   4 O2        4.1969    -7.5329    -4.9742  O.2     1  <O>11      -0.1383
   5 N2        2.8490    -9.8140    -4.4290  N.pl3   1  <O>11      -0.2067
   6 C1        3.5455   -10.2063    -3.2299  C.ar    1  <O>11       0.0508
   7 C2        4.5911   -11.1285    -3.3170  C.ar    1  <O>11      -0.0392
   8 C3        5.2644   -11.5224    -2.1556  C.ar    1  <O>11      -0.0582
   9 C4        4.8967   -10.9939    -0.9160  C.ar    1  <O>11      -0.0392
  10 C5        3.8520   -10.0660    -0.8455  C.ar    1  <O>11       0.0498
  11 N3        3.4765    -9.5240     0.4361  N.pl3   1  <O>11      -0.2160
  12 S2        2.2444    -8.4280     0.5409  S.O2    1  <O>11       0.0780
  13 O3        0.8441    -9.1129    -0.0333  O.2     1  <O>11      -0.1498
  14 O4        2.6170    -7.0877    -0.3669  O.2     1  <O>11      -0.1498
  15 C6        2.0203    -7.9519     2.2313  C.ar    1  <O>11       0.1843
  16 C7        3.1112    -7.9479     3.1170  C.ar    1  <O>11       0.1907
  17 F1        4.3559    -8.3035     2.6646  F       1  <O>11      -0.2002
  18 C8        2.9308    -7.5820     4.4547  C.ar    1  <O>11       0.1983
  19 F2        4.0022    -7.5873     5.3109  F       1  <O>11      -0.1993
  20 C9        1.6655    -7.2159     4.9212  C.ar    1  <O>11       0.1992
  21 F3        1.4830    -6.8601     6.2325  F       1  <O>11      -0.1993
  22 C10       0.5814    -7.2139     4.0366  C.ar    1  <O>11       0.1983
  23 F4       -0.6583    -6.8513     4.4989  F       1  <O>11      -0.1993
  24 C11       0.7503    -7.5738     2.6987  C.ar    1  <O>11       0.1907
  25 F5       -0.3105    -7.5660     1.8317  F       1  <O>11      -0.2002
  26 C12       3.1748    -9.6652    -1.9976  C.ar    1  <O>11      -0.0169
  27 H1        1.8178    -8.1059    -6.5115  H       1  <O>11       0.1456
  28 H2        2.2664    -9.5350    -7.2401  H       1  <O>11       0.1456
  29 H3        1.8669   -10.0585    -4.5515  H       1  <O>11       0.1747
  30 H4        3.9702    -9.8176     1.2792  H       1  <O>11       0.1737
  31 H5        4.8653   -11.5171    -4.2330  H       1  <O>11       0.0636
  32 H6        6.0354   -12.2058    -2.2150  H       1  <O>11       0.0619
  33 H7        5.3918   -11.2856    -0.0589  H       1  <O>11       0.0636
  34 H8        2.4084    -8.9765    -1.9394  H       1  <O>11       0.0655
@<TRIPOS>BOND
     1     1     2    1
     2     2     3    2
     3     2     4    2
     4     2     5    1
     5     5     6    1
     6     6     7   ar
     7     7     8   ar
     8     8     9   ar
     9     9    10   ar
    10    10    11    1
    11    11    12    1
    12    12    13    2
    13    12    14    2
    14    12    15    1
    15    15    16   ar
    16    16    17    1
    17    16    18   ar
    18    18    19    1
    19    18    20   ar
    20    20    21    1
    21    20    22   ar
    22    22    23    1
    23    22    24   ar
    24    15    24   ar
    25    24    25    1
    26    10    26   ar
    27     6    26   ar
    28     1    27    1
    29     1    28    1
    30     5    29    1
    31    11    30    1
    32     7    31    1
    33     8    32    1
    34     9    33    1
    35    26    34    1
@<TRIPOS>MOLECULE
mol91_2_16
 34 35 0 0 0
SMALL
USER_CHARGES
****
VDW energy = -423.35
@<TRIPOS>ATOM
   1 N1        2.6068    -8.6548    -6.8531  N.3     1  <O>11      -0.1906
   2 S1        3.6427    -8.9662    -5.6045  S.O2    1  <O>11       0.1067
   3 O1        4.9274    -9.8601    -6.1608  O.2     1  <O>11      -0.1383
   4 O2        4.1969    -7.5329    -4.9742  O.2     1  <O>11      -0.1383
   5 N2        2.8490    -9.8140    -4.4290  N.pl3   1  <O>11      -0.2067
   6 C1        3.5455   -10.2063    -3.2299  C.ar    1  <O>11       0.0508
   7 C2        4.5911   -11.1285    -3.3170  C.ar    1  <O>11      -0.0392
   8 C3        5.2644   -11.5224    -2.1556  C.ar    1  <O>11      -0.0582
   9 C4        4.8967   -10.9939    -0.9160  C.ar    1  <O>11      -0.0392
  10 C5        3.8520   -10.0660    -0.8455  C.ar    1  <O>11       0.0498
  11 N3        3.4765    -9.5240     0.4361  N.pl3   1  <O>11      -0.2160
  12 S2        2.2444    -8.4280     0.5409  S.O2    1  <O>11       0.0780
  13 O3        0.8441    -9.1129    -0.0333  O.2     1  <O>11      -0.1498
  14 O4        2.6170    -7.0877    -0.3669  O.2     1  <O>11      -0.1498
  15 C6        2.0203    -7.9519     2.2313  C.ar    1  <O>11       0.1843
  16 C7        0.7499    -7.5747     2.6989  C.ar    1  <O>11       0.1907
  17 F1       -0.3213    -7.5876     1.8429  F       1  <O>11      -0.2002
  18 C8        0.5763    -7.1884     4.0317  C.ar    1  <O>11       0.1983
  19 F2       -0.6675    -6.8172     4.4748  F       1  <O>11      -0.1993
  20 C9        1.6633    -7.1759     4.9096  C.ar    1  <O>11       0.1992
  21 F3        1.4987    -6.7944     6.2161  F       1  <O>11      -0.1993
  22 C10       2.9264    -7.5581     4.4444  C.ar    1  <O>11       0.1983
  23 F4        3.9899    -7.5465     5.3109  F       1  <O>11      -0.1993
  24 C11       3.1108    -7.9488     3.1173  C.ar    1  <O>11       0.1907
  25 F5        4.3467    -8.3284     2.6638  F       1  <O>11      -0.2002
  26 C12       3.1748    -9.6652    -1.9976  C.ar    1  <O>11      -0.0169
  27 H1        1.8178    -8.1059    -6.5115  H       1  <O>11       0.1456
  28 H2        2.2664    -9.5350    -7.2401  H       1  <O>11       0.1456
  29 H3        1.8669   -10.0585    -4.5515  H       1  <O>11       0.1747
  30 H4        3.9702    -9.8176     1.2792  H       1  <O>11       0.1737
  31 H5        4.8653   -11.5171    -4.2330  H       1  <O>11       0.0636
  32 H6        6.0354   -12.2058    -2.2150  H       1  <O>11       0.0619
  33 H7        5.3918   -11.2856    -0.0589  H       1  <O>11       0.0636
  34 H8        2.4084    -8.9765    -1.9394  H       1  <O>11       0.0655
@<TRIPOS>BOND
     1     1     2    1
     2     2     3    2
     3     2     4    2
     4     2     5    1
     5     5     6    1
     6     6     7   ar
     7     7     8   ar
     8     8     9   ar
     9     9    10   ar
    10    10    11    1
    11    11    12    1
    12    12    13    2
    13    12    14    2
    14    12    15    1
    15    15    16   ar
    16    16    17    1
    17    16    18   ar
    18    18    19    1
    19    18    20   ar
    20    20    21    1
    21    20    22   ar
    22    22    23    1
    23    22    24   ar
    24    15    24   ar
    25    24    25    1
    26    10    26   ar
    27     6    26   ar
    28     1    27    1
    29     1    28    1
    30     5    29    1
    31    11    30    1
    32     7    31    1
    33     8    32    1
    34     9    33    1
    35    26    34    1
@<TRIPOS>MOLECULE
mol91_2_17
 34 35 0 0 0
SMALL
USER_CHARGES
****
VDW energy = -423.29
@<TRIPOS>ATOM
   1 N1        2.6068    -8.6548    -6.8531  N.3     1  <O>11      -0.1906
   2 S1        3.6427    -8.9662    -5.6045  S.O2    1  <O>11       0.1067
   3 O1        4.9274    -9.8601    -6.1608  O.2     1  <O>11      -0.1383
   4 O2        4.1969    -7.5329    -4.9742  O.2     1  <O>11      -0.1383
   5 N2        2.8490    -9.8140    -4.4290  N.pl3   1  <O>11      -0.2067
   6 C1        2.2740   -11.1000    -4.7330  C.ar    1  <O>11       0.0508
   7 C2        1.6060   -11.8050    -3.7290  C.ar    1  <O>11      -0.0392
   8 C3        1.0550   -13.0590    -4.0140  C.ar    1  <O>11      -0.0582
   9 C4        1.1680   -13.6020    -5.2960  C.ar    1  <O>11      -0.0392
  10 C5        1.8340   -12.8810    -6.2930  C.ar    1  <O>11       0.0498
  11 N3        1.9480   -13.4460    -7.6140  N.pl3   1  <O>11      -0.2160
  12 S2        0.7804   -13.1467    -8.7443  S.O2    1  <O>11       0.0780
  13 O3        0.6766   -11.5107    -9.0130  O.2     1  <O>11      -0.1498
  14 O4       -0.6816   -13.7103    -8.1927  O.2     1  <O>11      -0.1498
  15 C6        1.1976   -13.9692   -10.2556  C.ar    1  <O>11       0.1843
  16 C7        2.3963   -13.6628   -10.9216  C.ar    1  <O>11       0.1907
  17 F1        3.2506   -12.7308   -10.3904  F       1  <O>11      -0.2002
  18 C8        2.7196   -14.3053   -12.1210  C.ar    1  <O>11       0.1983
  19 F2        3.8900   -13.9938   -12.7646  F       1  <O>11      -0.1993
  20 C9        1.8548   -15.2580   -12.6660  C.ar    1  <O>11       0.1992
  21 F3        2.1655   -15.8878   -13.8434  F       1  <O>11      -0.1993
  22 C10       0.6645   -15.5670   -11.9983  C.ar    1  <O>11       0.1983
  23 F4       -0.1800   -16.5048   -12.5361  F       1  <O>11      -0.1993
  24 C11       0.3333   -14.9346   -10.7989  C.ar    1  <O>11       0.1907
  25 F5       -0.8295   -15.2418   -10.1426  F       1  <O>11      -0.2002
  26 C12       2.3860   -11.6290    -6.0200  C.ar    1  <O>11      -0.0169
  27 H1        1.8178    -8.1059    -6.5115  H       1  <O>11       0.1456
  28 H2        2.2664    -9.5350    -7.2401  H       1  <O>11       0.1456
  29 H3        2.7670    -9.4280    -3.4890  H       1  <O>11       0.1747
  30 H4        2.7500   -14.0297    -7.8522  H       1  <O>11       0.1737
  31 H5        1.5194   -11.4031    -2.7824  H       1  <O>11       0.0636
  32 H6        0.5633   -13.5847    -3.2744  H       1  <O>11       0.0619
  33 H7        0.7634   -14.5278    -5.5061  H       1  <O>11       0.0636
  34 H8        2.8716   -11.1000    -6.7612  H       1  <O>11       0.0655
@<TRIPOS>BOND
     1     1     2    1
     2     2     3    2
     3     2     4    2
     4     2     5    1
     5     5     6    1
     6     6     7   ar
     7     7     8   ar
     8     8     9   ar
     9     9    10   ar
    10    10    11    1
    11    11    12    1
    12    12    13    2
    13    12    14    2
    14    12    15    1
    15    15    16   ar
    16    16    17    1
    17    16    18   ar
    18    18    19    1
    19    18    20   ar
    20    20    21    1
    21    20    22   ar
    22    22    23    1
    23    22    24   ar
    24    15    24   ar
    25    24    25    1
    26    10    26   ar
    27     6    26   ar
    28     1    27    1
    29     1    28    1
    30     5    29    1
    31    11    30    1
    32     7    31    1
    33     8    32    1
    34     9    33    1
    35    26    34    1
@<TRIPOS>MOLECULE
mol91_2_18
 34 35 0 0 0
SMALL
USER_CHARGES
****
VDW energy = -423.09
@<TRIPOS>ATOM
   1 N1        2.6068    -8.6548    -6.8531  N.3     1  <O>11      -0.1906
   2 S1        3.6427    -8.9662    -5.6045  S.O2    1  <O>11       0.1067
   3 O1        4.9274    -9.8601    -6.1608  O.2     1  <O>11      -0.1383
   4 O2        4.1969    -7.5329    -4.9742  O.2     1  <O>11      -0.1383
   5 N2        2.8490    -9.8140    -4.4290  N.pl3   1  <O>11      -0.2067
   6 C1        3.5455   -10.2063    -3.2299  C.ar    1  <O>11       0.0508
   7 C2        2.8614   -10.9226    -2.2450  C.ar    1  <O>11      -0.0392
   8 C3        3.5281   -11.2971    -1.0734  C.ar    1  <O>11      -0.0582
   9 C4        4.8714   -10.9607    -0.8905  C.ar    1  <O>11      -0.0392
  10 C5        5.5452   -10.2489    -1.8888  C.ar    1  <O>11       0.0498
  11 N3        6.9311    -9.9041    -1.6949  N.pl3   1  <O>11      -0.2160
  12 S2        7.3601    -8.8463    -0.5001  S.O2    1  <O>11       0.0780
  13 O3        6.8853    -9.4521     0.9720  O.2     1  <O>11      -0.1498
  14 O4        6.6167    -7.3841    -0.7621  O.2     1  <O>11      -0.1498
  15 C6        9.1167    -8.6253    -0.5103  C.ar    1  <O>11       0.1843
  16 C7        9.9702    -9.7233    -0.3094  C.ar    1  <O>11       0.1907
  17 F1        9.4379   -10.9723    -0.1164  F       1  <O>11      -0.2002
  18 C8       11.3574    -9.5456    -0.3068  C.ar    1  <O>11       0.1983
  19 F2       12.1800   -10.6241    -0.1041  F       1  <O>11      -0.1993
  20 C9       11.9061    -8.2760    -0.5058  C.ar    1  <O>11       0.1992
  21 F3       13.2651    -8.0962    -0.5004  F       1  <O>11      -0.1993
  22 C10      11.0551    -7.1846    -0.7124  C.ar    1  <O>11       0.1983
  23 F4       11.5988    -5.9407    -0.9097  F       1  <O>11      -0.1993
  24 C11       9.6693    -7.3507    -0.7204  C.ar    1  <O>11       0.1907
  25 F5        8.8368    -6.2827    -0.9286  F       1  <O>11      -0.2002
  26 C12       4.8903    -9.8717    -3.0617  C.ar    1  <O>11      -0.0169
  27 H1        1.8178    -8.1059    -6.5115  H       1  <O>11       0.1456
  28 H2        2.2664    -9.5350    -7.2401  H       1  <O>11       0.1456
  29 H3        1.8669   -10.0585    -4.5515  H       1  <O>11       0.1747
  30 H4        7.6479   -10.3138    -2.2941  H       1  <O>11       0.1737
  31 H5        1.8697   -11.1742    -2.3808  H       1  <O>11       0.0636
  32 H6        3.0257   -11.8238    -0.3418  H       1  <O>11       0.0619
  33 H7        5.3630   -11.2350    -0.0256  H       1  <O>11       0.0636
  34 H8        5.3944    -9.3512    -3.7965  H       1  <O>11       0.0655
@<TRIPOS>BOND
     1     1     2    1
     2     2     3    2
     3     2     4    2
     4     2     5    1
     5     5     6    1
     6     6     7   ar
     7     7     8   ar
     8     8     9   ar
     9     9    10   ar
    10    10    11    1
    11    11    12    1
    12    12    13    2
    13    12    14    2
    14    12    15    1
    15    15    16   ar
    16    16    17    1
    17    16    18   ar
    18    18    19    1
    19    18    20   ar
    20    20    21    1
    21    20    22   ar
    22    22    23    1
    23    22    24   ar
    24    15    24   ar
    25    24    25    1
    26    10    26   ar
    27     6    26   ar
    28     1    27    1
    29     1    28    1
    30     5    29    1
    31    11    30    1
    32     7    31    1
    33     8    32    1
    34     9    33    1
    35    26    34    1
@<TRIPOS>MOLECULE
mol91_2_19
 34 35 0 0 0
SMALL
USER_CHARGES
****
VDW energy = -422.68
@<TRIPOS>ATOM
   1 N1        2.6068    -8.6548    -6.8531  N.3     1  <O>11      -0.1906
   2 S1        3.6427    -8.9662    -5.6045  S.O2    1  <O>11       0.1067
   3 O1        4.9274    -9.8601    -6.1608  O.2     1  <O>11      -0.1383
   4 O2        4.1969    -7.5329    -4.9742  O.2     1  <O>11      -0.1383
   5 N2        2.8490    -9.8140    -4.4290  N.pl3   1  <O>11      -0.2067
   6 C1        3.5455   -10.2063    -3.2299  C.ar    1  <O>11       0.0508
   7 C2        3.9928    -9.2217    -2.3457  C.ar    1  <O>11      -0.0392
   8 C3        4.6795    -9.5946    -1.1853  C.ar    1  <O>11      -0.0582
   9 C4        4.9133   -10.9438    -0.9093  C.ar    1  <O>11      -0.0392
  10 C5        4.4532   -11.9189    -1.8009  C.ar    1  <O>11       0.0498
  11 N3        4.6974   -13.3095    -1.5115  N.pl3   1  <O>11      -0.2160
  12 S2        4.1635   -14.4763    -2.5526  S.O2    1  <O>11       0.0780
  13 O3        4.8577   -14.2469    -4.0442  O.2     1  <O>11      -0.1498
  14 O4        2.5109   -14.3805    -2.6912  O.2     1  <O>11      -0.1498
  15 C6        4.6117   -16.0722    -1.9305  C.ar    1  <O>11       0.1843
  16 C7        5.9629   -16.3985    -1.7244  C.ar    1  <O>11       0.1907
  17 F1        6.9357   -15.4709    -1.9961  F       1  <O>11      -0.2002
  18 C8        6.3164   -17.6631    -1.2433  C.ar    1  <O>11       0.1983
  19 F2        7.6389   -17.9717    -1.0514  F       1  <O>11      -0.1993
  20 C9        5.3296   -18.6117    -0.9618  C.ar    1  <O>11       0.1992
  21 F3        5.6714   -19.8540    -0.4936  F       1  <O>11      -0.1993
  22 C10       3.9842   -18.2831    -1.1612  C.ar    1  <O>11       0.1983
  23 F4        3.0191   -19.2170    -0.8811  F       1  <O>11      -0.1993
  24 C11       3.6195   -17.0229    -1.6377  C.ar    1  <O>11       0.1907
  25 F5        2.3017   -16.6998    -1.8271  F       1  <O>11      -0.2002
  26 C12       3.7662   -11.5581    -2.9604  C.ar    1  <O>11      -0.0169
  27 H1        1.8178    -8.1059    -6.5115  H       1  <O>11       0.1456
  28 H2        2.2664    -9.5350    -7.2401  H       1  <O>11       0.1456
  29 H3        1.8669   -10.0585    -4.5515  H       1  <O>11       0.1747
  30 H4        5.2010   -13.5741    -0.6647  H       1  <O>11       0.1737
  31 H5        3.8177    -8.2248    -2.5474  H       1  <O>11       0.0636
  32 H6        5.0145    -8.8703    -0.5308  H       1  <O>11       0.0619
  33 H7        5.4215   -11.2192    -0.0544  H       1  <O>11       0.0636
  34 H8        3.4249   -12.2825    -3.6115  H       1  <O>11       0.0655
@<TRIPOS>BOND
     1     1     2    1
     2     2     3    2
     3     2     4    2
     4     2     5    1
     5     5     6    1
     6     6     7   ar
     7     7     8   ar
     8     8     9   ar
     9     9    10   ar
    10    10    11    1
    11    11    12    1
    12    12    13    2
    13    12    14    2
    14    12    15    1
    15    15    16   ar
    16    16    17    1
    17    16    18   ar
    18    18    19    1
    19    18    20   ar
    20    20    21    1
    21    20    22   ar
    22    22    23    1
    23    22    24   ar
    24    15    24   ar
    25    24    25    1
    26    10    26   ar
    27     6    26   ar
    28     1    27    1
    29     1    28    1
    30     5    29    1
    31    11    30    1
    32     7    31    1
    33     8    32    1
    34     9    33    1
    35    26    34    1
@<TRIPOS>MOLECULE
mol91_2_20
 34 35 0 0 0
SMALL
USER_CHARGES
****
VDW energy = -422.61
@<TRIPOS>ATOM
   1 N1        2.6068    -8.6548    -6.8531  N.3     1  <O>11      -0.1906
   2 S1        3.6427    -8.9662    -5.6045  S.O2    1  <O>11       0.1067
   3 O1        4.9274    -9.8601    -6.1608  O.2     1  <O>11      -0.1383
   4 O2        4.1969    -7.5329    -4.9742  O.2     1  <O>11      -0.1383
   5 N2        2.8490    -9.8140    -4.4290  N.pl3   1  <O>11      -0.2067
   6 C1        3.5455   -10.2063    -3.2299  C.ar    1  <O>11       0.0508
   7 C2        4.5911   -11.1285    -3.3170  C.ar    1  <O>11      -0.0392
   8 C3        5.2644   -11.5224    -2.1556  C.ar    1  <O>11      -0.0582
   9 C4        4.8967   -10.9939    -0.9160  C.ar    1  <O>11      -0.0392
  10 C5        3.8520   -10.0660    -0.8455  C.ar    1  <O>11       0.0498
  11 N3        3.4765    -9.5240     0.4361  N.pl3   1  <O>11      -0.2160
  12 S2        2.2444    -8.4280     0.5409  S.O2    1  <O>11       0.0780
  13 O3        0.8441    -9.1129    -0.0333  O.2     1  <O>11      -0.1498
  14 O4        2.6170    -7.0877    -0.3669  O.2     1  <O>11      -0.1498
  15 C6        2.0203    -7.9519     2.2313  C.ar    1  <O>11       0.1843
  16 C7        1.6966    -8.9151     3.2019  C.ar    1  <O>11       0.1907
  17 F1        1.5658   -10.2306     2.8375  F       1  <O>11      -0.2002
  18 C8        1.5091    -8.5361     4.5349  C.ar    1  <O>11       0.1983
  19 F2        1.1881    -9.4846     5.4721  F       1  <O>11      -0.1993
  20 C9        1.6438    -7.1977     4.9132  C.ar    1  <O>11       0.1992
  21 F3        1.4573    -6.8208     6.2180  F       1  <O>11      -0.1993
  22 C10       1.9726    -6.2406     3.9469  C.ar    1  <O>11       0.1983
  23 F4        2.1061    -4.9283     4.3238  F       1  <O>11      -0.1993
  24 C11       2.1655    -6.6078     2.6142  C.ar    1  <O>11       0.1907
  25 F5        2.4932    -5.6711     1.6697  F       1  <O>11      -0.2002
  26 C12       3.1748    -9.6652    -1.9976  C.ar    1  <O>11      -0.0169
  27 H1        1.8178    -8.1059    -6.5115  H       1  <O>11       0.1456
  28 H2        2.2664    -9.5350    -7.2401  H       1  <O>11       0.1456
  29 H3        1.8669   -10.0585    -4.5515  H       1  <O>11       0.1747
  30 H4        3.9702    -9.8176     1.2792  H       1  <O>11       0.1737
  31 H5        4.8653   -11.5171    -4.2330  H       1  <O>11       0.0636
  32 H6        6.0354   -12.2058    -2.2150  H       1  <O>11       0.0619
  33 H7        5.3918   -11.2856    -0.0589  H       1  <O>11       0.0636
  34 H8        2.4084    -8.9765    -1.9394  H       1  <O>11       0.0655
@<TRIPOS>BOND
     1     1     2    1
     2     2     3    2
     3     2     4    2
     4     2     5    1
     5     5     6    1
     6     6     7   ar
     7     7     8   ar
     8     8     9   ar
     9     9    10   ar
    10    10    11    1
    11    11    12    1
    12    12    13    2
    13    12    14    2
    14    12    15    1
    15    15    16   ar
    16    16    17    1
    17    16    18   ar
    18    18    19    1
    19    18    20   ar
    20    20    21    1
    21    20    22   ar
    22    22    23    1
    23    22    24   ar
    24    15    24   ar
    25    24    25    1
    26    10    26   ar
    27     6    26   ar
    28     1    27    1
    29     1    28    1
    30     5    29    1
    31    11    30    1
    32     7    31    1
    33     8    32    1
    34     9    33    1
    35    26    34    1
@<TRIPOS>MOLECULE
mol91_2_21
 34 35 0 0 0
SMALL
USER_CHARGES
****
VDW energy = -422.38
@<TRIPOS>ATOM
   1 N1        2.6068    -8.6548    -6.8531  N.3     1  <O>11      -0.1906
   2 S1        3.6427    -8.9662    -5.6045  S.O2    1  <O>11       0.1067
   3 O1        4.9274    -9.8601    -6.1608  O.2     1  <O>11      -0.1383
   4 O2        4.1969    -7.5329    -4.9742  O.2     1  <O>11      -0.1383
   5 N2        2.8490    -9.8140    -4.4290  N.pl3   1  <O>11      -0.2067
   6 C1        3.5455   -10.2063    -3.2299  C.ar    1  <O>11       0.0508
   7 C2        3.5481    -9.3472    -2.1285  C.ar    1  <O>11      -0.0392
   8 C3        4.2315    -9.7165    -0.9649  C.ar    1  <O>11      -0.0582
   9 C4        4.9043   -10.9391    -0.9025  C.ar    1  <O>11      -0.0392
  10 C5        4.8871   -11.7920    -2.0114  C.ar    1  <O>11       0.0498
  11 N3        5.5831   -13.0521    -1.9417  N.pl3   1  <O>11      -0.2160
  12 S2        5.5760   -14.0729    -3.2411  S.O2    1  <O>11       0.0780
  13 O3        6.2563   -13.3082    -4.5495  O.2     1  <O>11      -0.1498
  14 O4        4.0115   -14.4992    -3.6016  O.2     1  <O>11      -0.1498
  15 C6        6.5094   -15.5268    -2.8544  C.ar    1  <O>11       0.1843
  16 C7        7.8689   -15.4263    -2.5135  C.ar    1  <O>11       0.1907
  17 F1        8.4698   -14.1944    -2.4696  F       1  <O>11      -0.2002
  18 C8        8.6079   -16.5765    -2.2188  C.ar    1  <O>11       0.1983
  19 F2        9.9355   -16.4660    -1.8928  F       1  <O>11      -0.1993
  20 C9        8.0006   -17.8343    -2.2590  C.ar    1  <O>11       0.1992
  21 F3        8.7218   -18.9651    -1.9746  F       1  <O>11      -0.1993
  22 C10       6.6451   -17.9324    -2.5921  C.ar    1  <O>11       0.1983
  23 F4        6.0530   -19.1694    -2.6278  F       1  <O>11      -0.1993
  24 C11       5.8970   -16.7910    -2.8847  C.ar    1  <O>11       0.1907
  25 F5        4.5684   -16.8872    -3.2050  F       1  <O>11      -0.2002
  26 C12       4.2075   -11.4342    -3.1762  C.ar    1  <O>11      -0.0169
  27 H1        1.8178    -8.1059    -6.5115  H       1  <O>11       0.1456
  28 H2        2.2664    -9.5350    -7.2401  H       1  <O>11       0.1456
  29 H3        1.8669   -10.0585    -4.5515  H       1  <O>11       0.1747
  30 H4        6.0815   -13.3138    -1.0910  H       1  <O>11       0.1737
  31 H5        3.0486    -8.4451    -2.1727  H       1  <O>11       0.0636
  32 H6        4.2386    -9.0835    -0.1499  H       1  <O>11       0.0619
  33 H7        5.4102   -11.2110    -0.0451  H       1  <O>11       0.0636
  34 H8        4.1943   -12.0701    -3.9889  H       1  <O>11       0.0655
@<TRIPOS>BOND
     1     1     2    1
     2     2     3    2
     3     2     4    2
     4     2     5    1
     5     5     6    1
     6     6     7   ar
     7     7     8   ar
     8     8     9   ar
     9     9    10   ar
    10    10    11    1
    11    11    12    1
    12    12    13    2
    13    12    14    2
    14    12    15    1
    15    15    16   ar
    16    16    17    1
    17    16    18   ar
    18    18    19    1
    19    18    20   ar
    20    20    21    1
    21    20    22   ar
    22    22    23    1
    23    22    24   ar
    24    15    24   ar
    25    24    25    1
    26    10    26   ar
    27     6    26   ar
    28     1    27    1
    29     1    28    1
    30     5    29    1
    31    11    30    1
    32     7    31    1
    33     8    32    1
    34     9    33    1
    35    26    34    1
@<TRIPOS>MOLECULE
mol91_2_22
 34 35 0 0 0
SMALL
USER_CHARGES
****
VDW energy = -422.25
@<TRIPOS>ATOM
   1 N1        2.6068    -8.6548    -6.8531  N.3     1  <O>11      -0.1906
   2 S1        3.6427    -8.9662    -5.6045  S.O2    1  <O>11       0.1067
   3 O1        4.9274    -9.8601    -6.1608  O.2     1  <O>11      -0.1383
   4 O2        4.1969    -7.5329    -4.9742  O.2     1  <O>11      -0.1383
   5 N2        2.8490    -9.8140    -4.4290  N.pl3   1  <O>11      -0.2067
   6 C1        3.5455   -10.2063    -3.2299  C.ar    1  <O>11       0.0508
   7 C2        4.2040   -11.4377    -3.1933  C.ar    1  <O>11      -0.0392
   8 C3        4.8728   -11.8300    -2.0288  C.ar    1  <O>11      -0.0582
   9 C4        4.8862   -10.9939    -0.9099  C.ar    1  <O>11      -0.0392
  10 C5        4.2280    -9.7605    -0.9639  C.ar    1  <O>11       0.0498
  11 N3        4.2446    -8.9018     0.1935  N.pl3   1  <O>11      -0.2160
  12 S2        3.4720    -7.4418     0.1504  S.O2    1  <O>11       0.0780
  13 O3        1.8560    -7.6796    -0.1521  O.2     1  <O>11      -0.1498
  14 O4        4.1278    -6.5038    -1.0535  O.2     1  <O>11      -0.1498
  15 C6        3.6683    -6.6242     1.7084  C.ar    1  <O>11       0.1843
  16 C7        3.1916    -7.2219     2.8874  C.ar    1  <O>11       0.1907
  17 F1        2.5826    -8.4492     2.8296  F       1  <O>11      -0.2002
  18 C8        3.3374    -6.5701     4.1161  C.ar    1  <O>11       0.1983
  19 F2        2.8632    -7.1612     5.2592  F       1  <O>11      -0.1993
  20 C9        3.9596    -5.3207     4.1821  C.ar    1  <O>11       0.1992
  21 F3        4.1016    -4.6761     5.3837  F       1  <O>11      -0.1993
  22 C10       4.4398    -4.7296     3.0082  C.ar    1  <O>11       0.1983
  23 F4        5.0521    -3.5040     3.0786  F       1  <O>11      -0.1993
  24 C11       4.3028    -5.3724     1.7769  C.ar    1  <O>11       0.1907
  25 F5        4.7784    -4.7958     0.6286  F       1  <O>11      -0.2002
  26 C12       3.5591    -9.3589    -2.1206  C.ar    1  <O>11      -0.0169
  27 H1        1.8178    -8.1059    -6.5115  H       1  <O>11       0.1456
  28 H2        2.2664    -9.5350    -7.2401  H       1  <O>11       0.1456
  29 H3        1.8669   -10.0585    -4.5515  H       1  <O>11       0.1747
  30 H4        4.7322    -9.1954     1.0401  H       1  <O>11       0.1737
  31 H5        4.1971   -12.0546    -4.0207  H       1  <O>11       0.0636
  32 H6        5.3580   -12.7403    -1.9964  H       1  <O>11       0.0619
  33 H7        5.3777   -11.2837    -0.0501  H       1  <O>11       0.0636
  34 H8        3.0798    -8.4456    -2.1557  H       1  <O>11       0.0655
@<TRIPOS>BOND
     1     1     2    1
     2     2     3    2
     3     2     4    2
     4     2     5    1
     5     5     6    1
     6     6     7   ar
     7     7     8   ar
     8     8     9   ar
     9     9    10   ar
    10    10    11    1
    11    11    12    1
    12    12    13    2
    13    12    14    2
    14    12    15    1
    15    15    16   ar
    16    16    17    1
    17    16    18   ar
    18    18    19    1
    19    18    20   ar
    20    20    21    1
    21    20    22   ar
    22    22    23    1
    23    22    24   ar
    24    15    24   ar
    25    24    25    1
    26    10    26   ar
    27     6    26   ar
    28     1    27    1
    29     1    28    1
    30     5    29    1
    31    11    30    1
    32     7    31    1
    33     8    32    1
    34     9    33    1
    35    26    34    1
@<TRIPOS>MOLECULE
mol91_2_23
 34 35 0 0 0
SMALL
USER_CHARGES
****
VDW energy = -421.87
@<TRIPOS>ATOM
   1 N1        2.6068    -8.6548    -6.8531  N.3     1  <O>11      -0.1906
   2 S1        3.6427    -8.9662    -5.6045  S.O2    1  <O>11       0.1067
   3 O1        4.9274    -9.8601    -6.1608  O.2     1  <O>11      -0.1383
   4 O2        4.1969    -7.5329    -4.9742  O.2     1  <O>11      -0.1383
   5 N2        2.8490    -9.8140    -4.4290  N.pl3   1  <O>11      -0.2067
   6 C1        2.2740   -11.1000    -4.7330  C.ar    1  <O>11       0.0508
   7 C2        0.9565   -11.1687    -5.1921  C.ar    1  <O>11      -0.0392
   8 C3        0.3881   -12.4146    -5.4785  C.ar    1  <O>11      -0.0582
   9 C4        1.1343   -13.5834    -5.3108  C.ar    1  <O>11      -0.0392
  10 C5        2.4549   -13.4981    -4.8567  C.ar    1  <O>11       0.0498
  11 N3        3.2203   -14.7073    -4.6851  N.pl3   1  <O>11      -0.2160
  12 S2        4.7811   -14.6280    -4.1485  S.O2    1  <O>11       0.0780
  13 O3        4.8154   -13.9128    -2.6495  O.2     1  <O>11      -0.1498
  14 O4        5.6869   -13.7283    -5.2112  O.2     1  <O>11      -0.1498
  15 C6        5.4514   -16.2631    -4.0394  C.ar    1  <O>11       0.1843
  16 C7        4.8553   -17.2186    -3.1991  C.ar    1  <O>11       0.1907
  17 F1        3.7428   -16.8841    -2.4704  F       1  <O>11      -0.2002
  18 C8        5.3921   -18.5066    -3.1055  C.ar    1  <O>11       0.1983
  19 F2        4.8046   -19.4289    -2.2777  F       1  <O>11      -0.1993
  20 C9        6.5238   -18.8546    -3.8476  C.ar    1  <O>11       0.1992
  21 F3        7.0559   -20.1147    -3.7563  F       1  <O>11      -0.1993
  22 C10       7.1125   -17.9040    -4.6890  C.ar    1  <O>11       0.1983
  23 F4        8.2219   -18.2513    -5.4173  F       1  <O>11      -0.1993
  24 C11       6.5833   -16.6167    -4.7930  C.ar    1  <O>11       0.1907
  25 F5        7.1566   -15.6882    -5.6214  F       1  <O>11      -0.2002
  26 C12       3.0320   -12.2608    -4.5694  C.ar    1  <O>11      -0.0169
  27 H1        1.8178    -8.1059    -6.5115  H       1  <O>11       0.1456
  28 H2        2.2664    -9.5350    -7.2401  H       1  <O>11       0.1456
  29 H3        2.7670    -9.4280    -3.4890  H       1  <O>11       0.1747
  30 H4        2.7986   -15.6124    -4.8935  H       1  <O>11       0.1737
  31 H5        0.4056   -10.3054    -5.3192  H       1  <O>11       0.0636
  32 H6       -0.5860   -12.4703    -5.8150  H       1  <O>11       0.0619
  33 H7        0.7148   -14.5028    -5.5201  H       1  <O>11       0.0636
  34 H8        4.0083   -12.2043    -4.2397  H       1  <O>11       0.0655
@<TRIPOS>BOND
     1     1     2    1
     2     2     3    2
     3     2     4    2
     4     2     5    1
     5     5     6    1
     6     6     7   ar
     7     7     8   ar
     8     8     9   ar
     9     9    10   ar
    10    10    11    1
    11    11    12    1
    12    12    13    2
    13    12    14    2
    14    12    15    1
    15    15    16   ar
    16    16    17    1
    17    16    18   ar
    18    18    19    1
    19    18    20   ar
    20    20    21    1
    21    20    22   ar
    22    22    23    1
    23    22    24   ar
    24    15    24   ar
    25    24    25    1
    26    10    26   ar
    27     6    26   ar
    28     1    27    1
    29     1    28    1
    30     5    29    1
    31    11    30    1
    32     7    31    1
    33     8    32    1
    34     9    33    1
    35    26    34    1
@<TRIPOS>MOLECULE
mol91_2_24
 34 35 0 0 0
SMALL
USER_CHARGES
****
VDW energy = -421.62
@<TRIPOS>ATOM
   1 N1        2.6068    -8.6548    -6.8531  N.3     1  <O>11      -0.1906
   2 S1        3.6427    -8.9662    -5.6045  S.O2    1  <O>11       0.1067
   3 O1        4.9274    -9.8601    -6.1608  O.2     1  <O>11      -0.1383
   4 O2        4.1969    -7.5329    -4.9742  O.2     1  <O>11      -0.1383
   5 N2        2.8490    -9.8140    -4.4290  N.pl3   1  <O>11      -0.2067
   6 C1        1.6911    -9.2439    -3.7879  C.ar    1  <O>11       0.0508
   7 C2        1.0305    -9.9724    -2.7959  C.ar    1  <O>11      -0.0392
   8 C3       -0.1009    -9.4299    -2.1771  C.ar    1  <O>11      -0.0582
   9 C4       -0.5656    -8.1652    -2.5454  C.ar    1  <O>11      -0.0392
  10 C5        0.1106    -7.4446    -3.5358  C.ar    1  <O>11       0.0498
  11 N3       -0.3734    -6.1402    -3.9122  N.pl3   1  <O>11      -0.2160
  12 S2       -1.8433    -5.9857    -4.6511  S.O2    1  <O>11       0.0780
  13 O3       -3.0296    -6.5836    -3.6537  O.2     1  <O>11      -0.1498
  14 O4       -1.8384    -6.8378    -6.0770  O.2     1  <O>11      -0.1498
  15 C6       -2.1584    -4.2761    -4.9865  C.ar    1  <O>11       0.1843
  16 C7       -2.2115    -3.3457    -3.9348  C.ar    1  <O>11       0.1907
  17 F1       -2.0064    -3.7645    -2.6452  F       1  <O>11      -0.2002
  18 C8       -2.4712    -1.9974    -4.1999  C.ar    1  <O>11       0.1983
  19 F2       -2.5260    -1.0997    -3.1644  F       1  <O>11      -0.1993
  20 C9       -2.6781    -1.5639    -5.5121  C.ar    1  <O>11       0.1992
  21 F3       -2.9368    -0.2438    -5.7766  F       1  <O>11      -0.1993
  22 C10      -2.6184    -2.4903    -6.5591  C.ar    1  <O>11       0.1983
  23 F4       -2.8198    -2.0592    -7.8458  F       1  <O>11      -0.1993
  24 C11      -2.3565    -3.8377    -6.3066  C.ar    1  <O>11       0.1907
  25 F5       -2.2923    -4.7433    -7.3327  F       1  <O>11      -0.2002
  26 C12       1.2406    -7.9756    -4.1584  C.ar    1  <O>11      -0.0169
  27 H1        1.8178    -8.1059    -6.5115  H       1  <O>11       0.1456
  28 H2        2.2664    -9.5350    -7.2401  H       1  <O>11       0.1456
  29 H3        3.1777   -10.7403    -4.1582  H       1  <O>11       0.1747
  30 H4        0.1906    -5.3118    -3.7217  H       1  <O>11       0.1737
  31 H5        1.3751   -10.9056    -2.5210  H       1  <O>11       0.0636
  32 H6       -0.5939    -9.9660    -1.4458  H       1  <O>11       0.0619
  33 H7       -1.4013    -7.7655    -2.0905  H       1  <O>11       0.0636
  34 H8        1.7379    -7.4368    -4.8847  H       1  <O>11       0.0655
@<TRIPOS>BOND
     1     1     2    1
     2     2     3    2
     3     2     4    2
     4     2     5    1
     5     5     6    1
     6     6     7   ar
     7     7     8   ar
     8     8     9   ar
     9     9    10   ar
    10    10    11    1
    11    11    12    1
    12    12    13    2
    13    12    14    2
    14    12    15    1
    15    15    16   ar
    16    16    17    1
    17    16    18   ar
    18    18    19    1
    19    18    20   ar
    20    20    21    1
    21    20    22   ar
    22    22    23    1
    23    22    24   ar
    24    15    24   ar
    25    24    25    1
    26    10    26   ar
    27     6    26   ar
    28     1    27    1
    29     1    28    1
    30     5    29    1
    31    11    30    1
    32     7    31    1
    33     8    32    1
    34     9    33    1
    35    26    34    1
@<TRIPOS>MOLECULE
mol91_2_25
 34 35 0 0 0
SMALL
USER_CHARGES
****
VDW energy = -421.22
@<TRIPOS>ATOM
   1 N1        2.6068    -8.6548    -6.8531  N.3     1  <O>11      -0.1906
   2 S1        3.6427    -8.9662    -5.6045  S.O2    1  <O>11       0.1067
   3 O1        4.9274    -9.8601    -6.1608  O.2     1  <O>11      -0.1383
   4 O2        4.1969    -7.5329    -4.9742  O.2     1  <O>11      -0.1383
   5 N2        2.8490    -9.8140    -4.4290  N.pl3   1  <O>11      -0.2067
   6 C1        2.2740   -11.1000    -4.7330  C.ar    1  <O>11       0.0508
   7 C2        1.6060   -11.8050    -3.7290  C.ar    1  <O>11      -0.0392
   8 C3        1.0550   -13.0590    -4.0140  C.ar    1  <O>11      -0.0582
   9 C4        1.1680   -13.6020    -5.2960  C.ar    1  <O>11      -0.0392
  10 C5        1.8340   -12.8810    -6.2930  C.ar    1  <O>11       0.0498
  11 N3        1.9480   -13.4460    -7.6140  N.pl3   1  <O>11      -0.2160
  12 S2        0.5947   -13.6768    -8.5336  S.O2    1  <O>11       0.0780
  13 O3       -0.1607   -12.2184    -8.7825  O.2     1  <O>11      -0.1498
  14 O4       -0.4412   -14.7085    -7.7450  O.2     1  <O>11      -0.1498
  15 C6        1.0534   -14.3793   -10.0927  C.ar    1  <O>11       0.1843
  16 C7        1.9288   -13.6912   -10.9498  C.ar    1  <O>11       0.1907
  17 F1        2.4377   -12.4758   -10.5696  F       1  <O>11      -0.2002
  18 C8        2.2819   -14.2420   -12.1858  C.ar    1  <O>11       0.1983
  19 F2        3.1328   -13.5583   -13.0162  F       1  <O>11      -0.1993
  20 C9        1.7690   -15.4814   -12.5778  C.ar    1  <O>11       0.1992
  21 F3        2.1092   -16.0237   -13.7901  F       1  <O>11      -0.1993
  22 C10       0.9027   -16.1685   -11.7204  C.ar    1  <O>11       0.1983
  23 F4        0.4038   -17.3860   -12.1089  F       1  <O>11      -0.1993
  24 C11       0.5462   -15.6300   -10.4831  C.ar    1  <O>11       0.1907
  25 F5       -0.2975   -16.3060    -9.6416  F       1  <O>11      -0.2002
  26 C12       2.3860   -11.6290    -6.0200  C.ar    1  <O>11      -0.0169
  27 H1        1.8178    -8.1059    -6.5115  H       1  <O>11       0.1456
  28 H2        2.2664    -9.5350    -7.2401  H       1  <O>11       0.1456
  29 H3        2.7670    -9.4280    -3.4890  H       1  <O>11       0.1747
  30 H4        2.8641   -13.7024    -7.9824  H       1  <O>11       0.1737
  31 H5        1.5194   -11.4031    -2.7824  H       1  <O>11       0.0636
  32 H6        0.5633   -13.5847    -3.2744  H       1  <O>11       0.0619
  33 H7        0.7634   -14.5278    -5.5061  H       1  <O>11       0.0636
  34 H8        2.8716   -11.1000    -6.7612  H       1  <O>11       0.0655
@<TRIPOS>BOND
     1     1     2    1
     2     2     3    2
     3     2     4    2
     4     2     5    1
     5     5     6    1
     6     6     7   ar
     7     7     8   ar
     8     8     9   ar
     9     9    10   ar
    10    10    11    1
    11    11    12    1
    12    12    13    2
    13    12    14    2
    14    12    15    1
    15    15    16   ar
    16    16    17    1
    17    16    18   ar
    18    18    19    1
    19    18    20   ar
    20    20    21    1
    21    20    22   ar
    22    22    23    1
    23    22    24   ar
    24    15    24   ar
    25    24    25    1
    26    10    26   ar
    27     6    26   ar
    28     1    27    1
    29     1    28    1
    30     5    29    1
    31    11    30    1
    32     7    31    1
    33     8    32    1
    34     9    33    1
    35    26    34    1
@<TRIPOS>MOLECULE
mol91_2_26
 34 35 0 0 0
SMALL
USER_CHARGES
****
VDW energy = -418.08
@<TRIPOS>ATOM
   1 N1        2.6068    -8.6548    -6.8531  N.3     1  <O>11      -0.1906
   2 S1        3.6427    -8.9662    -5.6045  S.O2    1  <O>11       0.1067
   3 O1        4.9274    -9.8601    -6.1608  O.2     1  <O>11      -0.1383
   4 O2        4.1969    -7.5329    -4.9742  O.2     1  <O>11      -0.1383
   5 N2        2.8490    -9.8140    -4.4290  N.pl3   1  <O>11      -0.2067
   6 C1        1.6911    -9.2439    -3.7879  C.ar    1  <O>11       0.0508
   7 C2        1.0305    -9.9724    -2.7959  C.ar    1  <O>11      -0.0392
   8 C3       -0.1009    -9.4299    -2.1771  C.ar    1  <O>11      -0.0582
   9 C4       -0.5656    -8.1652    -2.5454  C.ar    1  <O>11      -0.0392
  10 C5        0.1106    -7.4446    -3.5358  C.ar    1  <O>11       0.0498
  11 N3       -0.3734    -6.1402    -3.9122  N.pl3   1  <O>11      -0.2160
  12 S2       -1.8433    -5.9857    -4.6511  S.O2    1  <O>11       0.0780
  13 O3       -2.1389    -4.3815    -4.9652  O.2     1  <O>11      -0.1498
  14 O4       -3.0299    -6.5816    -3.6530  O.2     1  <O>11      -0.1498
  15 C6       -1.8386    -6.8950    -6.1702  C.ar    1  <O>11       0.1843
  16 C7       -0.9182    -6.5774    -7.1834  C.ar    1  <O>11       0.1907
  17 F1       -0.0131    -5.5659    -6.9875  F       1  <O>11      -0.2002
  18 C8       -0.9226    -7.2892    -8.3872  C.ar    1  <O>11       0.1983
  19 F2       -0.0230    -6.9662    -9.3707  F       1  <O>11      -0.1993
  20 C9       -1.8404    -8.3228    -8.5918  C.ar    1  <O>11       0.1992
  21 F3       -1.8511    -9.0210    -9.7716  F       1  <O>11      -0.1993
  22 C10      -2.7520    -8.6425    -7.5795  C.ar    1  <O>11       0.1983
  23 F4       -3.6493    -9.6597    -7.7844  F       1  <O>11      -0.1993
  24 C11      -2.7544    -7.9412    -6.3728  C.ar    1  <O>11       0.1907
  25 F5       -3.6433    -8.2585    -5.3797  F       1  <O>11      -0.2002
  26 C12       1.2406    -7.9756    -4.1584  C.ar    1  <O>11      -0.0169
  27 H1        1.8178    -8.1059    -6.5115  H       1  <O>11       0.1456
  28 H2        2.2664    -9.5350    -7.2401  H       1  <O>11       0.1456
  29 H3        3.1777   -10.7403    -4.1582  H       1  <O>11       0.1747
  30 H4        0.1906    -5.3118    -3.7217  H       1  <O>11       0.1737
  31 H5        1.3751   -10.9056    -2.5210  H       1  <O>11       0.0636
  32 H6       -0.5939    -9.9660    -1.4458  H       1  <O>11       0.0619
  33 H7       -1.4013    -7.7655    -2.0905  H       1  <O>11       0.0636
  34 H8        1.7379    -7.4368    -4.8847  H       1  <O>11       0.0655
@<TRIPOS>BOND
     1     1     2    1
     2     2     3    2
     3     2     4    2
     4     2     5    1
     5     5     6    1
     6     6     7   ar
     7     7     8   ar
     8     8     9   ar
     9     9    10   ar
    10    10    11    1
    11    11    12    1
    12    12    13    2
    13    12    14    2
    14    12    15    1
    15    15    16   ar
    16    16    17    1
    17    16    18   ar
    18    18    19    1
    19    18    20   ar
    20    20    21    1
    21    20    22   ar
    22    22    23    1
    23    22    24   ar
    24    15    24   ar
    25    24    25    1
    26    10    26   ar
    27     6    26   ar
    28     1    27    1
    29     1    28    1
    30     5    29    1
    31    11    30    1
    32     7    31    1
    33     8    32    1
    34     9    33    1
    35    26    34    1
@<TRIPOS>MOLECULE
mol91_2_27
 34 35 0 0 0
SMALL
USER_CHARGES
****
VDW energy = -416.98
@<TRIPOS>ATOM
   1 N1        2.6068    -8.6548    -6.8531  N.3     1  <O>11      -0.1906
   2 S1        3.6427    -8.9662    -5.6045  S.O2    1  <O>11       0.1067
   3 O1        4.9274    -9.8601    -6.1608  O.2     1  <O>11      -0.1383
   4 O2        4.1969    -7.5329    -4.9742  O.2     1  <O>11      -0.1383
   5 N2        2.8490    -9.8140    -4.4290  N.pl3   1  <O>11      -0.2067
   6 C1        2.2740   -11.1000    -4.7330  C.ar    1  <O>11       0.0508
   7 C2        1.6060   -11.8050    -3.7290  C.ar    1  <O>11      -0.0392
   8 C3        1.0550   -13.0590    -4.0140  C.ar    1  <O>11      -0.0582
   9 C4        1.1680   -13.6020    -5.2960  C.ar    1  <O>11      -0.0392
  10 C5        1.8340   -12.8810    -6.2930  C.ar    1  <O>11       0.0498
  11 N3        1.9480   -13.4460    -7.6140  N.pl3   1  <O>11      -0.2160
  12 S2        2.8439   -14.8137    -7.8532  S.O2    1  <O>11       0.0780
  13 O3        2.2197   -16.0513    -6.9377  O.2     1  <O>11      -0.1498
  14 O4        4.4172   -14.5310    -7.4017  O.2     1  <O>11      -0.1498
  15 C6        2.7928   -15.2605    -9.5657  C.ar    1  <O>11       0.1843
  16 C7        1.5657   -15.5497   -10.1863  C.ar    1  <O>11       0.1907
  17 F1        0.4031   -15.4735    -9.4631  F       1  <O>11      -0.2002
  18 C8        1.5278   -15.9131   -11.5362  C.ar    1  <O>11       0.1983
  19 F2        0.3245   -16.1984   -12.1293  F       1  <O>11      -0.1993
  20 C9        2.7086   -15.9898   -12.2793  C.ar    1  <O>11       0.1992
  21 F3        2.6769   -16.3493   -13.6019  F       1  <O>11      -0.1993
  22 C10       3.9292   -15.6951   -11.6618  C.ar    1  <O>11       0.1983
  23 F4        5.0854   -15.7694   -12.3963  F       1  <O>11      -0.1993
  24 C11       3.9787   -15.3280   -10.3161  C.ar    1  <O>11       0.1907
  25 F5        5.1735   -15.0338    -9.7136  F       1  <O>11      -0.2002
  26 C12       2.3860   -11.6290    -6.0200  C.ar    1  <O>11      -0.0169
  27 H1        1.8178    -8.1059    -6.5115  H       1  <O>11       0.1456
  28 H2        2.2664    -9.5350    -7.2401  H       1  <O>11       0.1456
  29 H3        2.7670    -9.4280    -3.4890  H       1  <O>11       0.1747
  30 H4        1.4747   -13.0027    -8.4015  H       1  <O>11       0.1737
  31 H5        1.5194   -11.4031    -2.7824  H       1  <O>11       0.0636
  32 H6        0.5633   -13.5847    -3.2744  H       1  <O>11       0.0619
  33 H7        0.7634   -14.5278    -5.5061  H       1  <O>11       0.0636
  34 H8        2.8716   -11.1000    -6.7612  H       1  <O>11       0.0655
@<TRIPOS>BOND
     1     1     2    1
     2     2     3    2
     3     2     4    2
     4     2     5    1
     5     5     6    1
     6     6     7   ar
     7     7     8   ar
     8     8     9   ar
     9     9    10   ar
    10    10    11    1
    11    11    12    1
    12    12    13    2
    13    12    14    2
    14    12    15    1
    15    15    16   ar
    16    16    17    1
    17    16    18   ar
    18    18    19    1
    19    18    20   ar
    20    20    21    1
    21    20    22   ar
    22    22    23    1
    23    22    24   ar
    24    15    24   ar
    25    24    25    1
    26    10    26   ar
    27     6    26   ar
    28     1    27    1
    29     1    28    1
    30     5    29    1
    31    11    30    1
    32     7    31    1
    33     8    32    1
    34     9    33    1
    35    26    34    1
@<TRIPOS>MOLECULE
mol91_2_28
 34 35 0 0 0
SMALL
USER_CHARGES
****
VDW energy = -414.04
@<TRIPOS>ATOM
   1 N1        2.6068    -8.6548    -6.8531  N.3     1  <O>11      -0.1906
   2 S1        3.6427    -8.9662    -5.6045  S.O2    1  <O>11       0.1067
   3 O1        4.9274    -9.8601    -6.1608  O.2     1  <O>11      -0.1383
   4 O2        4.1969    -7.5329    -4.9742  O.2     1  <O>11      -0.1383
   5 N2        2.8490    -9.8140    -4.4290  N.pl3   1  <O>11      -0.2067
   6 C1        2.2740   -11.1000    -4.7330  C.ar    1  <O>11       0.0508
   7 C2        3.1160   -12.1653    -5.0608  C.ar    1  <O>11      -0.0392
   8 C3        2.5641   -13.4137    -5.3680  C.ar    1  <O>11      -0.0582
   9 C4        1.1795   -13.5960    -5.3432  C.ar    1  <O>11      -0.0392
  10 C5        0.3494   -12.5213    -5.0063  C.ar    1  <O>11       0.0498
  11 N3       -1.0787   -12.7148    -4.9825  N.pl3   1  <O>11      -0.2160
  12 S2       -2.0763   -11.4578    -4.5886  S.O2    1  <O>11       0.0780
  13 O3       -3.6565   -11.9671    -4.6439  O.2     1  <O>11      -0.1498
  14 O4       -1.8572   -10.2169    -5.6709  O.2     1  <O>11      -0.1498
  15 C6       -1.6943   -10.8906    -2.9555  C.ar    1  <O>11       0.1843
  16 C7       -2.4108    -9.8219    -2.3908  C.ar    1  <O>11       0.1907
  17 F1       -3.4177    -9.2251    -3.1054  F       1  <O>11      -0.2002
  18 C8       -2.1008    -9.3677    -1.1050  C.ar    1  <O>11       0.1983
  19 F2       -2.8037    -8.3202    -0.5667  F       1  <O>11      -0.1993
  20 C9       -1.0780    -9.9735    -0.3706  C.ar    1  <O>11       0.1992
  21 F3       -0.7679    -9.5293     0.8888  F       1  <O>11      -0.1993
  22 C10      -0.3696   -11.0419    -0.9316  C.ar    1  <O>11       0.1983
  23 F4        0.6320   -11.6349    -0.2056  F       1  <O>11      -0.1993
  24 C11      -0.6726   -11.5059    -2.2126  C.ar    1  <O>11       0.1907
  25 F5        0.0173   -12.5558    -2.7590  F       1  <O>11      -0.2002
  26 C12       0.8892   -11.2725    -4.6970  C.ar    1  <O>11      -0.0169
  27 H1        1.8178    -8.1059    -6.5115  H       1  <O>11       0.1456
  28 H2        2.2664    -9.5350    -7.2401  H       1  <O>11       0.1456
  29 H3        2.7670    -9.4280    -3.4890  H       1  <O>11       0.1747
  30 H4       -1.4742   -13.6271    -5.2101  H       1  <O>11       0.1737
  31 H5        4.1393   -12.0322    -5.0763  H       1  <O>11       0.0636
  32 H6        3.1823   -14.2027    -5.6137  H       1  <O>11       0.0619
  33 H7        0.7720   -14.5162    -5.5716  H       1  <O>11       0.0636
  34 H8        0.2717   -10.4852    -4.4443  H       1  <O>11       0.0655
@<TRIPOS>BOND
     1     1     2    1
     2     2     3    2
     3     2     4    2
     4     2     5    1
     5     5     6    1
     6     6     7   ar
     7     7     8   ar
     8     8     9   ar
     9     9    10   ar
    10    10    11    1
    11    11    12    1
    12    12    13    2
    13    12    14    2
    14    12    15    1
    15    15    16   ar
    16    16    17    1
    17    16    18   ar
    18    18    19    1
    19    18    20   ar
    20    20    21    1
    21    20    22   ar
    22    22    23    1
    23    22    24   ar
    24    15    24   ar
    25    24    25    1
    26    10    26   ar
    27     6    26   ar
    28     1    27    1
    29     1    28    1
    30     5    29    1
    31    11    30    1
    32     7    31    1
    33     8    32    1
    34     9    33    1
    35    26    34    1
@<TRIPOS>MOLECULE
mol91_2_29
 34 35 0 0 0
SMALL
USER_CHARGES
****
VDW energy = -413.85
@<TRIPOS>ATOM
   1 N1        2.6068    -8.6548    -6.8531  N.3     1  <O>11      -0.1906
   2 S1        3.6427    -8.9662    -5.6045  S.O2    1  <O>11       0.1067
   3 O1        4.9274    -9.8601    -6.1608  O.2     1  <O>11      -0.1383
   4 O2        4.1969    -7.5329    -4.9742  O.2     1  <O>11      -0.1383
   5 N2        2.8490    -9.8140    -4.4290  N.pl3   1  <O>11      -0.2067
   6 C1        2.2740   -11.1000    -4.7330  C.ar    1  <O>11       0.0508
   7 C2        1.6060   -11.8050    -3.7290  C.ar    1  <O>11      -0.0392
   8 C3        1.0550   -13.0590    -4.0140  C.ar    1  <O>11      -0.0582
   9 C4        1.1680   -13.6020    -5.2960  C.ar    1  <O>11      -0.0392
  10 C5        1.8340   -12.8810    -6.2930  C.ar    1  <O>11       0.0498
  11 N3        1.9480   -13.4460    -7.6140  N.pl3   1  <O>11      -0.2160
  12 S2        2.7320   -12.6110    -8.8050  S.O2    1  <O>11       0.0780
  13 O3        4.3050   -12.3380    -8.3460  O.2     1  <O>11      -0.1498
  14 O4        1.9690   -11.1570    -9.0560  O.2     1  <O>11      -0.1498
  15 C6        2.7080   -13.5560   -10.3020  C.ar    1  <O>11       0.1843
  16 C7        3.2950   -14.8320   -10.3440  C.ar    1  <O>11       0.1907
  17 F1        3.8780   -15.3500    -9.2160  F       1  <O>11      -0.2002
  18 C8        3.2850   -15.5730   -11.5300  C.ar    1  <O>11       0.1983
  19 F2        3.8660   -16.8150   -11.5600  F       1  <O>11      -0.1993
  20 C9        2.6900   -15.0520   -12.6820  C.ar    1  <O>11       0.1992
  21 F3        2.6810   -15.7730   -13.8480  F       1  <O>11      -0.1993
  22 C10       2.1000   -13.7840   -12.6370  C.ar    1  <O>11       0.1983
  23 F4        1.5150   -13.2780   -13.7700  F       1  <O>11      -0.1993
  24 C11       2.1010   -13.0370   -11.4580  C.ar    1  <O>11       0.1907
  25 F5        1.5180   -11.7980   -11.4130  F       1  <O>11      -0.2002
  26 C12       2.3860   -11.6290    -6.0200  C.ar    1  <O>11      -0.0169
  27 H1        1.8178    -8.1059    -6.5115  H       1  <O>11       0.1456
  28 H2        2.2664    -9.5350    -7.2401  H       1  <O>11       0.1456
  29 H3        2.7670    -9.4280    -3.4890  H       1  <O>11       0.1747
  30 H4        1.5460   -14.3620    -7.8140  H       1  <O>11       0.1737
  31 H5        1.5194   -11.4031    -2.7824  H       1  <O>11       0.0636
  32 H6        0.5633   -13.5847    -3.2744  H       1  <O>11       0.0619
  33 H7        0.7634   -14.5278    -5.5061  H       1  <O>11       0.0636
  34 H8        2.8716   -11.1000    -6.7612  H       1  <O>11       0.0655
@<TRIPOS>BOND
     1     1     2    1
     2     2     3    2
     3     2     4    2
     4     2     5    1
     5     5     6    1
     6     6     7   ar
     7     7     8   ar
     8     8     9   ar
     9     9    10   ar
    10    10    11    1
    11    11    12    1
    12    12    13    2
    13    12    14    2
    14    12    15    1
    15    15    16   ar
    16    16    17    1
    17    16    18   ar
    18    18    19    1
    19    18    20   ar
    20    20    21    1
    21    20    22   ar
    22    22    23    1
    23    22    24   ar
    24    15    24   ar
    25    24    25    1
    26    10    26   ar
    27     6    26   ar
    28     1    27    1
    29     1    28    1
    30     5    29    1
    31    11    30    1
    32     7    31    1
    33     8    32    1
    34     9    33    1
    35    26    34    1
@<TRIPOS>MOLECULE
mol91_2_30
 34 35 0 0 0
SMALL
USER_CHARGES
****
VDW energy = -411.19
@<TRIPOS>ATOM
   1 N1        2.6068    -8.6548    -6.8531  N.3     1  <O>11      -0.1906
   2 S1        3.6427    -8.9662    -5.6045  S.O2    1  <O>11       0.1067
   3 O1        4.9274    -9.8601    -6.1608  O.2     1  <O>11      -0.1383
   4 O2        4.1969    -7.5329    -4.9742  O.2     1  <O>11      -0.1383
   5 N2        2.8490    -9.8140    -4.4290  N.pl3   1  <O>11      -0.2067
   6 C1        3.5455   -10.2063    -3.2299  C.ar    1  <O>11       0.0508
   7 C2        2.8614   -10.9226    -2.2450  C.ar    1  <O>11      -0.0392
   8 C3        3.5281   -11.2971    -1.0734  C.ar    1  <O>11      -0.0582
   9 C4        4.8714   -10.9607    -0.8905  C.ar    1  <O>11      -0.0392
  10 C5        5.5452   -10.2489    -1.8888  C.ar    1  <O>11       0.0498
  11 N3        6.9311    -9.9041    -1.6949  N.pl3   1  <O>11      -0.2160
  12 S2        7.7443    -9.0625    -2.8614  S.O2    1  <O>11       0.0780
  13 O3        6.9963    -7.6006    -3.1121  O.2     1  <O>11      -0.1498
  14 O4        7.7428    -9.9341    -4.2755  O.2     1  <O>11      -0.1498
  15 C6        9.4136    -8.7909    -2.3376  C.ar    1  <O>11       0.1843
  16 C7        9.6786    -8.0730    -1.1591  C.ar    1  <O>11       0.1907
  17 F1        8.6376    -7.5920    -0.4070  F       1  <O>11      -0.2002
  18 C8       10.9978    -7.8498    -0.7521  C.ar    1  <O>11       0.1983
  19 F2       11.2438    -7.1430     0.3972  F       1  <O>11      -0.1993
  20 C9       12.0628    -8.3398    -1.5125  C.ar    1  <O>11       0.1992
  21 F3       13.3578    -8.1203    -1.1197  F       1  <O>11      -0.1993
  22 C10      11.7974    -9.0602    -2.6823  C.ar    1  <O>11       0.1983
  23 F4       12.8464    -9.5413    -3.4240  F       1  <O>11      -0.1993
  24 C11      10.4848    -9.2920    -3.0963  C.ar    1  <O>11       0.1907
  25 F5       10.2255   -10.0024    -4.2387  F       1  <O>11      -0.2002
  26 C12       4.8903    -9.8717    -3.0617  C.ar    1  <O>11      -0.0169
  27 H1        1.8178    -8.1059    -6.5115  H       1  <O>11       0.1456
  28 H2        2.2664    -9.5350    -7.2401  H       1  <O>11       0.1456
  29 H3        1.8669   -10.0585    -4.5515  H       1  <O>11       0.1747
  30 H4        7.4103   -10.1783    -0.8370  H       1  <O>11       0.1737
  31 H5        1.8697   -11.1742    -2.3808  H       1  <O>11       0.0636
  32 H6        3.0257   -11.8238    -0.3418  H       1  <O>11       0.0619
  33 H7        5.3630   -11.2350    -0.0256  H       1  <O>11       0.0636
  34 H8        5.3944    -9.3512    -3.7965  H       1  <O>11       0.0655
@<TRIPOS>BOND
     1     1     2    1
     2     2     3    2
     3     2     4    2
     4     2     5    1
     5     5     6    1
     6     6     7   ar
     7     7     8   ar
     8     8     9   ar
     9     9    10   ar
    10    10    11    1
    11    11    12    1
    12    12    13    2
    13    12    14    2
    14    12    15    1
    15    15    16   ar
    16    16    17    1
    17    16    18   ar
    18    18    19    1
    19    18    20   ar
    20    20    21    1
    21    20    22   ar
    22    22    23    1
    23    22    24   ar
    24    15    24   ar
    25    24    25    1
    26    10    26   ar
    27     6    26   ar
    28     1    27    1
    29     1    28    1
    30     5    29    1
    31    11    30    1
    32     7    31    1
    33     8    32    1
    34     9    33    1
    35    26    34    1
@<TRIPOS>MOLECULE
mol91_3_1
 34 35 0 0 0
SMALL
USER_CHARGES
****
VDW energy = -428.59
@<TRIPOS>ATOM
   1 N1        2.6154   -11.0930    -2.0656  N.3     1  <O>11      -0.1906
   2 S1        3.6472   -10.2648    -3.0548  S.O2    1  <O>11       0.1067
   3 O1        4.2018    -8.9113    -2.2678  O.2     1  <O>11      -0.1383
   4 O2        4.9323   -11.2385    -3.4543  O.2     1  <O>11      -0.1383
   5 N2        2.8490    -9.8140    -4.4290  N.pl3   1  <O>11      -0.2067
   6 C1        2.2717   -10.8146    -5.2891  C.ar    1  <O>11       0.0508
   7 C2        1.2094   -11.5904    -4.8188  C.ar    1  <O>11      -0.0392
   8 C3        0.6524   -12.5732    -5.6429  C.ar    1  <O>11      -0.0582
   9 C4        1.1516   -12.7762    -6.9326  C.ar    1  <O>11      -0.0392
  10 C5        2.2114   -11.9864    -7.3924  C.ar    1  <O>11       0.0498
  11 N3        2.7215   -12.1989    -8.7234  N.pl3   1  <O>11      -0.2160
  12 S2        1.7688   -11.8764   -10.0338  S.O2    1  <O>11       0.0780
  13 O3        1.3328   -10.2726   -10.0204  O.2     1  <O>11      -0.1498
  14 O4        0.4026   -12.8210    -9.9713  O.2     1  <O>11      -0.1498
  15 C6        2.6656   -12.2319   -11.5172  C.ar    1  <O>11       0.1843
  16 C7        3.6486   -13.2375   -11.5284  C.ar    1  <O>11       0.1907
  17 F1        3.9035   -13.9518   -10.3847  F       1  <O>11      -0.2002
  18 C8        4.3663   -13.5102   -12.6980  C.ar    1  <O>11       0.1983
  19 F2        5.3231   -14.4907   -12.6970  F       1  <O>11      -0.1993
  20 C9        4.1077   -12.7874   -13.8660  C.ar    1  <O>11       0.1992
  21 F3        4.8104   -13.0464   -15.0134  F       1  <O>11      -0.1993
  22 C10       3.1260   -11.7904   -13.8562  C.ar    1  <O>11       0.1983
  23 F4        2.8771   -11.0863   -15.0044  F       1  <O>11      -0.1993
  24 C11       2.4028   -11.5131   -12.6950  C.ar    1  <O>11       0.1907
  25 F5        1.4336   -10.5421   -12.6875  F       1  <O>11      -0.2002
  26 C12       2.7738   -11.0031    -6.5784  C.ar    1  <O>11      -0.0169
  27 H1        2.2749   -11.9241    -2.5490  H       1  <O>11       0.1456
  28 H2        1.8263   -10.4950    -1.8204  H       1  <O>11       0.1456
  29 H3        2.7643    -8.8257    -4.6685  H       1  <O>11       0.1747
  30 H4        3.6711   -12.5473    -8.8570  H       1  <O>11       0.1737
  31 H5        0.8377   -11.4390    -3.8682  H       1  <O>11       0.0636
  32 H6       -0.1302   -13.1507    -5.2976  H       1  <O>11       0.0619
  33 H7        0.7421   -13.5026    -7.5406  H       1  <O>11       0.0636
  34 H8        3.5524   -10.4212    -6.9252  H       1  <O>11       0.0655
@<TRIPOS>BOND
     1     1     2    1
     2     2     3    2
     3     2     4    2
     4     2     5    1
     5     5     6    1
     6     6     7   ar
     7     7     8   ar
     8     8     9   ar
     9     9    10   ar
    10    10    11    1
    11    11    12    1
    12    12    13    2
    13    12    14    2
    14    12    15    1
    15    15    16   ar
    16    16    17    1
    17    16    18   ar
    18    18    19    1
    19    18    20   ar
    20    20    21    1
    21    20    22   ar
    22    22    23    1
    23    22    24   ar
    24    15    24   ar
    25    24    25    1
    26    10    26   ar
    27     6    26   ar
    28     1    27    1
    29     1    28    1
    30     5    29    1
    31    11    30    1
    32     7    31    1
    33     8    32    1
    34     9    33    1
    35    26    34    1
@<TRIPOS>MOLECULE
mol91_3_2
 34 35 0 0 0
SMALL
USER_CHARGES
****
VDW energy = -428.09
@<TRIPOS>ATOM
   1 N1        2.6154   -11.0930    -2.0656  N.3     1  <O>11      -0.1906
   2 S1        3.6472   -10.2648    -3.0548  S.O2    1  <O>11       0.1067
   3 O1        4.2018    -8.9113    -2.2678  O.2     1  <O>11      -0.1383
   4 O2        4.9323   -11.2385    -3.4543  O.2     1  <O>11      -0.1383
   5 N2        2.8490    -9.8140    -4.4290  N.pl3   1  <O>11      -0.2067
   6 C1        1.6910    -8.9620    -4.3440  C.ar    1  <O>11       0.0508
   7 C2        1.8563    -7.5759    -4.3971  C.ar    1  <O>11      -0.0392
   8 C3        0.7383    -6.7414    -4.3016  C.ar    1  <O>11      -0.0582
   9 C4       -0.5393    -7.2901    -4.1586  C.ar    1  <O>11      -0.0392
  10 C5       -0.6900    -8.6807    -4.1142  C.ar    1  <O>11       0.0498
  11 N3       -2.0095    -9.2413    -3.9680  N.pl3   1  <O>11      -0.2160
  12 S2       -2.2085   -10.8802    -3.9119  S.O2    1  <O>11       0.0780
  13 O3       -1.3630   -11.4970    -2.6208  O.2     1  <O>11      -0.1498
  14 O4       -1.6383   -11.5559    -5.3194  O.2     1  <O>11      -0.1498
  15 C6       -3.9268   -11.2601    -3.7279  C.ar    1  <O>11       0.1843
  16 C7       -4.9046   -10.3992    -4.2576  C.ar    1  <O>11       0.1907
  17 F1       -4.5207    -9.2656    -4.9289  F       1  <O>11      -0.2002
  18 C8       -6.2635   -10.6933    -4.1013  C.ar    1  <O>11       0.1983
  19 F2       -7.2076    -9.8464    -4.6196  F       1  <O>11      -0.1993
  20 C9       -6.6590   -11.8484    -3.4211  C.ar    1  <O>11       0.1992
  21 F3       -7.9883   -12.1395    -3.2606  F       1  <O>11      -0.1993
  22 C10      -5.6861   -12.7076    -2.8987  C.ar    1  <O>11       0.1983
  23 F4       -6.0806   -13.8383    -2.2338  F       1  <O>11      -0.1993
  24 C11      -4.3280   -12.4243    -3.0520  C.ar    1  <O>11       0.1907
  25 F5       -3.3736   -13.2714    -2.5481  F       1  <O>11      -0.2002
  26 C12       0.4189    -9.5218    -4.2091  C.ar    1  <O>11      -0.0169
  27 H1        2.2749   -11.9241    -2.5490  H       1  <O>11       0.1456
  28 H2        1.8263   -10.4950    -1.8204  H       1  <O>11       0.1456
  29 H3        3.1770   -10.1390    -5.3390  H       1  <O>11       0.1747
  30 H4       -2.8208    -8.6267    -3.8978  H       1  <O>11       0.1737
  31 H5        2.7987    -7.1698    -4.5063  H       1  <O>11       0.0636
  32 H6        0.8569    -5.7169    -4.3369  H       1  <O>11       0.0619
  33 H7       -1.3646    -6.6748    -4.0863  H       1  <O>11       0.0636
  34 H8        0.3003   -10.5465    -4.1800  H       1  <O>11       0.0655
@<TRIPOS>BOND
     1     1     2    1
     2     2     3    2
     3     2     4    2
     4     2     5    1
     5     5     6    1
     6     6     7   ar
     7     7     8   ar
     8     8     9   ar
     9     9    10   ar
    10    10    11    1
    11    11    12    1
    12    12    13    2
    13    12    14    2
    14    12    15    1
    15    15    16   ar
    16    16    17    1
    17    16    18   ar
    18    18    19    1
    19    18    20   ar
    20    20    21    1
    21    20    22   ar
    22    22    23    1
    23    22    24   ar
    24    15    24   ar
    25    24    25    1
    26    10    26   ar
    27     6    26   ar
    28     1    27    1
    29     1    28    1
    30     5    29    1
    31    11    30    1
    32     7    31    1
    33     8    32    1
    34     9    33    1
    35    26    34    1
@<TRIPOS>MOLECULE
mol91_3_3
 34 35 0 0 0
SMALL
USER_CHARGES
****
VDW energy = -427.31
@<TRIPOS>ATOM
   1 N1        2.6154   -11.0930    -2.0656  N.3     1  <O>11      -0.1906
   2 S1        3.6472   -10.2648    -3.0548  S.O2    1  <O>11       0.1067
   3 O1        4.2018    -8.9113    -2.2678  O.2     1  <O>11      -0.1383
   4 O2        4.9323   -11.2385    -3.4543  O.2     1  <O>11      -0.1383
   5 N2        2.8490    -9.8140    -4.4290  N.pl3   1  <O>11      -0.2067
   6 C1        1.6910    -8.9620    -4.3440  C.ar    1  <O>11       0.0508
   7 C2        1.8563    -7.5759    -4.3971  C.ar    1  <O>11      -0.0392
   8 C3        0.7383    -6.7414    -4.3016  C.ar    1  <O>11      -0.0582
   9 C4       -0.5393    -7.2901    -4.1586  C.ar    1  <O>11      -0.0392
  10 C5       -0.6900    -8.6807    -4.1142  C.ar    1  <O>11       0.0498
  11 N3       -2.0095    -9.2413    -3.9680  N.pl3   1  <O>11      -0.2160
  12 S2       -2.2085   -10.8802    -3.9119  S.O2    1  <O>11       0.0780
  13 O3       -1.3630   -11.4970    -2.6208  O.2     1  <O>11      -0.1498
  14 O4       -1.6383   -11.5559    -5.3194  O.2     1  <O>11      -0.1498
  15 C6       -3.9268   -11.2601    -3.7279  C.ar    1  <O>11       0.1843
  16 C7       -4.6400   -10.7973    -2.6077  C.ar    1  <O>11       0.1907
  17 F1       -3.9999   -10.0387    -1.6602  F       1  <O>11      -0.2002
  18 C8       -5.9957   -11.1081    -2.4561  C.ar    1  <O>11       0.1983
  19 F2       -6.6802   -10.6537    -1.3598  F       1  <O>11      -0.1993
  20 C9       -6.6525   -11.8778    -3.4204  C.ar    1  <O>11       0.1992
  21 F3       -7.9788   -12.1896    -3.2753  F       1  <O>11      -0.1993
  22 C10      -5.9442   -12.3339    -4.5375  C.ar    1  <O>11       0.1983
  23 F4       -6.5940   -13.0871    -5.4791  F       1  <O>11      -0.1993
  24 C11      -4.5922   -12.0265    -4.6991  C.ar    1  <O>11       0.1907
  25 F5       -3.8997   -12.4656    -5.7990  F       1  <O>11      -0.2002
  26 C12       0.4189    -9.5218    -4.2091  C.ar    1  <O>11      -0.0169
  27 H1        2.2749   -11.9241    -2.5490  H       1  <O>11       0.1456
  28 H2        1.8263   -10.4950    -1.8204  H       1  <O>11       0.1456
  29 H3        3.1770   -10.1390    -5.3390  H       1  <O>11       0.1747
  30 H4       -2.8208    -8.6267    -3.8978  H       1  <O>11       0.1737
  31 H5        2.7987    -7.1698    -4.5063  H       1  <O>11       0.0636
  32 H6        0.8569    -5.7169    -4.3369  H       1  <O>11       0.0619
  33 H7       -1.3646    -6.6748    -4.0863  H       1  <O>11       0.0636
  34 H8        0.3003   -10.5465    -4.1800  H       1  <O>11       0.0655
@<TRIPOS>BOND
     1     1     2    1
     2     2     3    2
     3     2     4    2
     4     2     5    1
     5     5     6    1
     6     6     7   ar
     7     7     8   ar
     8     8     9   ar
     9     9    10   ar
    10    10    11    1
    11    11    12    1
    12    12    13    2
    13    12    14    2
    14    12    15    1
    15    15    16   ar
    16    16    17    1
    17    16    18   ar
    18    18    19    1
    19    18    20   ar
    20    20    21    1
    21    20    22   ar
    22    22    23    1
    23    22    24   ar
    24    15    24   ar
    25    24    25    1
    26    10    26   ar
    27     6    26   ar
    28     1    27    1
    29     1    28    1
    30     5    29    1
    31    11    30    1
    32     7    31    1
    33     8    32    1
    34     9    33    1
    35    26    34    1
@<TRIPOS>MOLECULE
mol91_3_4
 34 35 0 0 0
SMALL
USER_CHARGES
****
VDW energy = -425.72
@<TRIPOS>ATOM
   1 N1        2.6154   -11.0930    -2.0656  N.3     1  <O>11      -0.1906
   2 S1        3.6472   -10.2648    -3.0548  S.O2    1  <O>11       0.1067
   3 O1        4.2018    -8.9113    -2.2678  O.2     1  <O>11      -0.1383
   4 O2        4.9323   -11.2385    -3.4543  O.2     1  <O>11      -0.1383
   5 N2        2.8490    -9.8140    -4.4290  N.pl3   1  <O>11      -0.2067
   6 C1        2.2717   -10.8146    -5.2891  C.ar    1  <O>11       0.0508
   7 C2        3.1116   -11.7056    -5.9615  C.ar    1  <O>11      -0.0392
   8 C3        2.5597   -12.6713    -6.8090  C.ar    1  <O>11      -0.0582
   9 C4        1.1746   -12.7490    -6.9796  C.ar    1  <O>11      -0.0392
  10 C5        0.3455   -11.8544    -6.2937  C.ar    1  <O>11       0.0498
  11 N3       -1.0820   -11.9397    -6.4721  N.pl3   1  <O>11      -0.2160
  12 S2       -2.0779   -10.8918    -5.6727  S.O2    1  <O>11       0.0780
  13 O3       -1.7090    -9.3322    -6.1129  O.2     1  <O>11      -0.1498
  14 O4       -1.8663   -11.0680    -4.0335  O.2     1  <O>11      -0.1498
  15 C6       -3.7610   -11.2411    -6.0921  C.ar    1  <O>11       0.1843
  16 C7       -4.1529   -12.5507    -6.4225  C.ar    1  <O>11       0.1907
  17 F1       -3.2254   -13.5619    -6.4082  F       1  <O>11      -0.2002
  18 C8       -5.4813   -12.8246    -6.7661  C.ar    1  <O>11       0.1983
  19 F2       -5.8515   -14.1036    -7.0883  F       1  <O>11      -0.1993
  20 C9       -6.4299   -11.7982    -6.7788  C.ar    1  <O>11       0.1992
  21 F3       -7.7313   -12.0591    -7.1191  F       1  <O>11      -0.1993
  22 C10      -6.0411   -10.4962    -6.4451  C.ar    1  <O>11       0.1983
  23 F4       -6.9760    -9.4953    -6.4588  F       1  <O>11      -0.1993
  24 C11      -4.7189   -10.2137    -6.0980  C.ar    1  <O>11       0.1907
  25 F5       -4.3392    -8.9390    -5.7615  F       1  <O>11      -0.2002
  26 C12       0.8861   -10.8877    -5.4456  C.ar    1  <O>11      -0.0169
  27 H1        2.2749   -11.9241    -2.5490  H       1  <O>11       0.1456
  28 H2        1.8263   -10.4950    -1.8204  H       1  <O>11       0.1456
  29 H3        2.7643    -8.8257    -4.6685  H       1  <O>11       0.1747
  30 H4       -1.4780   -12.6460    -7.0927  H       1  <O>11       0.1737
  31 H5        4.1342   -11.6514    -5.8335  H       1  <O>11       0.0636
  32 H6        3.1773   -13.3289    -7.3102  H       1  <O>11       0.0619
  33 H7        0.7667   -13.4604    -7.6062  H       1  <O>11       0.0636
  34 H8        0.2687   -10.2337    -4.9395  H       1  <O>11       0.0655
@<TRIPOS>BOND
     1     1     2    1
     2     2     3    2
     3     2     4    2
     4     2     5    1
     5     5     6    1
     6     6     7   ar
     7     7     8   ar
     8     8     9   ar
     9     9    10   ar
    10    10    11    1
    11    11    12    1
    12    12    13    2
    13    12    14    2
    14    12    15    1
    15    15    16   ar
    16    16    17    1
    17    16    18   ar
    18    18    19    1
    19    18    20   ar
    20    20    21    1
    21    20    22   ar
    22    22    23    1
    23    22    24   ar
    24    15    24   ar
    25    24    25    1
    26    10    26   ar
    27     6    26   ar
    28     1    27    1
    29     1    28    1
    30     5    29    1
    31    11    30    1
    32     7    31    1
    33     8    32    1
    34     9    33    1
    35    26    34    1
@<TRIPOS>MOLECULE
mol91_3_5
 34 35 0 0 0
SMALL
USER_CHARGES
****
VDW energy = -425.04
@<TRIPOS>ATOM
   1 N1        2.6154   -11.0930    -2.0656  N.3     1  <O>11      -0.1906
   2 S1        3.6472   -10.2648    -3.0548  S.O2    1  <O>11       0.1067
   3 O1        4.2018    -8.9113    -2.2678  O.2     1  <O>11      -0.1383
   4 O2        4.9323   -11.2385    -3.4543  O.2     1  <O>11      -0.1383
   5 N2        2.8490    -9.8140    -4.4290  N.pl3   1  <O>11      -0.2067
   6 C1        1.6910    -8.9620    -4.3440  C.ar    1  <O>11       0.0508
   7 C2        1.8398    -7.6486    -3.8919  C.ar    1  <O>11      -0.0392
   8 C3        0.7183    -6.8193    -3.7937  C.ar    1  <O>11      -0.0582
   9 C4       -0.5452    -7.2990    -4.1502  C.ar    1  <O>11      -0.0392
  10 C5       -0.6776    -8.6146    -4.6082  C.ar    1  <O>11       0.0498
  11 N3       -1.9824    -9.1039    -4.9758  N.pl3   1  <O>11      -0.2160
  12 S2       -2.1602   -10.6544    -5.5173  S.O2    1  <O>11       0.0780
  13 O3       -1.6485   -11.7134    -4.3429  O.2     1  <O>11      -0.1498
  14 O4       -1.2486   -10.8695    -6.8904  O.2     1  <O>11      -0.1498
  15 C6       -3.8638   -10.9593    -5.8854  C.ar    1  <O>11       0.1843
  16 C7       -4.8394   -10.8416    -4.8792  C.ar    1  <O>11       0.1907
  17 F1       -4.4662   -10.4779    -3.6097  F       1  <O>11      -0.2002
  18 C8       -6.1849   -11.0947    -5.1674  C.ar    1  <O>11       0.1983
  19 F2       -7.1265   -10.9790    -4.1791  F       1  <O>11      -0.1993
  20 C9       -6.5698   -11.4621    -6.4599  C.ar    1  <O>11       0.1992
  21 F3       -7.8852   -11.7160    -6.7473  F       1  <O>11      -0.1993
  22 C10      -5.5999   -11.5742    -7.4621  C.ar    1  <O>11       0.1983
  23 F4       -5.9840   -11.9340    -8.7266  F       1  <O>11      -0.1993
  24 C11      -4.2555   -11.3209    -7.1850  C.ar    1  <O>11       0.1907
  25 F5       -3.3054   -11.4214    -8.1696  F       1  <O>11      -0.2002
  26 C12       0.4350    -9.4499    -4.7104  C.ar    1  <O>11      -0.0169
  27 H1        2.2749   -11.9241    -2.5490  H       1  <O>11       0.1456
  28 H2        1.8263   -10.4950    -1.8204  H       1  <O>11       0.1456
  29 H3        3.1770   -10.1390    -5.3390  H       1  <O>11       0.1747
  30 H4       -2.7966    -8.4937    -4.9007  H       1  <O>11       0.1737
  31 H5        2.7727    -7.2922    -3.6318  H       1  <O>11       0.0636
  32 H6        0.8239    -5.8495    -3.4567  H       1  <O>11       0.0619
  33 H7       -1.3736    -6.6879    -4.0762  H       1  <O>11       0.0636
  34 H8        0.3309   -10.4178    -5.0529  H       1  <O>11       0.0655
@<TRIPOS>BOND
     1     1     2    1
     2     2     3    2
     3     2     4    2
     4     2     5    1
     5     5     6    1
     6     6     7   ar
     7     7     8   ar
     8     8     9   ar
     9     9    10   ar
    10    10    11    1
    11    11    12    1
    12    12    13    2
    13    12    14    2
    14    12    15    1
    15    15    16   ar
    16    16    17    1
    17    16    18   ar
    18    18    19    1
    19    18    20   ar
    20    20    21    1
    21    20    22   ar
    22    22    23    1
    23    22    24   ar
    24    15    24   ar
    25    24    25    1
    26    10    26   ar
    27     6    26   ar
    28     1    27    1
    29     1    28    1
    30     5    29    1
    31    11    30    1
    32     7    31    1
    33     8    32    1
    34     9    33    1
    35    26    34    1
@<TRIPOS>MOLECULE
mol91_3_6
 34 35 0 0 0
SMALL
USER_CHARGES
****
VDW energy = -423.76
@<TRIPOS>ATOM
   1 N1        2.6154   -11.0930    -2.0656  N.3     1  <O>11      -0.1906
   2 S1        3.6472   -10.2648    -3.0548  S.O2    1  <O>11       0.1067
   3 O1        4.2018    -8.9113    -2.2678  O.2     1  <O>11      -0.1383
   4 O2        4.9323   -11.2385    -3.4543  O.2     1  <O>11      -0.1383
   5 N2        2.8490    -9.8140    -4.4290  N.pl3   1  <O>11      -0.2067
   6 C1        1.6910    -8.9620    -4.3440  C.ar    1  <O>11       0.0508
   7 C2        1.0280    -8.5900    -5.5160  C.ar    1  <O>11      -0.0392
   8 C3       -0.0890    -7.7520    -5.4430  C.ar    1  <O>11      -0.0582
   9 C4       -0.5440    -7.2920    -4.2040  C.ar    1  <O>11      -0.0392
  10 C5        0.1260    -7.6790    -3.0380  C.ar    1  <O>11       0.0498
  11 N3       -0.3480    -7.2030    -1.7630  N.pl3   1  <O>11      -0.2160
  12 S2       -1.4720    -8.0743    -0.9225  S.O2    1  <O>11       0.0780
  13 O3       -0.8653    -9.5852    -0.5887  O.2     1  <O>11      -0.1498
  14 O4       -2.8533    -8.2229    -1.8351  O.2     1  <O>11      -0.1498
  15 C6       -1.8514    -7.2425     0.5924  C.ar    1  <O>11       0.1843
  16 C7       -2.3823    -5.9404     0.5734  C.ar    1  <O>11       0.1907
  17 F1       -2.6161    -5.3190    -0.6276  F       1  <O>11      -0.2002
  18 C8       -2.6706    -5.2780     1.7715  C.ar    1  <O>11       0.1983
  19 F2       -3.1857    -4.0089     1.7412  F       1  <O>11      -0.1993
  20 C9       -2.4371    -5.9084     2.9970  C.ar    1  <O>11       0.1992
  21 F3       -2.7130    -5.2632     4.1739  F       1  <O>11      -0.1993
  22 C10      -1.9137    -7.2058     3.0158  C.ar    1  <O>11       0.1983
  23 F4       -1.6880    -7.8180     4.2201  F       1  <O>11      -0.1993
  24 C11      -1.6256    -7.8759     1.8257  C.ar    1  <O>11       0.1907
  25 F5       -1.1213    -9.1517     1.8435  F       1  <O>11      -0.2002
  26 C12       1.2410    -8.5150    -3.1000  C.ar    1  <O>11      -0.0169
  27 H1        2.2749   -11.9241    -2.5490  H       1  <O>11       0.1456
  28 H2        1.8263   -10.4950    -1.8204  H       1  <O>11       0.1456
  29 H3        3.1770   -10.1390    -5.3390  H       1  <O>11       0.1747
  30 H4        0.0110    -6.3289    -1.3784  H       1  <O>11       0.1737
  31 H5        1.3609    -8.9319    -6.4310  H       1  <O>11       0.0636
  32 H6       -0.5792    -7.4722    -6.3070  H       1  <O>11       0.0619
  33 H7       -1.3673    -6.6721    -4.1496  H       1  <O>11       0.0636
  34 H8        1.7280    -8.8000    -2.2359  H       1  <O>11       0.0655
@<TRIPOS>BOND
     1     1     2    1
     2     2     3    2
     3     2     4    2
     4     2     5    1
     5     5     6    1
     6     6     7   ar
     7     7     8   ar
     8     8     9   ar
     9     9    10   ar
    10    10    11    1
    11    11    12    1
    12    12    13    2
    13    12    14    2
    14    12    15    1
    15    15    16   ar
    16    16    17    1
    17    16    18   ar
    18    18    19    1
    19    18    20   ar
    20    20    21    1
    21    20    22   ar
    22    22    23    1
    23    22    24   ar
    24    15    24   ar
    25    24    25    1
    26    10    26   ar
    27     6    26   ar
    28     1    27    1
    29     1    28    1
    30     5    29    1
    31    11    30    1
    32     7    31    1
    33     8    32    1
    34     9    33    1
    35    26    34    1
@<TRIPOS>MOLECULE
mol91_3_7
 34 35 0 0 0
SMALL
USER_CHARGES
****
VDW energy = -423.67
@<TRIPOS>ATOM
   1 N1        2.6154   -11.0930    -2.0656  N.3     1  <O>11      -0.1906
   2 S1        3.6472   -10.2648    -3.0548  S.O2    1  <O>11       0.1067
   3 O1        4.2018    -8.9113    -2.2678  O.2     1  <O>11      -0.1383
   4 O2        4.9323   -11.2385    -3.4543  O.2     1  <O>11      -0.1383
   5 N2        2.8490    -9.8140    -4.4290  N.pl3   1  <O>11      -0.2067
   6 C1        1.6910    -8.9620    -4.3440  C.ar    1  <O>11       0.0508
   7 C2        1.0280    -8.5900    -5.5160  C.ar    1  <O>11      -0.0392
   8 C3       -0.0890    -7.7520    -5.4430  C.ar    1  <O>11      -0.0582
   9 C4       -0.5440    -7.2920    -4.2040  C.ar    1  <O>11      -0.0392
  10 C5        0.1260    -7.6790    -3.0380  C.ar    1  <O>11       0.0498
  11 N3       -0.3480    -7.2030    -1.7630  N.pl3   1  <O>11      -0.2160
  12 S2        0.4300    -7.6470    -0.3750  S.O2    1  <O>11       0.0780
  13 O3        0.3933    -9.3017    -0.2244  O.2     1  <O>11      -0.1498
  14 O4       -0.3307    -6.9563     0.9316  O.2     1  <O>11      -0.1498
  15 C6        2.1106    -7.0972    -0.4388  C.ar    1  <O>11       0.1843
  16 C7        2.4508    -5.9362    -1.1560  C.ar    1  <O>11       0.1907
  17 F1        1.4707    -5.2228    -1.7991  F       1  <O>11      -0.2002
  18 C8        3.7815    -5.5084    -1.2166  C.ar    1  <O>11       0.1983
  19 F2        4.1018    -4.3771    -1.9198  F       1  <O>11      -0.1993
  20 C9        4.7824    -6.2301    -0.5603  C.ar    1  <O>11       0.1992
  21 F3        6.0882    -5.8190    -0.6200  F       1  <O>11      -0.1993
  22 C10       4.4433    -7.3823     0.1574  C.ar    1  <O>11       0.1983
  23 F4        5.4290    -8.0844     0.7989  F       1  <O>11      -0.1993
  24 C11       3.1181    -7.8154     0.2262  C.ar    1  <O>11       0.1907
  25 F5        2.7838    -8.9397     0.9378  F       1  <O>11      -0.2002
  26 C12       1.2410    -8.5150    -3.1000  C.ar    1  <O>11      -0.0169
  27 H1        2.2749   -11.9241    -2.5490  H       1  <O>11       0.1456
  28 H2        1.8263   -10.4950    -1.8204  H       1  <O>11       0.1456
  29 H3        3.1770   -10.1390    -5.3390  H       1  <O>11       0.1747
  30 H4       -1.1630    -6.5910    -1.7170  H       1  <O>11       0.1737
  31 H5        1.3609    -8.9319    -6.4310  H       1  <O>11       0.0636
  32 H6       -0.5792    -7.4722    -6.3070  H       1  <O>11       0.0619
  33 H7       -1.3673    -6.6721    -4.1496  H       1  <O>11       0.0636
  34 H8        1.7280    -8.8000    -2.2359  H       1  <O>11       0.0655
@<TRIPOS>BOND
     1     1     2    1
     2     2     3    2
     3     2     4    2
     4     2     5    1
     5     5     6    1
     6     6     7   ar
     7     7     8   ar
     8     8     9   ar
     9     9    10   ar
    10    10    11    1
    11    11    12    1
    12    12    13    2
    13    12    14    2
    14    12    15    1
    15    15    16   ar
    16    16    17    1
    17    16    18   ar
    18    18    19    1
    19    18    20   ar
    20    20    21    1
    21    20    22   ar
    22    22    23    1
    23    22    24   ar
    24    15    24   ar
    25    24    25    1
    26    10    26   ar
    27     6    26   ar
    28     1    27    1
    29     1    28    1
    30     5    29    1
    31    11    30    1
    32     7    31    1
    33     8    32    1
    34     9    33    1
    35    26    34    1
@<TRIPOS>MOLECULE
mol91_3_8
 34 35 0 0 0
SMALL
USER_CHARGES
****
VDW energy = -422.81
@<TRIPOS>ATOM
   1 N1        2.6154   -11.0930    -2.0656  N.3     1  <O>11      -0.1906
   2 S1        3.6472   -10.2648    -3.0548  S.O2    1  <O>11       0.1067
   3 O1        4.2018    -8.9113    -2.2678  O.2     1  <O>11      -0.1383
   4 O2        4.9323   -11.2385    -3.4543  O.2     1  <O>11      -0.1383
   5 N2        2.8490    -9.8140    -4.4290  N.pl3   1  <O>11      -0.2067
   6 C1        1.6910    -8.9620    -4.3440  C.ar    1  <O>11       0.0508
   7 C2        0.4257    -9.5388    -4.2101  C.ar    1  <O>11      -0.0392
   8 C3       -0.7048    -8.7189    -4.1406  C.ar    1  <O>11      -0.0582
   9 C4       -0.5708    -7.3288    -4.1997  C.ar    1  <O>11      -0.0392
  10 C5        0.7038    -6.7652    -4.3265  C.ar    1  <O>11       0.0498
  11 N3        0.8365    -5.3314    -4.3857  N.pl3   1  <O>11      -0.2160
  12 S2        2.3322    -4.6464    -4.5370  S.O2    1  <O>11       0.0780
  13 O3        3.0442    -5.1756    -5.9423  O.2     1  <O>11      -0.1498
  14 O4        3.2757    -5.0845    -3.2405  O.2     1  <O>11      -0.1498
  15 C6        2.1725    -2.8848    -4.5830  C.ar    1  <O>11       0.1843
  16 C7        1.1172    -2.2499    -3.9042  C.ar    1  <O>11       0.1907
  17 F1        0.2150    -3.0022    -3.1948  F       1  <O>11      -0.2002
  18 C8        0.9839    -0.8579    -3.9509  C.ar    1  <O>11       0.1983
  19 F2       -0.0492    -0.2501    -3.2875  F       1  <O>11      -0.1993
  20 C9        1.9024    -0.0876    -4.6695  C.ar    1  <O>11       0.1992
  21 F3        1.7745     1.2756    -4.7230  F       1  <O>11      -0.1993
  22 C10       2.9553    -0.7189    -5.3407  C.ar    1  <O>11       0.1983
  23 F4        3.8523     0.0420    -6.0424  F       1  <O>11      -0.1993
  24 C11       3.0984    -2.1067    -5.2975  C.ar    1  <O>11       0.1907
  25 F5        4.1361    -2.7254    -5.9476  F       1  <O>11      -0.2002
  26 C12       1.8379    -7.5744    -4.3963  C.ar    1  <O>11      -0.0169
  27 H1        2.2749   -11.9241    -2.5490  H       1  <O>11       0.1456
  28 H2        1.8263   -10.4950    -1.8204  H       1  <O>11       0.1456
  29 H3        3.1770   -10.1390    -5.3390  H       1  <O>11       0.1747
  30 H4        0.0074    -4.7390    -4.3354  H       1  <O>11       0.1737
  31 H5        0.3259   -10.5649    -4.1628  H       1  <O>11       0.0636
  32 H6       -1.6414    -9.1416    -4.0453  H       1  <O>11       0.0619
  33 H7       -1.4049    -6.7232    -4.1502  H       1  <O>11       0.0636
  34 H8        2.7753    -7.1521    -4.4856  H       1  <O>11       0.0655
@<TRIPOS>BOND
     1     1     2    1
     2     2     3    2
     3     2     4    2
     4     2     5    1
     5     5     6    1
     6     6     7   ar
     7     7     8   ar
     8     8     9   ar
     9     9    10   ar
    10    10    11    1
    11    11    12    1
    12    12    13    2
    13    12    14    2
    14    12    15    1
    15    15    16   ar
    16    16    17    1
    17    16    18   ar
    18    18    19    1
    19    18    20   ar
    20    20    21    1
    21    20    22   ar
    22    22    23    1
    23    22    24   ar
    24    15    24   ar
    25    24    25    1
    26    10    26   ar
    27     6    26   ar
    28     1    27    1
    29     1    28    1
    30     5    29    1
    31    11    30    1
    32     7    31    1
    33     8    32    1
    34     9    33    1
    35    26    34    1
@<TRIPOS>MOLECULE
mol91_3_9
 34 35 0 0 0
SMALL
USER_CHARGES
****
VDW energy = -422.63
@<TRIPOS>ATOM
   1 N1        2.6154   -11.0930    -2.0656  N.3     1  <O>11      -0.1906
   2 S1        3.6472   -10.2648    -3.0548  S.O2    1  <O>11       0.1067
   3 O1        4.2018    -8.9113    -2.2678  O.2     1  <O>11      -0.1383
   4 O2        4.9323   -11.2385    -3.4543  O.2     1  <O>11      -0.1383
   5 N2        2.8490    -9.8140    -4.4290  N.pl3   1  <O>11      -0.2067
   6 C1        2.2717   -10.8146    -5.2891  C.ar    1  <O>11       0.0508
   7 C2        0.9548   -11.2267    -5.0711  C.ar    1  <O>11      -0.0392
   8 C3        0.3916   -12.2075    -5.8933  C.ar    1  <O>11      -0.0582
   9 C4        1.1395   -12.7702    -6.9314  C.ar    1  <O>11      -0.0392
  10 C5        2.4551   -12.3421    -7.1422  C.ar    1  <O>11       0.0498
  11 N3        3.2214   -12.9246    -8.2147  N.pl3   1  <O>11      -0.2160
  12 S2        4.7766   -12.4341    -8.4789  S.O2    1  <O>11       0.0780
  13 O3        5.6896   -12.7326    -7.1226  O.2     1  <O>11      -0.1498
  14 O4        4.7951   -10.8054    -8.8100  O.2     1  <O>11      -0.1498
  15 C6        5.4508   -13.3237    -9.8519  C.ar    1  <O>11       0.1843
  16 C7        4.6128   -13.7672   -10.8906  C.ar    1  <O>11       0.1907
  17 F1        3.2681   -13.4976   -10.8413  F       1  <O>11      -0.2002
  18 C8        5.1440   -14.4814   -11.9701  C.ar    1  <O>11       0.1983
  19 F2        4.3181   -14.9103   -12.9754  F       1  <O>11      -0.1993
  20 C9        6.5135   -14.7553   -12.0259  C.ar    1  <O>11       0.1992
  21 F3        7.0391   -15.4584   -13.0780  F       1  <O>11      -0.1993
  22 C10       7.3479   -14.3096   -10.9950  C.ar    1  <O>11       0.1983
  23 F4        8.6891   -14.5809   -11.0563  F       1  <O>11      -0.1993
  24 C11       6.8278   -13.5939    -9.9154  C.ar    1  <O>11       0.1907
  25 F5        7.6470   -13.1485    -8.9091  F       1  <O>11      -0.2002
  26 C12       3.0261   -11.3640    -6.3278  C.ar    1  <O>11      -0.0169
  27 H1        2.2749   -11.9241    -2.5490  H       1  <O>11       0.1456
  28 H2        1.8263   -10.4950    -1.8204  H       1  <O>11       0.1456
  29 H3        2.7643    -8.8257    -4.6685  H       1  <O>11       0.1747
  30 H4        2.8047   -13.6405    -8.8102  H       1  <O>11       0.1737
  31 H5        0.4005   -10.8093    -4.3073  H       1  <O>11       0.0636
  32 H6       -0.5798   -12.5170    -5.7331  H       1  <O>11       0.0619
  33 H7        0.7250   -13.4954    -7.5375  H       1  <O>11       0.0636
  34 H8        3.9954   -11.0498    -6.4913  H       1  <O>11       0.0655
@<TRIPOS>BOND
     1     1     2    1
     2     2     3    2
     3     2     4    2
     4     2     5    1
     5     5     6    1
     6     6     7   ar
     7     7     8   ar
     8     8     9   ar
     9     9    10   ar
    10    10    11    1
    11    11    12    1
    12    12    13    2
    13    12    14    2
    14    12    15    1
    15    15    16   ar
    16    16    17    1
    17    16    18   ar
    18    18    19    1
    19    18    20   ar
    20    20    21    1
    21    20    22   ar
    22    22    23    1
    23    22    24   ar
    24    15    24   ar
    25    24    25    1
    26    10    26   ar
    27     6    26   ar
    28     1    27    1
    29     1    28    1
    30     5    29    1
    31    11    30    1
    32     7    31    1
    33     8    32    1
    34     9    33    1
    35    26    34    1
@<TRIPOS>MOLECULE
mol91_3_10
 34 35 0 0 0
SMALL
USER_CHARGES
****
VDW energy = -422.18
@<TRIPOS>ATOM
   1 N1        2.6154   -11.0930    -2.0656  N.3     1  <O>11      -0.1906
   2 S1        3.6472   -10.2648    -3.0548  S.O2    1  <O>11       0.1067
   3 O1        4.2018    -8.9113    -2.2678  O.2     1  <O>11      -0.1383
   4 O2        4.9323   -11.2385    -3.4543  O.2     1  <O>11      -0.1383
   5 N2        2.8490    -9.8140    -4.4290  N.pl3   1  <O>11      -0.2067
   6 C1        3.5389    -9.0744    -5.4542  C.ar    1  <O>11       0.0508
   7 C2        2.8490    -8.7014    -6.6103  C.ar    1  <O>11      -0.0392
   8 C3        3.5154    -7.9949    -7.6163  C.ar    1  <O>11      -0.0582
   9 C4        4.8637    -7.6587    -7.4653  C.ar    1  <O>11      -0.0392
  10 C5        5.5397    -8.0328    -6.2986  C.ar    1  <O>11       0.0498
  11 N3        6.9294    -7.6825    -6.1474  N.pl3   1  <O>11      -0.2160
  12 S2        8.1037    -8.7172    -6.6760  S.O2    1  <O>11       0.0780
  13 O3        7.9266    -8.9682    -8.3093  O.2     1  <O>11      -0.1498
  14 O4        7.9652   -10.1675    -5.8759  O.2     1  <O>11      -0.1498
  15 C6        9.6962    -8.0156    -6.3558  C.ar    1  <O>11       0.1843
  16 C7       10.0858    -7.7107    -5.0394  C.ar    1  <O>11       0.1907
  17 F1        9.2287    -7.9699    -3.9995  F       1  <O>11      -0.2002
  18 C8       11.3401    -7.1445    -4.7875  C.ar    1  <O>11       0.1983
  19 F2       11.7084    -6.8497    -3.5013  F       1  <O>11      -0.1993
  20 C9       12.2175    -6.8818    -5.8433  C.ar    1  <O>11       0.1992
  21 F3       13.4454    -6.3230    -5.6036  F       1  <O>11      -0.1993
  22 C10      11.8320    -7.1899    -7.1526  C.ar    1  <O>11       0.1983
  23 F4       12.6969    -6.9306    -8.1825  F       1  <O>11      -0.1993
  24 C11      10.5839    -7.7577    -7.4136  C.ar    1  <O>11       0.1907
  25 F5       10.2092    -8.0686    -8.6962  F       1  <O>11      -0.2002
  26 C12       4.8839    -8.7373    -5.2889  C.ar    1  <O>11      -0.0169
  27 H1        2.2749   -11.9241    -2.5490  H       1  <O>11       0.1456
  28 H2        1.8263   -10.4950    -1.8204  H       1  <O>11       0.1456
  29 H3        1.8664   -10.0602    -4.5519  H       1  <O>11       0.1747
  30 H4        7.1886    -6.7955    -5.7152  H       1  <O>11       0.1737
  31 H5        1.8526    -8.9460    -6.7212  H       1  <O>11       0.0636
  32 H6        3.0099    -7.7208    -8.4733  H       1  <O>11       0.0619
  33 H7        5.3565    -7.1389    -8.2082  H       1  <O>11       0.0636
  34 H8        5.3872    -9.0065    -4.4291  H       1  <O>11       0.0655
@<TRIPOS>BOND
     1     1     2    1
     2     2     3    2
     3     2     4    2
     4     2     5    1
     5     5     6    1
     6     6     7   ar
     7     7     8   ar
     8     8     9   ar
     9     9    10   ar
    10    10    11    1
    11    11    12    1
    12    12    13    2
    13    12    14    2
    14    12    15    1
    15    15    16   ar
    16    16    17    1
    17    16    18   ar
    18    18    19    1
    19    18    20   ar
    20    20    21    1
    21    20    22   ar
    22    22    23    1
    23    22    24   ar
    24    15    24   ar
    25    24    25    1
    26    10    26   ar
    27     6    26   ar
    28     1    27    1
    29     1    28    1
    30     5    29    1
    31    11    30    1
    32     7    31    1
    33     8    32    1
    34     9    33    1
    35    26    34    1
@<TRIPOS>MOLECULE
mol91_3_11
 34 35 0 0 0
SMALL
USER_CHARGES
****
VDW energy = -421.33
@<TRIPOS>ATOM
   1 N1        2.6154   -11.0930    -2.0656  N.3     1  <O>11      -0.1906
   2 S1        3.6472   -10.2648    -3.0548  S.O2    1  <O>11       0.1067
   3 O1        4.2018    -8.9113    -2.2678  O.2     1  <O>11      -0.1383
   4 O2        4.9323   -11.2385    -3.4543  O.2     1  <O>11      -0.1383
   5 N2        2.8490    -9.8140    -4.4290  N.pl3   1  <O>11      -0.2067
   6 C1        1.6910    -8.9620    -4.3440  C.ar    1  <O>11       0.0508
   7 C2        1.0280    -8.5900    -5.5160  C.ar    1  <O>11      -0.0392
   8 C3       -0.0890    -7.7520    -5.4430  C.ar    1  <O>11      -0.0582
   9 C4       -0.5440    -7.2920    -4.2040  C.ar    1  <O>11      -0.0392
  10 C5        0.1260    -7.6790    -3.0380  C.ar    1  <O>11       0.0498
  11 N3       -0.3480    -7.2030    -1.7630  N.pl3   1  <O>11      -0.2160
  12 S2       -1.8269    -7.6795    -1.2019  S.O2    1  <O>11       0.0780
  13 O3       -1.8550    -9.3343    -1.0503  O.2     1  <O>11      -0.1498
  14 O4       -3.0055    -7.2026    -2.2726  O.2     1  <O>11      -0.1498
  15 C6       -2.1266    -6.9370     0.3760  C.ar    1  <O>11       0.1843
  16 C7       -1.2612    -7.1899     1.4552  C.ar    1  <O>11       0.1907
  17 F1       -0.1740    -8.0082     1.2775  F       1  <O>11      -0.2002
  18 C8       -1.5052    -6.6126     2.7061  C.ar    1  <O>11       0.1983
  19 F2       -0.6567    -6.8674     3.7510  F       1  <O>11      -0.1993
  20 C9       -2.6095    -5.7759     2.8907  C.ar    1  <O>11       0.1992
  21 F3       -2.8566    -5.2113     4.1145  F       1  <O>11      -0.1993
  22 C10      -3.4677    -5.5202     1.8156  C.ar    1  <O>11       0.1983
  23 F4       -4.5475    -4.6987     2.0032  F       1  <O>11      -0.1993
  24 C11      -3.2309    -6.0891     0.5631  C.ar    1  <O>11       0.1907
  25 F5       -4.0667    -5.8311    -0.4937  F       1  <O>11      -0.2002
  26 C12       1.2410    -8.5150    -3.1000  C.ar    1  <O>11      -0.0169
  27 H1        2.2749   -11.9241    -2.5490  H       1  <O>11       0.1456
  28 H2        1.8263   -10.4950    -1.8204  H       1  <O>11       0.1456
  29 H3        3.1770   -10.1390    -5.3390  H       1  <O>11       0.1747
  30 H4        0.2296    -6.5729    -1.2060  H       1  <O>11       0.1737
  31 H5        1.3609    -8.9319    -6.4310  H       1  <O>11       0.0636
  32 H6       -0.5792    -7.4722    -6.3070  H       1  <O>11       0.0619
  33 H7       -1.3673    -6.6721    -4.1496  H       1  <O>11       0.0636
  34 H8        1.7280    -8.8000    -2.2359  H       1  <O>11       0.0655
@<TRIPOS>BOND
     1     1     2    1
     2     2     3    2
     3     2     4    2
     4     2     5    1
     5     5     6    1
     6     6     7   ar
     7     7     8   ar
     8     8     9   ar
     9     9    10   ar
    10    10    11    1
    11    11    12    1
    12    12    13    2
    13    12    14    2
    14    12    15    1
    15    15    16   ar
    16    16    17    1
    17    16    18   ar
    18    18    19    1
    19    18    20   ar
    20    20    21    1
    21    20    22   ar
    22    22    23    1
    23    22    24   ar
    24    15    24   ar
    25    24    25    1
    26    10    26   ar
    27     6    26   ar
    28     1    27    1
    29     1    28    1
    30     5    29    1
    31    11    30    1
    32     7    31    1
    33     8    32    1
    34     9    33    1
    35    26    34    1
@<TRIPOS>MOLECULE
mol91_3_12
 34 35 0 0 0
SMALL
USER_CHARGES
****
VDW energy = -421.13
@<TRIPOS>ATOM
   1 N1        2.6154   -11.0930    -2.0656  N.3     1  <O>11      -0.1906
   2 S1        3.6472   -10.2648    -3.0548  S.O2    1  <O>11       0.1067
   3 O1        4.2018    -8.9113    -2.2678  O.2     1  <O>11      -0.1383
   4 O2        4.9323   -11.2385    -3.4543  O.2     1  <O>11      -0.1383
   5 N2        2.8490    -9.8140    -4.4290  N.pl3   1  <O>11      -0.2067
   6 C1        2.2717   -10.8146    -5.2891  C.ar    1  <O>11       0.0508
   7 C2        1.2094   -11.5904    -4.8188  C.ar    1  <O>11      -0.0392
   8 C3        0.6524   -12.5732    -5.6429  C.ar    1  <O>11      -0.0582
   9 C4        1.1516   -12.7762    -6.9326  C.ar    1  <O>11      -0.0392
  10 C5        2.2114   -11.9864    -7.3924  C.ar    1  <O>11       0.0498
  11 N3        2.7215   -12.1989    -8.7234  N.pl3   1  <O>11      -0.2160
  12 S2        3.9731   -11.2782    -9.2844  S.O2    1  <O>11       0.0780
  13 O3        5.2993   -11.4906    -8.3055  O.2     1  <O>11      -0.1498
  14 O4        3.5301    -9.6762    -9.2746  O.2     1  <O>11      -0.1498
  15 C6        4.3736   -11.7703   -10.9362  C.ar    1  <O>11       0.1843
  16 C7        3.3775   -12.2865   -11.7841  C.ar    1  <O>11       0.1907
  17 F1        2.0877   -12.3975   -11.3289  F       1  <O>11      -0.2002
  18 C8        3.6968   -12.6871   -13.0861  C.ar    1  <O>11       0.1983
  19 F2        2.7188   -13.1904   -13.9029  F       1  <O>11      -0.1993
  20 C9        5.0085   -12.5727   -13.5550  C.ar    1  <O>11       0.1992
  21 F3        5.3284   -12.9678   -14.8274  F       1  <O>11      -0.1993
  22 C10       5.9985   -12.0544   -12.7130  C.ar    1  <O>11       0.1983
  23 F4        7.2817   -11.9443   -13.1791  F       1  <O>11      -0.1993
  24 C11       5.6892   -11.6493   -11.4136  C.ar    1  <O>11       0.1907
  25 F5        6.6576   -11.1322   -10.5909  F       1  <O>11      -0.2002
  26 C12       2.7738   -11.0031    -6.5784  C.ar    1  <O>11      -0.0169
  27 H1        2.2749   -11.9241    -2.5490  H       1  <O>11       0.1456
  28 H2        1.8263   -10.4950    -1.8204  H       1  <O>11       0.1456
  29 H3        2.7643    -8.8257    -4.6685  H       1  <O>11       0.1747
  30 H4        2.3111   -12.9184    -9.3190  H       1  <O>11       0.1737
  31 H5        0.8377   -11.4390    -3.8682  H       1  <O>11       0.0636
  32 H6       -0.1302   -13.1507    -5.2976  H       1  <O>11       0.0619
  33 H7        0.7421   -13.5026    -7.5406  H       1  <O>11       0.0636
  34 H8        3.5524   -10.4212    -6.9252  H       1  <O>11       0.0655
@<TRIPOS>BOND
     1     1     2    1
     2     2     3    2
     3     2     4    2
     4     2     5    1
     5     5     6    1
     6     6     7   ar
     7     7     8   ar
     8     8     9   ar
     9     9    10   ar
    10    10    11    1
    11    11    12    1
    12    12    13    2
    13    12    14    2
    14    12    15    1
    15    15    16   ar
    16    16    17    1
    17    16    18   ar
    18    18    19    1
    19    18    20   ar
    20    20    21    1
    21    20    22   ar
    22    22    23    1
    23    22    24   ar
    24    15    24   ar
    25    24    25    1
    26    10    26   ar
    27     6    26   ar
    28     1    27    1
    29     1    28    1
    30     5    29    1
    31    11    30    1
    32     7    31    1
    33     8    32    1
    34     9    33    1
    35    26    34    1
@<TRIPOS>MOLECULE
mol91_3_13
 34 35 0 0 0
SMALL
USER_CHARGES
****
VDW energy = -420.98
@<TRIPOS>ATOM
   1 N1        2.6154   -11.0930    -2.0656  N.3     1  <O>11      -0.1906
   2 S1        3.6472   -10.2648    -3.0548  S.O2    1  <O>11       0.1067
   3 O1        4.2018    -8.9113    -2.2678  O.2     1  <O>11      -0.1383
   4 O2        4.9323   -11.2385    -3.4543  O.2     1  <O>11      -0.1383
   5 N2        2.8490    -9.8140    -4.4290  N.pl3   1  <O>11      -0.2067
   6 C1        1.6910    -8.9620    -4.3440  C.ar    1  <O>11       0.0508
   7 C2        0.5350    -9.4391    -3.7214  C.ar    1  <O>11      -0.0392
   8 C3       -0.5979    -8.6229    -3.6468  C.ar    1  <O>11      -0.0582
   9 C4       -0.5739    -7.3343    -4.1877  C.ar    1  <O>11      -0.0392
  10 C5        0.5936    -6.8675    -4.8019  C.ar    1  <O>11       0.0498
  11 N3        0.6135    -5.5376    -5.3568  N.pl3   1  <O>11      -0.2160
  12 S2        1.9814    -4.9684    -6.0874  S.O2    1  <O>11       0.0780
  13 O3        2.3713    -5.9475    -7.3726  O.2     1  <O>11      -0.1498
  14 O4        3.2336    -4.9668    -4.9942  O.2     1  <O>11      -0.1498
  15 C6        1.6995    -3.3200    -6.6653  C.ar    1  <O>11       0.1843
  16 C7        2.3761    -2.8408    -7.8013  C.ar    1  <O>11       0.1907
  17 F1        3.2502    -3.6616    -8.4686  F       1  <O>11      -0.2002
  18 C8        2.1625    -1.5332    -8.2509  C.ar    1  <O>11       0.1983
  19 F2        2.8285    -1.0762    -9.3575  F       1  <O>11      -0.1993
  20 C9        1.2707    -0.6948    -7.5762  C.ar    1  <O>11       0.1992
  21 F3        1.0607     0.5883    -8.0087  F       1  <O>11      -0.1993
  22 C10       0.5937    -1.1733    -6.4490  C.ar    1  <O>11       0.1983
  23 F4       -0.2794    -0.3466    -5.7929  F       1  <O>11      -0.1993
  24 C11       0.7979    -2.4772    -5.9945  C.ar    1  <O>11       0.1907
  25 F5        0.1272    -2.9498    -4.8950  F       1  <O>11      -0.2002
  26 C12       1.7293    -7.6736    -4.8811  C.ar    1  <O>11      -0.0169
  27 H1        2.2749   -11.9241    -2.5490  H       1  <O>11       0.1456
  28 H2        1.8263   -10.4950    -1.8204  H       1  <O>11       0.1456
  29 H3        3.1770   -10.1390    -5.3390  H       1  <O>11       0.1747
  30 H4       -0.2170    -4.9478    -5.2998  H       1  <O>11       0.1737
  31 H5        0.5173   -10.3890    -3.3186  H       1  <O>11       0.0636
  32 H6       -1.4549    -8.9733    -3.1908  H       1  <O>11       0.0619
  33 H7       -1.4103    -6.7321    -4.1345  H       1  <O>11       0.0636
  34 H8        2.5885    -7.3216    -5.3317  H       1  <O>11       0.0655
@<TRIPOS>BOND
     1     1     2    1
     2     2     3    2
     3     2     4    2
     4     2     5    1
     5     5     6    1
     6     6     7   ar
     7     7     8   ar
     8     8     9   ar
     9     9    10   ar
    10    10    11    1
    11    11    12    1
    12    12    13    2
    13    12    14    2
    14    12    15    1
    15    15    16   ar
    16    16    17    1
    17    16    18   ar
    18    18    19    1
    19    18    20   ar
    20    20    21    1
    21    20    22   ar
    22    22    23    1
    23    22    24   ar
    24    15    24   ar
    25    24    25    1
    26    10    26   ar
    27     6    26   ar
    28     1    27    1
    29     1    28    1
    30     5    29    1
    31    11    30    1
    32     7    31    1
    33     8    32    1
    34     9    33    1
    35    26    34    1
@<TRIPOS>MOLECULE
mol91_3_14
 34 35 0 0 0
SMALL
USER_CHARGES
****
VDW energy = -420.61
@<TRIPOS>ATOM
   1 N1        2.6154   -11.0930    -2.0656  N.3     1  <O>11      -0.1906
   2 S1        3.6472   -10.2648    -3.0548  S.O2    1  <O>11       0.1067
   3 O1        4.2018    -8.9113    -2.2678  O.2     1  <O>11      -0.1383
   4 O2        4.9323   -11.2385    -3.4543  O.2     1  <O>11      -0.1383
   5 N2        2.8490    -9.8140    -4.4290  N.pl3   1  <O>11      -0.2067
   6 C1        1.6910    -8.9620    -4.3440  C.ar    1  <O>11       0.0508
   7 C2        1.8563    -7.5759    -4.3971  C.ar    1  <O>11      -0.0392
   8 C3        0.7383    -6.7414    -4.3016  C.ar    1  <O>11      -0.0582
   9 C4       -0.5393    -7.2901    -4.1586  C.ar    1  <O>11      -0.0392
  10 C5       -0.6900    -8.6807    -4.1142  C.ar    1  <O>11       0.0498
  11 N3       -2.0095    -9.2413    -3.9680  N.pl3   1  <O>11      -0.2160
  12 S2       -2.2085   -10.8802    -3.9119  S.O2    1  <O>11       0.0780
  13 O3       -1.6392   -11.5559    -5.3196  O.2     1  <O>11      -0.1498
  14 O4       -3.8230   -11.2367    -3.7413  O.2     1  <O>11      -0.1498
  15 C6       -1.3100   -11.5370    -2.5363  C.ar    1  <O>11       0.1843
  16 C7       -1.1153   -10.7607    -1.3799  C.ar    1  <O>11       0.1907
  17 F1       -1.6352    -9.4923    -1.3172  F       1  <O>11      -0.2002
  18 C8       -0.3942   -11.2755    -0.2971  C.ar    1  <O>11       0.1983
  19 F2       -0.2089   -10.5097     0.8236  F       1  <O>11      -0.1993
  20 C9        0.1343   -12.5682    -0.3554  C.ar    1  <O>11       0.1992
  21 F3        0.8455   -13.0763     0.6998  F       1  <O>11      -0.1993
  22 C10      -0.0638   -13.3424    -1.5039  C.ar    1  <O>11       0.1983
  23 F4        0.4561   -14.6086    -1.5542  F       1  <O>11      -0.1993
  24 C11      -0.7843   -12.8386    -2.5881  C.ar    1  <O>11       0.1907
  25 F5       -0.9869   -13.6009    -3.7107  F       1  <O>11      -0.2002
  26 C12       0.4189    -9.5218    -4.2091  C.ar    1  <O>11      -0.0169
  27 H1        2.2749   -11.9241    -2.5490  H       1  <O>11       0.1456
  28 H2        1.8263   -10.4950    -1.8204  H       1  <O>11       0.1456
  29 H3        3.1770   -10.1390    -5.3390  H       1  <O>11       0.1747
  30 H4       -2.8208    -8.6267    -3.8978  H       1  <O>11       0.1737
  31 H5        2.7987    -7.1698    -4.5063  H       1  <O>11       0.0636
  32 H6        0.8569    -5.7169    -4.3369  H       1  <O>11       0.0619
  33 H7       -1.3646    -6.6748    -4.0863  H       1  <O>11       0.0636
  34 H8        0.3003   -10.5465    -4.1800  H       1  <O>11       0.0655
@<TRIPOS>BOND
     1     1     2    1
     2     2     3    2
     3     2     4    2
     4     2     5    1
     5     5     6    1
     6     6     7   ar
     7     7     8   ar
     8     8     9   ar
     9     9    10   ar
    10    10    11    1
    11    11    12    1
    12    12    13    2
    13    12    14    2
    14    12    15    1
    15    15    16   ar
    16    16    17    1
    17    16    18   ar
    18    18    19    1
    19    18    20   ar
    20    20    21    1
    21    20    22   ar
    22    22    23    1
    23    22    24   ar
    24    15    24   ar
    25    24    25    1
    26    10    26   ar
    27     6    26   ar
    28     1    27    1
    29     1    28    1
    30     5    29    1
    31    11    30    1
    32     7    31    1
    33     8    32    1
    34     9    33    1
    35    26    34    1
@<TRIPOS>MOLECULE
mol91_3_15
 34 35 0 0 0
SMALL
USER_CHARGES
****
VDW energy = -419.57
@<TRIPOS>ATOM
   1 N1        2.6154   -11.0930    -2.0656  N.3     1  <O>11      -0.1906
   2 S1        3.6472   -10.2648    -3.0548  S.O2    1  <O>11       0.1067
   3 O1        4.2018    -8.9113    -2.2678  O.2     1  <O>11      -0.1383
   4 O2        4.9323   -11.2385    -3.4543  O.2     1  <O>11      -0.1383
   5 N2        2.8490    -9.8140    -4.4290  N.pl3   1  <O>11      -0.2067
   6 C1        1.6910    -8.9620    -4.3440  C.ar    1  <O>11       0.0508
   7 C2        1.0280    -8.5900    -5.5160  C.ar    1  <O>11      -0.0392
   8 C3       -0.0890    -7.7520    -5.4430  C.ar    1  <O>11      -0.0582
   9 C4       -0.5440    -7.2920    -4.2040  C.ar    1  <O>11      -0.0392
  10 C5        0.1260    -7.6790    -3.0380  C.ar    1  <O>11       0.0498
  11 N3       -0.3480    -7.2030    -1.7630  N.pl3   1  <O>11      -0.2160
  12 S2       -1.4720    -8.0743    -0.9225  S.O2    1  <O>11       0.0780
  13 O3       -0.8653    -9.5852    -0.5887  O.2     1  <O>11      -0.1498
  14 O4       -2.8533    -8.2229    -1.8351  O.2     1  <O>11      -0.1498
  15 C6       -1.8514    -7.2425     0.5924  C.ar    1  <O>11       0.1843
  16 C7       -2.7874    -7.7904     1.4877  C.ar    1  <O>11       0.1907
  17 F1       -3.3995    -8.9812     1.1869  F       1  <O>11      -0.2002
  18 C8       -3.0965    -7.1264     2.6798  C.ar    1  <O>11       0.1983
  19 F2       -4.0114    -7.6682     3.5437  F       1  <O>11      -0.1993
  20 C9       -2.4730    -5.9150     2.9916  C.ar    1  <O>11       0.1992
  21 F3       -2.7749    -5.2574     4.1552  F       1  <O>11      -0.1993
  22 C10      -1.5379    -5.3725     2.1033  C.ar    1  <O>11       0.1983
  23 F4       -0.9300    -4.1854     2.4154  F       1  <O>11      -0.1993
  24 C11      -1.2208    -6.0290     0.9130  C.ar    1  <O>11       0.1907
  25 F5       -0.2970    -5.5023     0.0462  F       1  <O>11      -0.2002
  26 C12       1.2410    -8.5150    -3.1000  C.ar    1  <O>11      -0.0169
  27 H1        2.2749   -11.9241    -2.5490  H       1  <O>11       0.1456
  28 H2        1.8263   -10.4950    -1.8204  H       1  <O>11       0.1456
  29 H3        3.1770   -10.1390    -5.3390  H       1  <O>11       0.1747
  30 H4        0.0110    -6.3289    -1.3784  H       1  <O>11       0.1737
  31 H5        1.3609    -8.9319    -6.4310  H       1  <O>11       0.0636
  32 H6       -0.5792    -7.4722    -6.3070  H       1  <O>11       0.0619
  33 H7       -1.3673    -6.6721    -4.1496  H       1  <O>11       0.0636
  34 H8        1.7280    -8.8000    -2.2359  H       1  <O>11       0.0655
@<TRIPOS>BOND
     1     1     2    1
     2     2     3    2
     3     2     4    2
     4     2     5    1
     5     5     6    1
     6     6     7   ar
     7     7     8   ar
     8     8     9   ar
     9     9    10   ar
    10    10    11    1
    11    11    12    1
    12    12    13    2
    13    12    14    2
    14    12    15    1
    15    15    16   ar
    16    16    17    1
    17    16    18   ar
    18    18    19    1
    19    18    20   ar
    20    20    21    1
    21    20    22   ar
    22    22    23    1
    23    22    24   ar
    24    15    24   ar
    25    24    25    1
    26    10    26   ar
    27     6    26   ar
    28     1    27    1
    29     1    28    1
    30     5    29    1
    31    11    30    1
    32     7    31    1
    33     8    32    1
    34     9    33    1
    35    26    34    1
@<TRIPOS>MOLECULE
mol91_3_16
 34 35 0 0 0
SMALL
USER_CHARGES
****
VDW energy = -418.74
@<TRIPOS>ATOM
   1 N1        2.6154   -11.0930    -2.0656  N.3     1  <O>11      -0.1906
   2 S1        3.6472   -10.2648    -3.0548  S.O2    1  <O>11       0.1067
   3 O1        4.2018    -8.9113    -2.2678  O.2     1  <O>11      -0.1383
   4 O2        4.9323   -11.2385    -3.4543  O.2     1  <O>11      -0.1383
   5 N2        2.8490    -9.8140    -4.4290  N.pl3   1  <O>11      -0.2067
   6 C1        3.5389    -9.0744    -5.4542  C.ar    1  <O>11       0.0508
   7 C2        2.8490    -8.7014    -6.6103  C.ar    1  <O>11      -0.0392
   8 C3        3.5154    -7.9949    -7.6163  C.ar    1  <O>11      -0.0582
   9 C4        4.8637    -7.6587    -7.4653  C.ar    1  <O>11      -0.0392
  10 C5        5.5397    -8.0328    -6.2986  C.ar    1  <O>11       0.0498
  11 N3        6.9294    -7.6825    -6.1474  N.pl3   1  <O>11      -0.2160
  12 S2        8.1037    -8.7172    -6.6760  S.O2    1  <O>11       0.0780
  13 O3        7.9266    -8.9682    -8.3093  O.2     1  <O>11      -0.1498
  14 O4        7.9652   -10.1675    -5.8759  O.2     1  <O>11      -0.1498
  15 C6        9.6962    -8.0156    -6.3558  C.ar    1  <O>11       0.1843
  16 C7       10.8639    -8.7109    -6.7177  C.ar    1  <O>11       0.1907
  17 F1       10.7640    -9.9342    -7.3315  F       1  <O>11      -0.2002
  18 C8       12.1232    -8.1616    -6.4533  C.ar    1  <O>11       0.1983
  19 F2       13.2540    -8.8487    -6.8083  F       1  <O>11      -0.1993
  20 C9       12.2295    -6.9145    -5.8313  C.ar    1  <O>11       0.1992
  21 F3       13.4599    -6.3734    -5.5653  F       1  <O>11      -0.1993
  22 C10      11.0678    -6.2204    -5.4759  C.ar    1  <O>11       0.1983
  23 F4       11.1792    -4.9984    -4.8673  F       1  <O>11      -0.1993
  24 C11       9.8069    -6.7588    -5.7382  C.ar    1  <O>11       0.1907
  25 F5        8.6675    -6.0743    -5.3986  F       1  <O>11      -0.2002
  26 C12       4.8839    -8.7373    -5.2889  C.ar    1  <O>11      -0.0169
  27 H1        2.2749   -11.9241    -2.5490  H       1  <O>11       0.1456
  28 H2        1.8263   -10.4950    -1.8204  H       1  <O>11       0.1456
  29 H3        1.8664   -10.0602    -4.5519  H       1  <O>11       0.1747
  30 H4        7.1886    -6.7955    -5.7152  H       1  <O>11       0.1737
  31 H5        1.8526    -8.9460    -6.7212  H       1  <O>11       0.0636
  32 H6        3.0099    -7.7208    -8.4733  H       1  <O>11       0.0619
  33 H7        5.3565    -7.1389    -8.2082  H       1  <O>11       0.0636
  34 H8        5.3872    -9.0065    -4.4291  H       1  <O>11       0.0655
@<TRIPOS>BOND
     1     1     2    1
     2     2     3    2
     3     2     4    2
     4     2     5    1
     5     5     6    1
     6     6     7   ar
     7     7     8   ar
     8     8     9   ar
     9     9    10   ar
    10    10    11    1
    11    11    12    1
    12    12    13    2
    13    12    14    2
    14    12    15    1
    15    15    16   ar
    16    16    17    1
    17    16    18   ar
    18    18    19    1
    19    18    20   ar
    20    20    21    1
    21    20    22   ar
    22    22    23    1
    23    22    24   ar
    24    15    24   ar
    25    24    25    1
    26    10    26   ar
    27     6    26   ar
    28     1    27    1
    29     1    28    1
    30     5    29    1
    31    11    30    1
    32     7    31    1
    33     8    32    1
    34     9    33    1
    35    26    34    1
@<TRIPOS>MOLECULE
mol91_3_17
 34 35 0 0 0
SMALL
USER_CHARGES
****
VDW energy = -417.10
@<TRIPOS>ATOM
   1 N1        2.6154   -11.0930    -2.0656  N.3     1  <O>11      -0.1906
   2 S1        3.6472   -10.2648    -3.0548  S.O2    1  <O>11       0.1067
   3 O1        4.2018    -8.9113    -2.2678  O.2     1  <O>11      -0.1383
   4 O2        4.9323   -11.2385    -3.4543  O.2     1  <O>11      -0.1383
   5 N2        2.8490    -9.8140    -4.4290  N.pl3   1  <O>11      -0.2067
   6 C1        1.6910    -8.9620    -4.3440  C.ar    1  <O>11       0.0508
   7 C2        1.0280    -8.5900    -5.5160  C.ar    1  <O>11      -0.0392
   8 C3       -0.0890    -7.7520    -5.4430  C.ar    1  <O>11      -0.0582
   9 C4       -0.5440    -7.2920    -4.2040  C.ar    1  <O>11      -0.0392
  10 C5        0.1260    -7.6790    -3.0380  C.ar    1  <O>11       0.0498
  11 N3       -0.3480    -7.2030    -1.7630  N.pl3   1  <O>11      -0.2160
  12 S2       -1.8269    -7.6795    -1.2019  S.O2    1  <O>11       0.0780
  13 O3       -1.8550    -9.3343    -1.0503  O.2     1  <O>11      -0.1498
  14 O4       -3.0055    -7.2026    -2.2726  O.2     1  <O>11      -0.1498
  15 C6       -2.1266    -6.9370     0.3760  C.ar    1  <O>11       0.1843
  16 C7       -3.3269    -7.1912     1.0634  C.ar    1  <O>11       0.1907
  17 F1       -4.2631    -8.0281     0.5101  F       1  <O>11      -0.2002
  18 C8       -3.5692    -6.5943     2.3054  C.ar    1  <O>11       0.1983
  19 F2       -4.7427    -6.8474     2.9654  F       1  <O>11      -0.1993
  20 C9       -2.6169    -5.7438     2.8742  C.ar    1  <O>11       0.1992
  21 F3       -2.8503    -5.1524     4.0880  F       1  <O>11      -0.1993
  22 C10      -1.4206    -5.4949     2.1926  C.ar    1  <O>11       0.1983
  23 F4       -0.4915    -4.6611     2.7560  F       1  <O>11      -0.1993
  24 C11      -1.1685    -6.0881     0.9545  C.ar    1  <O>11       0.1907
  25 F5        0.0084    -5.8519     0.2902  F       1  <O>11      -0.2002
  26 C12       1.2410    -8.5150    -3.1000  C.ar    1  <O>11      -0.0169
  27 H1        2.2749   -11.9241    -2.5490  H       1  <O>11       0.1456
  28 H2        1.8263   -10.4950    -1.8204  H       1  <O>11       0.1456
  29 H3        3.1770   -10.1390    -5.3390  H       1  <O>11       0.1747
  30 H4        0.2296    -6.5729    -1.2060  H       1  <O>11       0.1737
  31 H5        1.3609    -8.9319    -6.4310  H       1  <O>11       0.0636
  32 H6       -0.5792    -7.4722    -6.3070  H       1  <O>11       0.0619
  33 H7       -1.3673    -6.6721    -4.1496  H       1  <O>11       0.0636
  34 H8        1.7280    -8.8000    -2.2359  H       1  <O>11       0.0655
@<TRIPOS>BOND
     1     1     2    1
     2     2     3    2
     3     2     4    2
     4     2     5    1
     5     5     6    1
     6     6     7   ar
     7     7     8   ar
     8     8     9   ar
     9     9    10   ar
    10    10    11    1
    11    11    12    1
    12    12    13    2
    13    12    14    2
    14    12    15    1
    15    15    16   ar
    16    16    17    1
    17    16    18   ar
    18    18    19    1
    19    18    20   ar
    20    20    21    1
    21    20    22   ar
    22    22    23    1
    23    22    24   ar
    24    15    24   ar
    25    24    25    1
    26    10    26   ar
    27     6    26   ar
    28     1    27    1
    29     1    28    1
    30     5    29    1
    31    11    30    1
    32     7    31    1
    33     8    32    1
    34     9    33    1
    35    26    34    1
@<TRIPOS>MOLECULE
mol91_3_18
 34 35 0 0 0
SMALL
USER_CHARGES
****
VDW energy = -414.72
@<TRIPOS>ATOM
   1 N1        2.6154   -11.0930    -2.0656  N.3     1  <O>11      -0.1906
   2 S1        3.6472   -10.2648    -3.0548  S.O2    1  <O>11       0.1067
   3 O1        4.2018    -8.9113    -2.2678  O.2     1  <O>11      -0.1383
   4 O2        4.9323   -11.2385    -3.4543  O.2     1  <O>11      -0.1383
   5 N2        2.8490    -9.8140    -4.4290  N.pl3   1  <O>11      -0.2067
   6 C1        2.2717   -10.8146    -5.2891  C.ar    1  <O>11       0.0508
   7 C2        1.5998   -10.4160    -6.4471  C.ar    1  <O>11      -0.0392
   8 C3        1.0248   -11.3806    -7.2803  C.ar    1  <O>11      -0.0582
   9 C4        1.1253   -12.7375    -6.9600  C.ar    1  <O>11      -0.0392
  10 C5        1.8078   -13.1220    -5.8004  C.ar    1  <O>11       0.0498
  11 N3        1.9096   -14.5223    -5.4754  N.pl3   1  <O>11      -0.2160
  12 S2        2.7097   -14.9968    -4.1102  S.O2    1  <O>11       0.0780
  13 O3        1.9775   -14.3258    -2.7776  O.2     1  <O>11      -0.1498
  14 O4        4.2896   -14.4862    -4.1884  O.2     1  <O>11      -0.1498
  15 C6        2.6646   -16.7611    -3.9829  C.ar    1  <O>11       0.1843
  16 C7        2.6784   -17.3821    -2.7211  C.ar    1  <O>11       0.1907
  17 F1        2.7162   -16.6130    -1.5853  F       1  <O>11      -0.2002
  18 C8        2.6552   -18.7774    -2.6208  C.ar    1  <O>11       0.1983
  19 F2        2.6711   -19.3718    -1.3866  F       1  <O>11      -0.1993
  20 C9        2.6135   -19.5645    -3.7751  C.ar    1  <O>11       0.1992
  21 F3        2.5954   -20.9316    -3.6836  F       1  <O>11      -0.1993
  22 C10       2.5945   -18.9465    -5.0302  C.ar    1  <O>11       0.1983
  23 F4        2.5528   -19.7238    -6.1573  F       1  <O>11      -0.1993
  24 C11       2.6144   -17.5552    -5.1405  C.ar    1  <O>11       0.1907
  25 F5        2.5862   -16.9486    -6.3707  F       1  <O>11      -0.2002
  26 C12       2.3852   -12.1676    -4.9628  C.ar    1  <O>11      -0.0169
  27 H1        2.2749   -11.9241    -2.5490  H       1  <O>11       0.1456
  28 H2        1.8263   -10.4950    -1.8204  H       1  <O>11       0.1456
  29 H3        2.7643    -8.8257    -4.6685  H       1  <O>11       0.1747
  30 H4        1.4869   -15.2208    -6.0872  H       1  <O>11       0.1737
  31 H5        1.5281    -9.4147    -6.6865  H       1  <O>11       0.0636
  32 H6        0.5246   -11.0897    -8.1348  H       1  <O>11       0.0619
  33 H7        0.6997   -13.4498    -7.5736  H       1  <O>11       0.0636
  34 H8        2.8908   -12.4582    -4.1114  H       1  <O>11       0.0655
@<TRIPOS>BOND
     1     1     2    1
     2     2     3    2
     3     2     4    2
     4     2     5    1
     5     5     6    1
     6     6     7   ar
     7     7     8   ar
     8     8     9   ar
     9     9    10   ar
    10    10    11    1
    11    11    12    1
    12    12    13    2
    13    12    14    2
    14    12    15    1
    15    15    16   ar
    16    16    17    1
    17    16    18   ar
    18    18    19    1
    19    18    20   ar
    20    20    21    1
    21    20    22   ar
    22    22    23    1
    23    22    24   ar
    24    15    24   ar
    25    24    25    1
    26    10    26   ar
    27     6    26   ar
    28     1    27    1
    29     1    28    1
    30     5    29    1
    31    11    30    1
    32     7    31    1
    33     8    32    1
    34     9    33    1
    35    26    34    1
@<TRIPOS>MOLECULE
mol91_3_19
 34 35 0 0 0
SMALL
USER_CHARGES
****
VDW energy = -414.26
@<TRIPOS>ATOM
   1 N1        2.6154   -11.0930    -2.0656  N.3     1  <O>11      -0.1906
   2 S1        3.6472   -10.2648    -3.0548  S.O2    1  <O>11       0.1067
   3 O1        4.2018    -8.9113    -2.2678  O.2     1  <O>11      -0.1383
   4 O2        4.9323   -11.2385    -3.4543  O.2     1  <O>11      -0.1383
   5 N2        2.8490    -9.8140    -4.4290  N.pl3   1  <O>11      -0.2067
   6 C1        1.6910    -8.9620    -4.3440  C.ar    1  <O>11       0.0508
   7 C2        1.0280    -8.5900    -5.5160  C.ar    1  <O>11      -0.0392
   8 C3       -0.0890    -7.7520    -5.4430  C.ar    1  <O>11      -0.0582
   9 C4       -0.5440    -7.2920    -4.2040  C.ar    1  <O>11      -0.0392
  10 C5        0.1260    -7.6790    -3.0380  C.ar    1  <O>11       0.0498
  11 N3       -0.3480    -7.2030    -1.7630  N.pl3   1  <O>11      -0.2160
  12 S2        0.4300    -7.6470    -0.3750  S.O2    1  <O>11       0.0780
  13 O3        2.0090    -7.1320    -0.4360  O.2     1  <O>11      -0.1498
  14 O4        0.3940    -9.3020    -0.2250  O.2     1  <O>11      -0.1498
  15 C6       -0.3780    -6.9100     1.0160  C.ar    1  <O>11       0.1843
  16 C7        0.3546    -6.5833     2.1712  C.ar    1  <O>11       0.1907
  17 F1        1.7041    -6.8285     2.2123  F       1  <O>11      -0.2002
  18 C8       -0.2866    -6.0119     3.2756  C.ar    1  <O>11       0.1983
  19 F2        0.4365    -5.6995     4.3965  F       1  <O>11      -0.1993
  20 C9       -1.6604    -5.7573     3.2368  C.ar    1  <O>11       0.1992
  21 F3       -2.2951    -5.2024     4.3170  F       1  <O>11      -0.1993
  22 C10      -2.3883    -6.0777     2.0856  C.ar    1  <O>11       0.1983
  23 F4       -3.7341    -5.8249     2.0539  F       1  <O>11      -0.1993
  24 C11      -1.7570    -6.6453     0.9776  C.ar    1  <O>11       0.1907
  25 F5       -2.4686    -6.9508    -0.1549  F       1  <O>11      -0.2002
  26 C12       1.2410    -8.5150    -3.1000  C.ar    1  <O>11      -0.0169
  27 H1        2.2749   -11.9241    -2.5490  H       1  <O>11       0.1456
  28 H2        1.8263   -10.4950    -1.8204  H       1  <O>11       0.1456
  29 H3        3.1770   -10.1390    -5.3390  H       1  <O>11       0.1747
  30 H4       -1.1630    -6.5910    -1.7170  H       1  <O>11       0.1737
  31 H5        1.3609    -8.9319    -6.4310  H       1  <O>11       0.0636
  32 H6       -0.5792    -7.4722    -6.3070  H       1  <O>11       0.0619
  33 H7       -1.3673    -6.6721    -4.1496  H       1  <O>11       0.0636
  34 H8        1.7280    -8.8000    -2.2359  H       1  <O>11       0.0655
@<TRIPOS>BOND
     1     1     2    1
     2     2     3    2
     3     2     4    2
     4     2     5    1
     5     5     6    1
     6     6     7   ar
     7     7     8   ar
     8     8     9   ar
     9     9    10   ar
    10    10    11    1
    11    11    12    1
    12    12    13    2
    13    12    14    2
    14    12    15    1
    15    15    16   ar
    16    16    17    1
    17    16    18   ar
    18    18    19    1
    19    18    20   ar
    20    20    21    1
    21    20    22   ar
    22    22    23    1
    23    22    24   ar
    24    15    24   ar
    25    24    25    1
    26    10    26   ar
    27     6    26   ar
    28     1    27    1
    29     1    28    1
    30     5    29    1
    31    11    30    1
    32     7    31    1
    33     8    32    1
    34     9    33    1
    35    26    34    1
@<TRIPOS>MOLECULE
mol91_3_20
 34 35 0 0 0
SMALL
USER_CHARGES
****
VDW energy = -414.23
@<TRIPOS>ATOM
   1 N1        2.6154   -11.0930    -2.0656  N.3     1  <O>11      -0.1906
   2 S1        3.6472   -10.2648    -3.0548  S.O2    1  <O>11       0.1067
   3 O1        4.2018    -8.9113    -2.2678  O.2     1  <O>11      -0.1383
   4 O2        4.9323   -11.2385    -3.4543  O.2     1  <O>11      -0.1383
   5 N2        2.8490    -9.8140    -4.4290  N.pl3   1  <O>11      -0.2067
   6 C1        3.5389    -9.0744    -5.4542  C.ar    1  <O>11       0.0508
   7 C2        2.8490    -8.7014    -6.6103  C.ar    1  <O>11      -0.0392
   8 C3        3.5154    -7.9949    -7.6163  C.ar    1  <O>11      -0.0582
   9 C4        4.8637    -7.6587    -7.4653  C.ar    1  <O>11      -0.0392
  10 C5        5.5397    -8.0328    -6.2986  C.ar    1  <O>11       0.0498
  11 N3        6.9294    -7.6825    -6.1474  N.pl3   1  <O>11      -0.2160
  12 S2        7.7458    -8.1163    -4.7783  S.O2    1  <O>11       0.0780
  13 O3        9.3175    -7.5854    -4.8788  O.2     1  <O>11      -0.1498
  14 O4        7.7303    -9.7714    -4.6252  O.2     1  <O>11      -0.1498
  15 C6        6.9647    -7.3853    -3.3689  C.ar    1  <O>11       0.1843
  16 C7        7.4778    -7.6074    -2.0784  C.ar    1  <O>11       0.1907
  17 F1        8.5958    -8.3864    -1.9161  F       1  <O>11      -0.2002
  18 C8        6.8529    -7.0395    -0.9629  C.ar    1  <O>11       0.1983
  19 F2        7.3600    -7.2642     0.2898  F       1  <O>11      -0.1993
  20 C9        5.7158    -6.2427    -1.1239  C.ar    1  <O>11       0.1992
  21 F3        5.0965    -5.6876    -0.0350  F       1  <O>11      -0.1993
  22 C10       5.2084    -6.0176    -2.4083  C.ar    1  <O>11       0.1983
  23 F4        4.0943    -5.2352    -2.5590  F       1  <O>11      -0.1993
  24 C11       5.8266    -6.5774    -3.5276  C.ar    1  <O>11       0.1907
  25 F5        5.3350    -6.3492    -4.7879  F       1  <O>11      -0.2002
  26 C12       4.8839    -8.7373    -5.2889  C.ar    1  <O>11      -0.0169
  27 H1        2.2749   -11.9241    -2.5490  H       1  <O>11       0.1456
  28 H2        1.8263   -10.4950    -1.8204  H       1  <O>11       0.1456
  29 H3        1.8664   -10.0602    -4.5519  H       1  <O>11       0.1747
  30 H4        7.4098    -7.1679    -6.8858  H       1  <O>11       0.1737
  31 H5        1.8526    -8.9460    -6.7212  H       1  <O>11       0.0636
  32 H6        3.0099    -7.7208    -8.4733  H       1  <O>11       0.0619
  33 H7        5.3565    -7.1389    -8.2082  H       1  <O>11       0.0636
  34 H8        5.3872    -9.0065    -4.4291  H       1  <O>11       0.0655
@<TRIPOS>BOND
     1     1     2    1
     2     2     3    2
     3     2     4    2
     4     2     5    1
     5     5     6    1
     6     6     7   ar
     7     7     8   ar
     8     8     9   ar
     9     9    10   ar
    10    10    11    1
    11    11    12    1
    12    12    13    2
    13    12    14    2
    14    12    15    1
    15    15    16   ar
    16    16    17    1
    17    16    18   ar
    18    18    19    1
    19    18    20   ar
    20    20    21    1
    21    20    22   ar
    22    22    23    1
    23    22    24   ar
    24    15    24   ar
    25    24    25    1
    26    10    26   ar
    27     6    26   ar
    28     1    27    1
    29     1    28    1
    30     5    29    1
    31    11    30    1
    32     7    31    1
    33     8    32    1
    34     9    33    1
    35    26    34    1
@<TRIPOS>MOLECULE
mol91_3_21
 34 35 0 0 0
SMALL
USER_CHARGES
****
VDW energy = -414.10
@<TRIPOS>ATOM
   1 N1        2.6154   -11.0930    -2.0656  N.3     1  <O>11      -0.1906
   2 S1        3.6472   -10.2648    -3.0548  S.O2    1  <O>11       0.1067
   3 O1        4.2018    -8.9113    -2.2678  O.2     1  <O>11      -0.1383
   4 O2        4.9323   -11.2385    -3.4543  O.2     1  <O>11      -0.1383
   5 N2        2.8490    -9.8140    -4.4290  N.pl3   1  <O>11      -0.2067
   6 C1        2.2717   -10.8146    -5.2891  C.ar    1  <O>11       0.0508
   7 C2        1.5998   -10.4160    -6.4471  C.ar    1  <O>11      -0.0392
   8 C3        1.0248   -11.3806    -7.2803  C.ar    1  <O>11      -0.0582
   9 C4        1.1253   -12.7375    -6.9600  C.ar    1  <O>11      -0.0392
  10 C5        1.8078   -13.1220    -5.8004  C.ar    1  <O>11       0.0498
  11 N3        1.9096   -14.5223    -5.4754  N.pl3   1  <O>11      -0.2160
  12 S2        2.7097   -14.9968    -4.1102  S.O2    1  <O>11       0.0780
  13 O3        1.9775   -14.3258    -2.7776  O.2     1  <O>11      -0.1498
  14 O4        4.2896   -14.4862    -4.1884  O.2     1  <O>11      -0.1498
  15 C6        2.6646   -16.7611    -3.9829  C.ar    1  <O>11       0.1843
  16 C7        3.2255   -17.5602    -4.9951  C.ar    1  <O>11       0.1907
  17 F1        3.8194   -16.9656    -6.0799  F       1  <O>11      -0.2002
  18 C8        3.1788   -18.9553    -4.9003  C.ar    1  <O>11       0.1983
  19 F2        3.7267   -19.7241    -5.8932  F       1  <O>11      -0.1993
  20 C9        2.5779   -19.5651    -3.7955  C.ar    1  <O>11       0.1992
  21 F3        2.5247   -20.9309    -3.6992  F       1  <O>11      -0.1993
  22 C10       2.0243   -18.7699    -2.7860  C.ar    1  <O>11       0.1983
  23 F4        1.4375   -19.3739    -1.7058  F       1  <O>11      -0.1993
  24 C11       2.0686   -17.3773    -2.8701  C.ar    1  <O>11       0.1907
  25 F5        1.5344   -16.5973    -1.8760  F       1  <O>11      -0.2002
  26 C12       2.3852   -12.1676    -4.9628  C.ar    1  <O>11      -0.0169
  27 H1        2.2749   -11.9241    -2.5490  H       1  <O>11       0.1456
  28 H2        1.8263   -10.4950    -1.8204  H       1  <O>11       0.1456
  29 H3        2.7643    -8.8257    -4.6685  H       1  <O>11       0.1747
  30 H4        1.4869   -15.2208    -6.0872  H       1  <O>11       0.1737
  31 H5        1.5281    -9.4147    -6.6865  H       1  <O>11       0.0636
  32 H6        0.5246   -11.0897    -8.1348  H       1  <O>11       0.0619
  33 H7        0.6997   -13.4498    -7.5736  H       1  <O>11       0.0636
  34 H8        2.8908   -12.4582    -4.1114  H       1  <O>11       0.0655
@<TRIPOS>BOND
     1     1     2    1
     2     2     3    2
     3     2     4    2
     4     2     5    1
     5     5     6    1
     6     6     7   ar
     7     7     8   ar
     8     8     9   ar
     9     9    10   ar
    10    10    11    1
    11    11    12    1
    12    12    13    2
    13    12    14    2
    14    12    15    1
    15    15    16   ar
    16    16    17    1
    17    16    18   ar
    18    18    19    1
    19    18    20   ar
    20    20    21    1
    21    20    22   ar
    22    22    23    1
    23    22    24   ar
    24    15    24   ar
    25    24    25    1
    26    10    26   ar
    27     6    26   ar
    28     1    27    1
    29     1    28    1
    30     5    29    1
    31    11    30    1
    32     7    31    1
    33     8    32    1
    34     9    33    1
    35    26    34    1
@<TRIPOS>MOLECULE
mol91_3_22
 34 35 0 0 0
SMALL
USER_CHARGES
****
VDW energy = -413.98
@<TRIPOS>ATOM
   1 N1        2.6154   -11.0930    -2.0656  N.3     1  <O>11      -0.1906
   2 S1        3.6472   -10.2648    -3.0548  S.O2    1  <O>11       0.1067
   3 O1        4.2018    -8.9113    -2.2678  O.2     1  <O>11      -0.1383
   4 O2        4.9323   -11.2385    -3.4543  O.2     1  <O>11      -0.1383
   5 N2        2.8490    -9.8140    -4.4290  N.pl3   1  <O>11      -0.2067
   6 C1        1.6910    -8.9620    -4.3440  C.ar    1  <O>11       0.0508
   7 C2        1.0280    -8.5900    -5.5160  C.ar    1  <O>11      -0.0392
   8 C3       -0.0890    -7.7520    -5.4430  C.ar    1  <O>11      -0.0582
   9 C4       -0.5440    -7.2920    -4.2040  C.ar    1  <O>11      -0.0392
  10 C5        0.1260    -7.6790    -3.0380  C.ar    1  <O>11       0.0498
  11 N3       -0.3480    -7.2030    -1.7630  N.pl3   1  <O>11      -0.2160
  12 S2        0.4300    -7.6470    -0.3750  S.O2    1  <O>11       0.0780
  13 O3        2.0090    -7.1320    -0.4360  O.2     1  <O>11      -0.1498
  14 O4        0.3940    -9.3020    -0.2250  O.2     1  <O>11      -0.1498
  15 C6       -0.3780    -6.9100     1.0160  C.ar    1  <O>11       0.1843
  16 C7       -0.4770    -5.5110     1.1200  C.ar    1  <O>11       0.1907
  17 F1        0.0470    -4.7170     0.1310  F       1  <O>11      -0.2002
  18 C8       -1.1050    -4.9280     2.2260  C.ar    1  <O>11       0.1983
  19 F2       -1.1940    -3.5640     2.3180  F       1  <O>11      -0.1993
  20 C9       -1.6430    -5.7330     3.2340  C.ar    1  <O>11       0.1992
  21 F3       -2.2550    -5.1680     4.3220  F       1  <O>11      -0.1993
  22 C10      -1.5490    -7.1250     3.1280  C.ar    1  <O>11       0.1983
  23 F4       -2.0790    -7.9080     4.1190  F       1  <O>11      -0.1993
  24 C11      -0.9270    -7.7160     2.0270  C.ar    1  <O>11       0.1907
  25 F5       -0.8430    -9.0810     1.9180  F       1  <O>11      -0.2002
  26 C12       1.2410    -8.5150    -3.1000  C.ar    1  <O>11      -0.0169
  27 H1        2.2749   -11.9241    -2.5490  H       1  <O>11       0.1456
  28 H2        1.8263   -10.4950    -1.8204  H       1  <O>11       0.1456
  29 H3        3.1770   -10.1390    -5.3390  H       1  <O>11       0.1747
  30 H4       -1.1630    -6.5910    -1.7170  H       1  <O>11       0.1737
  31 H5        1.3609    -8.9319    -6.4310  H       1  <O>11       0.0636
  32 H6       -0.5792    -7.4722    -6.3070  H       1  <O>11       0.0619
  33 H7       -1.3673    -6.6721    -4.1496  H       1  <O>11       0.0636
  34 H8        1.7280    -8.8000    -2.2359  H       1  <O>11       0.0655
@<TRIPOS>BOND
     1     1     2    1
     2     2     3    2
     3     2     4    2
     4     2     5    1
     5     5     6    1
     6     6     7   ar
     7     7     8   ar
     8     8     9   ar
     9     9    10   ar
    10    10    11    1
    11    11    12    1
    12    12    13    2
    13    12    14    2
    14    12    15    1
    15    15    16   ar
    16    16    17    1
    17    16    18   ar
    18    18    19    1
    19    18    20   ar
    20    20    21    1
    21    20    22   ar
    22    22    23    1
    23    22    24   ar
    24    15    24   ar
    25    24    25    1
    26    10    26   ar
    27     6    26   ar
    28     1    27    1
    29     1    28    1
    30     5    29    1
    31    11    30    1
    32     7    31    1
    33     8    32    1
    34     9    33    1
    35    26    34    1
@<TRIPOS>MOLECULE
mol91_3_23
 34 35 0 0 0
SMALL
USER_CHARGES
****
VDW energy = -413.79
@<TRIPOS>ATOM
   1 N1        2.6154   -11.0930    -2.0656  N.3     1  <O>11      -0.1906
   2 S1        3.6472   -10.2648    -3.0548  S.O2    1  <O>11       0.1067
   3 O1        4.2018    -8.9113    -2.2678  O.2     1  <O>11      -0.1383
   4 O2        4.9323   -11.2385    -3.4543  O.2     1  <O>11      -0.1383
   5 N2        2.8490    -9.8140    -4.4290  N.pl3   1  <O>11      -0.2067
   6 C1        3.5389    -9.0744    -5.4542  C.ar    1  <O>11       0.0508
   7 C2        2.8490    -8.7014    -6.6103  C.ar    1  <O>11      -0.0392
   8 C3        3.5154    -7.9949    -7.6163  C.ar    1  <O>11      -0.0582
   9 C4        4.8637    -7.6587    -7.4653  C.ar    1  <O>11      -0.0392
  10 C5        5.5397    -8.0328    -6.2986  C.ar    1  <O>11       0.0498
  11 N3        6.9294    -7.6825    -6.1474  N.pl3   1  <O>11      -0.2160
  12 S2        7.7458    -8.1163    -4.7783  S.O2    1  <O>11       0.0780
  13 O3        7.0124    -7.4290    -3.4547  O.2     1  <O>11      -0.1498
  14 O4        9.3171    -7.5836    -4.8781  O.2     1  <O>11      -0.1498
  15 C6        7.7285    -9.8781    -4.6142  C.ar    1  <O>11       0.1843
  16 C7        8.3619   -10.4952    -3.5206  C.ar    1  <O>11       0.1907
  17 F1        8.9859    -9.7239    -2.5726  F       1  <O>11      -0.2002
  18 C8        8.3588   -11.8889    -3.3975  C.ar    1  <O>11       0.1983
  19 F2        8.9807   -12.4795    -2.3291  F       1  <O>11      -0.1993
  20 C9        7.7216   -12.6781    -4.3590  C.ar    1  <O>11       0.1992
  21 F3        7.7192   -14.0437    -4.2466  F       1  <O>11      -0.1993
  22 C10       7.0871   -12.0638    -5.4443  C.ar    1  <O>11       0.1983
  23 F4        6.4639   -12.8431    -6.3826  F       1  <O>11      -0.1993
  24 C11       7.0822   -10.6740    -5.5743  C.ar    1  <O>11       0.1907
  25 F5        6.4520   -10.0709    -6.6332  F       1  <O>11      -0.2002
  26 C12       4.8839    -8.7373    -5.2889  C.ar    1  <O>11      -0.0169
  27 H1        2.2749   -11.9241    -2.5490  H       1  <O>11       0.1456
  28 H2        1.8263   -10.4950    -1.8204  H       1  <O>11       0.1456
  29 H3        1.8664   -10.0602    -4.5519  H       1  <O>11       0.1747
  30 H4        7.4098    -7.1679    -6.8858  H       1  <O>11       0.1737
  31 H5        1.8526    -8.9460    -6.7212  H       1  <O>11       0.0636
  32 H6        3.0099    -7.7208    -8.4733  H       1  <O>11       0.0619
  33 H7        5.3565    -7.1389    -8.2082  H       1  <O>11       0.0636
  34 H8        5.3872    -9.0065    -4.4291  H       1  <O>11       0.0655
@<TRIPOS>BOND
     1     1     2    1
     2     2     3    2
     3     2     4    2
     4     2     5    1
     5     5     6    1
     6     6     7   ar
     7     7     8   ar
     8     8     9   ar
     9     9    10   ar
    10    10    11    1
    11    11    12    1
    12    12    13    2
    13    12    14    2
    14    12    15    1
    15    15    16   ar
    16    16    17    1
    17    16    18   ar
    18    18    19    1
    19    18    20   ar
    20    20    21    1
    21    20    22   ar
    22    22    23    1
    23    22    24   ar
    24    15    24   ar
    25    24    25    1
    26    10    26   ar
    27     6    26   ar
    28     1    27    1
    29     1    28    1
    30     5    29    1
    31    11    30    1
    32     7    31    1
    33     8    32    1
    34     9    33    1
    35    26    34    1
@<TRIPOS>MOLECULE
mol91_3_24
 34 35 0 0 0
SMALL
USER_CHARGES
****
VDW energy = -413.65
@<TRIPOS>ATOM
   1 N1        2.6154   -11.0930    -2.0656  N.3     1  <O>11      -0.1906
   2 S1        3.6472   -10.2648    -3.0548  S.O2    1  <O>11       0.1067
   3 O1        4.2018    -8.9113    -2.2678  O.2     1  <O>11      -0.1383
   4 O2        4.9323   -11.2385    -3.4543  O.2     1  <O>11      -0.1383
   5 N2        2.8490    -9.8140    -4.4290  N.pl3   1  <O>11      -0.2067
   6 C1        1.6910    -8.9620    -4.3440  C.ar    1  <O>11       0.0508
   7 C2        1.0280    -8.5900    -5.5160  C.ar    1  <O>11      -0.0392
   8 C3       -0.0890    -7.7520    -5.4430  C.ar    1  <O>11      -0.0582
   9 C4       -0.5440    -7.2920    -4.2040  C.ar    1  <O>11      -0.0392
  10 C5        0.1260    -7.6790    -3.0380  C.ar    1  <O>11       0.0498
  11 N3       -0.3480    -7.2030    -1.7630  N.pl3   1  <O>11      -0.2160
  12 S2        0.4300    -7.6470    -0.3750  S.O2    1  <O>11       0.0780
  13 O3        2.0090    -7.1320    -0.4360  O.2     1  <O>11      -0.1498
  14 O4        0.3940    -9.3020    -0.2250  O.2     1  <O>11      -0.1498
  15 C6       -0.3780    -6.9100     1.0160  C.ar    1  <O>11       0.1843
  16 C7       -1.7293    -7.1931     1.2838  C.ar    1  <O>11       0.1907
  17 F1       -2.4184    -8.0538     0.4668  F       1  <O>11      -0.2002
  18 C8       -2.3716    -6.6007     2.3765  C.ar    1  <O>11       0.1983
  19 F2       -3.6888    -6.8820     2.6268  F       1  <O>11      -0.1993
  20 C9       -1.6725    -5.7260     3.2131  C.ar    1  <O>11       0.1992
  21 F3       -2.2972    -5.1389     4.2821  F       1  <O>11      -0.1993
  22 C10      -0.3267    -5.4484     2.9497  C.ar    1  <O>11       0.1983
  23 F4        0.3526    -4.5909     3.7739  F       1  <O>11      -0.1993
  24 C11       0.3235    -6.0368     1.8637  C.ar    1  <O>11       0.1907
  25 F5        1.6457    -5.7723     1.6105  F       1  <O>11      -0.2002
  26 C12       1.2410    -8.5150    -3.1000  C.ar    1  <O>11      -0.0169
  27 H1        2.2749   -11.9241    -2.5490  H       1  <O>11       0.1456
  28 H2        1.8263   -10.4950    -1.8204  H       1  <O>11       0.1456
  29 H3        3.1770   -10.1390    -5.3390  H       1  <O>11       0.1747
  30 H4       -1.1630    -6.5910    -1.7170  H       1  <O>11       0.1737
  31 H5        1.3609    -8.9319    -6.4310  H       1  <O>11       0.0636
  32 H6       -0.5792    -7.4722    -6.3070  H       1  <O>11       0.0619
  33 H7       -1.3673    -6.6721    -4.1496  H       1  <O>11       0.0636
  34 H8        1.7280    -8.8000    -2.2359  H       1  <O>11       0.0655
@<TRIPOS>BOND
     1     1     2    1
     2     2     3    2
     3     2     4    2
     4     2     5    1
     5     5     6    1
     6     6     7   ar
     7     7     8   ar
     8     8     9   ar
     9     9    10   ar
    10    10    11    1
    11    11    12    1
    12    12    13    2
    13    12    14    2
    14    12    15    1
    15    15    16   ar
    16    16    17    1
    17    16    18   ar
    18    18    19    1
    19    18    20   ar
    20    20    21    1
    21    20    22   ar
    22    22    23    1
    23    22    24   ar
    24    15    24   ar
    25    24    25    1
    26    10    26   ar
    27     6    26   ar
    28     1    27    1
    29     1    28    1
    30     5    29    1
    31    11    30    1
    32     7    31    1
    33     8    32    1
    34     9    33    1
    35    26    34    1
@<TRIPOS>MOLECULE
mol91_3_25
 34 35 0 0 0
SMALL
USER_CHARGES
****
VDW energy = -413.43
@<TRIPOS>ATOM
   1 N1        2.6154   -11.0930    -2.0656  N.3     1  <O>11      -0.1906
   2 S1        3.6472   -10.2648    -3.0548  S.O2    1  <O>11       0.1067
   3 O1        4.2018    -8.9113    -2.2678  O.2     1  <O>11      -0.1383
   4 O2        4.9323   -11.2385    -3.4543  O.2     1  <O>11      -0.1383
   5 N2        2.8490    -9.8140    -4.4290  N.pl3   1  <O>11      -0.2067
   6 C1        1.6910    -8.9620    -4.3440  C.ar    1  <O>11       0.0508
   7 C2        1.0280    -8.5900    -5.5160  C.ar    1  <O>11      -0.0392
   8 C3       -0.0890    -7.7520    -5.4430  C.ar    1  <O>11      -0.0582
   9 C4       -0.5440    -7.2920    -4.2040  C.ar    1  <O>11      -0.0392
  10 C5        0.1260    -7.6790    -3.0380  C.ar    1  <O>11       0.0498
  11 N3       -0.3480    -7.2030    -1.7630  N.pl3   1  <O>11      -0.2160
  12 S2        0.4300    -7.6470    -0.3750  S.O2    1  <O>11       0.0780
  13 O3        0.3933    -9.3017    -0.2244  O.2     1  <O>11      -0.1498
  14 O4       -0.3307    -6.9563     0.9316  O.2     1  <O>11      -0.1498
  15 C6        2.1106    -7.0972    -0.4388  C.ar    1  <O>11       0.1843
  16 C7        2.9834    -7.3566     0.6330  C.ar    1  <O>11       0.1907
  17 F1        2.5292    -8.0491     1.7272  F       1  <O>11      -0.2002
  18 C8        4.3089    -6.9111     0.5879  C.ar    1  <O>11       0.1983
  19 F2        5.1498    -7.1677     1.6385  F       1  <O>11      -0.1993
  20 C9        4.7766    -6.2083    -0.5261  C.ar    1  <O>11       0.1992
  21 F3        6.0723    -5.7651    -0.5742  F       1  <O>11      -0.1993
  22 C10       3.9097    -5.9546    -1.5946  C.ar    1  <O>11       0.1983
  23 F4        4.3747    -5.2660    -2.6835  F       1  <O>11      -0.1993
  24 C11       2.5865    -6.3976    -1.5601  C.ar    1  <O>11       0.1907
  25 F5        1.7388    -6.1574    -2.6117  F       1  <O>11      -0.2002
  26 C12       1.2410    -8.5150    -3.1000  C.ar    1  <O>11      -0.0169
  27 H1        2.2749   -11.9241    -2.5490  H       1  <O>11       0.1456
  28 H2        1.8263   -10.4950    -1.8204  H       1  <O>11       0.1456
  29 H3        3.1770   -10.1390    -5.3390  H       1  <O>11       0.1747
  30 H4       -1.1630    -6.5910    -1.7170  H       1  <O>11       0.1737
  31 H5        1.3609    -8.9319    -6.4310  H       1  <O>11       0.0636
  32 H6       -0.5792    -7.4722    -6.3070  H       1  <O>11       0.0619
  33 H7       -1.3673    -6.6721    -4.1496  H       1  <O>11       0.0636
  34 H8        1.7280    -8.8000    -2.2359  H       1  <O>11       0.0655
@<TRIPOS>BOND
     1     1     2    1
     2     2     3    2
     3     2     4    2
     4     2     5    1
     5     5     6    1
     6     6     7   ar
     7     7     8   ar
     8     8     9   ar
     9     9    10   ar
    10    10    11    1
    11    11    12    1
    12    12    13    2
    13    12    14    2
    14    12    15    1
    15    15    16   ar
    16    16    17    1
    17    16    18   ar
    18    18    19    1
    19    18    20   ar
    20    20    21    1
    21    20    22   ar
    22    22    23    1
    23    22    24   ar
    24    15    24   ar
    25    24    25    1
    26    10    26   ar
    27     6    26   ar
    28     1    27    1
    29     1    28    1
    30     5    29    1
    31    11    30    1
    32     7    31    1
    33     8    32    1
    34     9    33    1
    35    26    34    1
@<TRIPOS>MOLECULE
mol91_3_26
 34 35 0 0 0
SMALL
USER_CHARGES
****
VDW energy = -411.17
@<TRIPOS>ATOM
   1 N1        2.6154   -11.0930    -2.0656  N.3     1  <O>11      -0.1906
   2 S1        3.6472   -10.2648    -3.0548  S.O2    1  <O>11       0.1067
   3 O1        4.2018    -8.9113    -2.2678  O.2     1  <O>11      -0.1383
   4 O2        4.9323   -11.2385    -3.4543  O.2     1  <O>11      -0.1383
   5 N2        2.8490    -9.8140    -4.4290  N.pl3   1  <O>11      -0.2067
   6 C1        3.5389    -9.0744    -5.4542  C.ar    1  <O>11       0.0508
   7 C2        2.8490    -8.7014    -6.6103  C.ar    1  <O>11      -0.0392
   8 C3        3.5154    -7.9949    -7.6163  C.ar    1  <O>11      -0.0582
   9 C4        4.8637    -7.6587    -7.4653  C.ar    1  <O>11      -0.0392
  10 C5        5.5397    -8.0328    -6.2986  C.ar    1  <O>11       0.0498
  11 N3        6.9294    -7.6825    -6.1474  N.pl3   1  <O>11      -0.2160
  12 S2        7.7458    -8.1163    -4.7783  S.O2    1  <O>11       0.0780
  13 O3        7.7278    -9.7710    -4.6235  O.2     1  <O>11      -0.1498
  14 O4        7.0117    -7.4295    -3.4546  O.2     1  <O>11      -0.1498
  15 C6        9.4192    -7.5515    -4.8851  C.ar    1  <O>11       0.1843
  16 C7        9.6979    -6.1798    -5.0213  C.ar    1  <O>11       0.1907
  17 F1        8.6653    -5.2769    -5.0602  F       1  <O>11      -0.2002
  18 C8       11.0207    -5.7344    -5.1182  C.ar    1  <O>11       0.1983
  19 F2       11.2805    -4.3960    -5.2525  F       1  <O>11      -0.1993
  20 C9       12.0756    -6.6503    -5.0756  C.ar    1  <O>11       0.1992
  21 F3       13.3730    -6.2208    -5.1749  F       1  <O>11      -0.1993
  22 C10      11.7985    -8.0145    -4.9351  C.ar    1  <O>11       0.1983
  23 F4       12.8371    -8.9066    -4.8934  F       1  <O>11      -0.1993
  24 C11      10.4823    -8.4683    -4.8346  C.ar    1  <O>11       0.1907
  25 F5       10.2106    -9.8049    -4.6873  F       1  <O>11      -0.2002
  26 C12       4.8839    -8.7373    -5.2889  C.ar    1  <O>11      -0.0169
  27 H1        2.2749   -11.9241    -2.5490  H       1  <O>11       0.1456
  28 H2        1.8263   -10.4950    -1.8204  H       1  <O>11       0.1456
  29 H3        1.8664   -10.0602    -4.5519  H       1  <O>11       0.1747
  30 H4        7.4098    -7.1679    -6.8858  H       1  <O>11       0.1737
  31 H5        1.8526    -8.9460    -6.7212  H       1  <O>11       0.0636
  32 H6        3.0099    -7.7208    -8.4733  H       1  <O>11       0.0619
  33 H7        5.3565    -7.1389    -8.2082  H       1  <O>11       0.0636
  34 H8        5.3872    -9.0065    -4.4291  H       1  <O>11       0.0655
@<TRIPOS>BOND
     1     1     2    1
     2     2     3    2
     3     2     4    2
     4     2     5    1
     5     5     6    1
     6     6     7   ar
     7     7     8   ar
     8     8     9   ar
     9     9    10   ar
    10    10    11    1
    11    11    12    1
    12    12    13    2
    13    12    14    2
    14    12    15    1
    15    15    16   ar
    16    16    17    1
    17    16    18   ar
    18    18    19    1
    19    18    20   ar
    20    20    21    1
    21    20    22   ar
    22    22    23    1
    23    22    24   ar
    24    15    24   ar
    25    24    25    1
    26    10    26   ar
    27     6    26   ar
    28     1    27    1
    29     1    28    1
    30     5    29    1
    31    11    30    1
    32     7    31    1
    33     8    32    1
    34     9    33    1
    35    26    34    1
@<TRIPOS>MOLECULE
mol91_3_27
 34 35 0 0 0
SMALL
USER_CHARGES
****
VDW energy = -409.80
@<TRIPOS>ATOM
   1 N1        2.6154   -11.0930    -2.0656  N.3     1  <O>11      -0.1906
   2 S1        3.6472   -10.2648    -3.0548  S.O2    1  <O>11       0.1067
   3 O1        4.2018    -8.9113    -2.2678  O.2     1  <O>11      -0.1383
   4 O2        4.9323   -11.2385    -3.4543  O.2     1  <O>11      -0.1383
   5 N2        2.8490    -9.8140    -4.4290  N.pl3   1  <O>11      -0.2067
   6 C1        2.2717   -10.8146    -5.2891  C.ar    1  <O>11       0.0508
   7 C2        1.5998   -10.4160    -6.4471  C.ar    1  <O>11      -0.0392
   8 C3        1.0248   -11.3806    -7.2803  C.ar    1  <O>11      -0.0582
   9 C4        1.1253   -12.7375    -6.9600  C.ar    1  <O>11      -0.0392
  10 C5        1.8078   -13.1220    -5.8004  C.ar    1  <O>11       0.0498
  11 N3        1.9096   -14.5223    -5.4754  N.pl3   1  <O>11      -0.2160
  12 S2        2.7097   -14.9968    -4.1102  S.O2    1  <O>11       0.0780
  13 O3        1.9775   -14.3258    -2.7776  O.2     1  <O>11      -0.1498
  14 O4        4.2896   -14.4862    -4.1884  O.2     1  <O>11      -0.1498
  15 C6        2.6646   -16.7611    -3.9829  C.ar    1  <O>11       0.1843
  16 C7        3.2808   -17.4103    -2.8982  C.ar    1  <O>11       0.1907
  17 F1        3.9098   -16.6684    -1.9301  F       1  <O>11      -0.2002
  18 C8        3.2558   -18.8060    -2.8040  C.ar    1  <O>11       0.1983
  19 F2        3.8611   -19.4280    -1.7440  F       1  <O>11      -0.1993
  20 C9        2.6134   -19.5653    -3.7860  C.ar    1  <O>11       0.1992
  21 F3        2.5896   -20.9327    -3.7020  F       1  <O>11      -0.1993
  22 C10       1.9959   -18.9191    -4.8625  C.ar    1  <O>11       0.1983
  23 F4        1.3676   -19.6692    -5.8210  F       1  <O>11      -0.1993
  24 C11       2.0130   -17.5270    -4.9636  C.ar    1  <O>11       0.1907
  25 F5        1.3995   -16.8925    -6.0140  F       1  <O>11      -0.2002
  26 C12       2.3852   -12.1676    -4.9628  C.ar    1  <O>11      -0.0169
  27 H1        2.2749   -11.9241    -2.5490  H       1  <O>11       0.1456
  28 H2        1.8263   -10.4950    -1.8204  H       1  <O>11       0.1456
  29 H3        2.7643    -8.8257    -4.6685  H       1  <O>11       0.1747
  30 H4        1.4869   -15.2208    -6.0872  H       1  <O>11       0.1737
  31 H5        1.5281    -9.4147    -6.6865  H       1  <O>11       0.0636
  32 H6        0.5246   -11.0897    -8.1348  H       1  <O>11       0.0619
  33 H7        0.6997   -13.4498    -7.5736  H       1  <O>11       0.0636
  34 H8        2.8908   -12.4582    -4.1114  H       1  <O>11       0.0655
@<TRIPOS>BOND
     1     1     2    1
     2     2     3    2
     3     2     4    2
     4     2     5    1
     5     5     6    1
     6     6     7   ar
     7     7     8   ar
     8     8     9   ar
     9     9    10   ar
    10    10    11    1
    11    11    12    1
    12    12    13    2
    13    12    14    2
    14    12    15    1
    15    15    16   ar
    16    16    17    1
    17    16    18   ar
    18    18    19    1
    19    18    20   ar
    20    20    21    1
    21    20    22   ar
    22    22    23    1
    23    22    24   ar
    24    15    24   ar
    25    24    25    1
    26    10    26   ar
    27     6    26   ar
    28     1    27    1
    29     1    28    1
    30     5    29    1
    31    11    30    1
    32     7    31    1
    33     8    32    1
    34     9    33    1
    35    26    34    1
@<TRIPOS>MOLECULE
mol91_3_28
 34 35 0 0 0
SMALL
USER_CHARGES
****
VDW energy = -409.60
@<TRIPOS>ATOM
   1 N1        2.6154   -11.0930    -2.0656  N.3     1  <O>11      -0.1906
   2 S1        3.6472   -10.2648    -3.0548  S.O2    1  <O>11       0.1067
   3 O1        4.2018    -8.9113    -2.2678  O.2     1  <O>11      -0.1383
   4 O2        4.9323   -11.2385    -3.4543  O.2     1  <O>11      -0.1383
   5 N2        2.8490    -9.8140    -4.4290  N.pl3   1  <O>11      -0.2067
   6 C1        1.6910    -8.9620    -4.3440  C.ar    1  <O>11       0.0508
   7 C2        1.0280    -8.5900    -5.5160  C.ar    1  <O>11      -0.0392
   8 C3       -0.0890    -7.7520    -5.4430  C.ar    1  <O>11      -0.0582
   9 C4       -0.5440    -7.2920    -4.2040  C.ar    1  <O>11      -0.0392
  10 C5        0.1260    -7.6790    -3.0380  C.ar    1  <O>11       0.0498
  11 N3       -0.3480    -7.2030    -1.7630  N.pl3   1  <O>11      -0.2160
  12 S2        0.4300    -7.6470    -0.3750  S.O2    1  <O>11       0.0780
  13 O3        2.0090    -7.1320    -0.4360  O.2     1  <O>11      -0.1498
  14 O4        0.3940    -9.3020    -0.2250  O.2     1  <O>11      -0.1498
  15 C6       -0.3780    -6.9100     1.0160  C.ar    1  <O>11       0.1843
  16 C7        0.1009    -7.1391     2.3183  C.ar    1  <O>11       0.1907
  17 F1        1.2066    -7.9297     2.5068  F       1  <O>11      -0.2002
  18 C8       -0.5455    -6.5664     3.4191  C.ar    1  <O>11       0.1983
  19 F2       -0.0715    -6.7979     4.6835  F       1  <O>11      -0.1993
  20 C9       -1.6700    -5.7579     3.2315  C.ar    1  <O>11       0.1992
  21 F3       -2.3103    -5.1980     4.3058  F       1  <O>11      -0.1993
  22 C10      -2.1434    -5.5258     1.9354  C.ar    1  <O>11       0.1983
  23 F4       -3.2454    -4.7319     1.7586  F       1  <O>11      -0.1993
  24 C11      -1.5036    -6.0903     0.8307  C.ar    1  <O>11       0.1907
  25 F5       -1.9617    -5.8553    -0.4409  F       1  <O>11      -0.2002
  26 C12       1.2410    -8.5150    -3.1000  C.ar    1  <O>11      -0.0169
  27 H1        2.2749   -11.9241    -2.5490  H       1  <O>11       0.1456
  28 H2        1.8263   -10.4950    -1.8204  H       1  <O>11       0.1456
  29 H3        3.1770   -10.1390    -5.3390  H       1  <O>11       0.1747
  30 H4       -1.1630    -6.5910    -1.7170  H       1  <O>11       0.1737
  31 H5        1.3609    -8.9319    -6.4310  H       1  <O>11       0.0636
  32 H6       -0.5792    -7.4722    -6.3070  H       1  <O>11       0.0619
  33 H7       -1.3673    -6.6721    -4.1496  H       1  <O>11       0.0636
  34 H8        1.7280    -8.8000    -2.2359  H       1  <O>11       0.0655
@<TRIPOS>BOND
     1     1     2    1
     2     2     3    2
     3     2     4    2
     4     2     5    1
     5     5     6    1
     6     6     7   ar
     7     7     8   ar
     8     8     9   ar
     9     9    10   ar
    10    10    11    1
    11    11    12    1
    12    12    13    2
    13    12    14    2
    14    12    15    1
    15    15    16   ar
    16    16    17    1
    17    16    18   ar
    18    18    19    1
    19    18    20   ar
    20    20    21    1
    21    20    22   ar
    22    22    23    1
    23    22    24   ar
    24    15    24   ar
    25    24    25    1
    26    10    26   ar
    27     6    26   ar
    28     1    27    1
    29     1    28    1
    30     5    29    1
    31    11    30    1
    32     7    31    1
    33     8    32    1
    34     9    33    1
    35    26    34    1
@<TRIPOS>MOLECULE
mol91_3_29
 34 35 0 0 0
SMALL
USER_CHARGES
****
VDW energy = -407.10
@<TRIPOS>ATOM
   1 N1        2.6154   -11.0930    -2.0656  N.3     1  <O>11      -0.1906
   2 S1        3.6472   -10.2648    -3.0548  S.O2    1  <O>11       0.1067
   3 O1        4.2018    -8.9113    -2.2678  O.2     1  <O>11      -0.1383
   4 O2        4.9323   -11.2385    -3.4543  O.2     1  <O>11      -0.1383
   5 N2        2.8490    -9.8140    -4.4290  N.pl3   1  <O>11      -0.2067
   6 C1        3.5389    -9.0744    -5.4542  C.ar    1  <O>11       0.0508
   7 C2        2.8490    -8.7014    -6.6103  C.ar    1  <O>11      -0.0392
   8 C3        3.5154    -7.9949    -7.6163  C.ar    1  <O>11      -0.0582
   9 C4        4.8637    -7.6587    -7.4653  C.ar    1  <O>11      -0.0392
  10 C5        5.5397    -8.0328    -6.2986  C.ar    1  <O>11       0.0498
  11 N3        6.9294    -7.6825    -6.1474  N.pl3   1  <O>11      -0.2160
  12 S2        7.7458    -8.1163    -4.7783  S.O2    1  <O>11       0.0780
  13 O3        7.7278    -9.7710    -4.6235  O.2     1  <O>11      -0.1498
  14 O4        7.0117    -7.4295    -3.4546  O.2     1  <O>11      -0.1498
  15 C6        9.4192    -7.5515    -4.8851  C.ar    1  <O>11       0.1843
  16 C7       10.3207    -7.8007    -3.8349  C.ar    1  <O>11       0.1907
  17 F1        9.9003    -8.4947    -2.7283  F       1  <O>11      -0.2002
  18 C8       11.6406    -7.3433    -3.9140  C.ar    1  <O>11       0.1983
  19 F2       12.5097    -7.5899    -2.8841  F       1  <O>11      -0.1993
  20 C9       12.0740    -6.6388    -5.0407  C.ar    1  <O>11       0.1992
  21 F3       13.3640    -6.1841    -5.1221  F       1  <O>11      -0.1993
  22 C10      11.1785    -6.3954    -6.0878  C.ar    1  <O>11       0.1983
  23 F4       11.6099    -5.7051    -7.1894  F       1  <O>11      -0.1993
  24 C11       9.8606    -6.8502    -6.0194  C.ar    1  <O>11       0.1907
  25 F5        8.9848    -6.6201    -7.0500  F       1  <O>11      -0.2002
  26 C12       4.8839    -8.7373    -5.2889  C.ar    1  <O>11      -0.0169
  27 H1        2.2749   -11.9241    -2.5490  H       1  <O>11       0.1456
  28 H2        1.8263   -10.4950    -1.8204  H       1  <O>11       0.1456
  29 H3        1.8664   -10.0602    -4.5519  H       1  <O>11       0.1747
  30 H4        7.4098    -7.1679    -6.8858  H       1  <O>11       0.1737
  31 H5        1.8526    -8.9460    -6.7212  H       1  <O>11       0.0636
  32 H6        3.0099    -7.7208    -8.4733  H       1  <O>11       0.0619
  33 H7        5.3565    -7.1389    -8.2082  H       1  <O>11       0.0636
  34 H8        5.3872    -9.0065    -4.4291  H       1  <O>11       0.0655
@<TRIPOS>BOND
     1     1     2    1
     2     2     3    2
     3     2     4    2
     4     2     5    1
     5     5     6    1
     6     6     7   ar
     7     7     8   ar
     8     8     9   ar
     9     9    10   ar
    10    10    11    1
    11    11    12    1
    12    12    13    2
    13    12    14    2
    14    12    15    1
    15    15    16   ar
    16    16    17    1
    17    16    18   ar
    18    18    19    1
    19    18    20   ar
    20    20    21    1
    21    20    22   ar
    22    22    23    1
    23    22    24   ar
    24    15    24   ar
    25    24    25    1
    26    10    26   ar
    27     6    26   ar
    28     1    27    1
    29     1    28    1
    30     5    29    1
    31    11    30    1
    32     7    31    1
    33     8    32    1
    34     9    33    1
    35    26    34    1
@<TRIPOS>MOLECULE
mol91_3_30
 34 35 0 0 0
SMALL
USER_CHARGES
****
VDW energy = -395.94
@<TRIPOS>ATOM
   1 N1        2.6154   -11.0930    -2.0656  N.3     1  <O>11      -0.1906
   2 S1        3.6472   -10.2648    -3.0548  S.O2    1  <O>11       0.1067
   3 O1        4.2018    -8.9113    -2.2678  O.2     1  <O>11      -0.1383
   4 O2        4.9323   -11.2385    -3.4543  O.2     1  <O>11      -0.1383
   5 N2        2.8490    -9.8140    -4.4290  N.pl3   1  <O>11      -0.2067
   6 C1        1.6910    -8.9620    -4.3440  C.ar    1  <O>11       0.0508
   7 C2        1.0280    -8.5900    -5.5160  C.ar    1  <O>11      -0.0392
   8 C3       -0.0890    -7.7520    -5.4430  C.ar    1  <O>11      -0.0582
   9 C4       -0.5440    -7.2920    -4.2040  C.ar    1  <O>11      -0.0392
  10 C5        0.1260    -7.6790    -3.0380  C.ar    1  <O>11       0.0498
  11 N3       -0.3480    -7.2030    -1.7630  N.pl3   1  <O>11      -0.2160
  12 S2        0.4300    -7.6470    -0.3750  S.O2    1  <O>11       0.0780
  13 O3        0.3933    -9.3017    -0.2244  O.2     1  <O>11      -0.1498
  14 O4       -0.3307    -6.9563     0.9316  O.2     1  <O>11      -0.1498
  15 C6        2.1106    -7.0972    -0.4388  C.ar    1  <O>11       0.1843
  16 C7        2.4050    -5.7278    -0.5648  C.ar    1  <O>11       0.1907
  17 F1        1.3819    -4.8154    -0.6274  F       1  <O>11      -0.2002
  18 C8        3.7338    -5.2942    -0.6277  C.ar    1  <O>11       0.1983
  19 F2        4.0089    -3.9579    -0.7525  F       1  <O>11      -0.1993
  20 C9        4.7790    -6.2197    -0.5610  C.ar    1  <O>11       0.1992
  21 F3        6.0823    -5.8018    -0.6269  F       1  <O>11      -0.1993
  22 C10       4.4862    -7.5816    -0.4305  C.ar    1  <O>11       0.1983
  23 F4        5.5153    -8.4832    -0.3649  F       1  <O>11      -0.1993
  24 C11       3.1638    -8.0236    -0.3639  C.ar    1  <O>11       0.1907
  25 F5        2.8764    -9.3580    -0.2264  F       1  <O>11      -0.2002
  26 C12       1.2410    -8.5150    -3.1000  C.ar    1  <O>11      -0.0169
  27 H1        2.2749   -11.9241    -2.5490  H       1  <O>11       0.1456
  28 H2        1.8263   -10.4950    -1.8204  H       1  <O>11       0.1456
  29 H3        3.1770   -10.1390    -5.3390  H       1  <O>11       0.1747
  30 H4       -1.1630    -6.5910    -1.7170  H       1  <O>11       0.1737
  31 H5        1.3609    -8.9319    -6.4310  H       1  <O>11       0.0636
  32 H6       -0.5792    -7.4722    -6.3070  H       1  <O>11       0.0619
  33 H7       -1.3673    -6.6721    -4.1496  H       1  <O>11       0.0636
  34 H8        1.7280    -8.8000    -2.2359  H       1  <O>11       0.0655
@<TRIPOS>BOND
     1     1     2    1
     2     2     3    2
     3     2     4    2
     4     2     5    1
     5     5     6    1
     6     6     7   ar
     7     7     8   ar
     8     8     9   ar
     9     9    10   ar
    10    10    11    1
    11    11    12    1
    12    12    13    2
    13    12    14    2
    14    12    15    1
    15    15    16   ar
    16    16    17    1
    17    16    18   ar
    18    18    19    1
    19    18    20   ar
    20    20    21    1
    21    20    22   ar
    22    22    23    1
    23    22    24   ar
    24    15    24   ar
    25    24    25    1
    26    10    26   ar
    27     6    26   ar
    28     1    27    1
    29     1    28    1
    30     5    29    1
    31    11    30    1
    32     7    31    1
    33     8    32    1
    34     9    33    1
    35    26    34    1
@<TRIPOS>MOLECULE
mol91_4_1
 34 35 0 0 0
SMALL
USER_CHARGES
****
VDW energy = -430.24
@<TRIPOS>ATOM
   1 N1        2.6154   -11.0930    -2.0656  N.3     1  <O>11      -0.1906
   2 S1        3.6472   -10.2648    -3.0548  S.O2    1  <O>11       0.1067
   3 O1        4.2018    -8.9113    -2.2678  O.2     1  <O>11      -0.1383
   4 O2        4.9323   -11.2385    -3.4543  O.2     1  <O>11      -0.1383
   5 N2        2.8490    -9.8140    -4.4290  N.pl3   1  <O>11      -0.2067
   6 C1        3.5389    -9.0744    -5.4542  C.ar    1  <O>11       0.0508
   7 C2        4.5828    -9.6853    -6.1533  C.ar    1  <O>11      -0.0392
   8 C3        5.2666    -8.9693    -7.1408  C.ar    1  <O>11      -0.0582
   9 C4        4.9054    -7.6507    -7.4315  C.ar    1  <O>11      -0.0392
  10 C5        3.8529    -7.0545    -6.7280  C.ar    1  <O>11       0.0498
  11 N3        3.4836    -5.6952    -7.0325  N.pl3   1  <O>11      -0.2160
  12 S2        2.3472    -5.3883    -8.1909  S.O2    1  <O>11       0.0780
  13 O3        0.9125    -6.1052    -7.7632  O.2     1  <O>11      -0.1498
  14 O4        2.8608    -5.9994    -9.6467  O.2     1  <O>11      -0.1498
  15 C6        2.1128    -3.6386    -8.3364  C.ar    1  <O>11       0.1843
  16 C7        3.1875    -2.8064    -8.6898  C.ar    1  <O>11       0.1907
  17 F1        4.4207    -3.3541    -8.9330  F       1  <O>11      -0.2002
  18 C8        3.0046    -1.4230    -8.7929  C.ar    1  <O>11       0.1983
  19 F2        4.0629    -0.6190    -9.1333  F       1  <O>11      -0.1993
  20 C9        1.7483    -0.8594    -8.5490  C.ar    1  <O>11       0.1992
  21 F3        1.5643     0.4977    -8.6453  F       1  <O>11      -0.1993
  22 C10       0.6778    -1.6883    -8.2037  C.ar    1  <O>11       0.1983
  23 F4       -0.5529    -1.1319    -7.9667  F       1  <O>11      -0.1993
  24 C11       0.8490    -3.0699    -8.0998  C.ar    1  <O>11       0.1907
  25 F5       -0.2037    -3.8849    -7.7679  F       1  <O>11      -0.2002
  26 C12       3.1641    -7.7603    -5.7413  C.ar    1  <O>11      -0.0169
  27 H1        2.2749   -11.9241    -2.5490  H       1  <O>11       0.1456
  28 H2        1.8263   -10.4950    -1.8204  H       1  <O>11       0.1456
  29 H3        1.8664   -10.0602    -4.5519  H       1  <O>11       0.1747
  30 H4        3.9262    -4.9233    -6.5330  H       1  <O>11       0.1737
  31 H5        4.8480   -10.6599    -5.9420  H       1  <O>11       0.0636
  32 H6        6.0406    -9.4162    -7.6568  H       1  <O>11       0.0619
  33 H7        5.4108    -7.1212    -8.1590  H       1  <O>11       0.0636
  34 H8        2.3861    -7.3160    -5.2291  H       1  <O>11       0.0655
@<TRIPOS>BOND
     1     1     2    1
     2     2     3    2
     3     2     4    2
     4     2     5    1
     5     5     6    1
     6     6     7   ar
     7     7     8   ar
     8     8     9   ar
     9     9    10   ar
    10    10    11    1
    11    11    12    1
    12    12    13    2
    13    12    14    2
    14    12    15    1
    15    15    16   ar
    16    16    17    1
    17    16    18   ar
    18    18    19    1
    19    18    20   ar
    20    20    21    1
    21    20    22   ar
    22    22    23    1
    23    22    24   ar
    24    15    24   ar
    25    24    25    1
    26    10    26   ar
    27     6    26   ar
    28     1    27    1
    29     1    28    1
    30     5    29    1
    31    11    30    1
    32     7    31    1
    33     8    32    1
    34     9    33    1
    35    26    34    1
@<TRIPOS>MOLECULE
mol91_4_2
 34 35 0 0 0
SMALL
USER_CHARGES
****
VDW energy = -427.44
@<TRIPOS>ATOM
   1 N1        2.6154   -11.0930    -2.0656  N.3     1  <O>11      -0.1906
   2 S1        3.6472   -10.2648    -3.0548  S.O2    1  <O>11       0.1067
   3 O1        4.2018    -8.9113    -2.2678  O.2     1  <O>11      -0.1383
   4 O2        4.9323   -11.2385    -3.4543  O.2     1  <O>11      -0.1383
   5 N2        2.8490    -9.8140    -4.4290  N.pl3   1  <O>11      -0.2067
   6 C1        2.2717   -10.8146    -5.2891  C.ar    1  <O>11       0.0508
   7 C2        3.1116   -11.7056    -5.9615  C.ar    1  <O>11      -0.0392
   8 C3        2.5597   -12.6713    -6.8090  C.ar    1  <O>11      -0.0582
   9 C4        1.1746   -12.7490    -6.9796  C.ar    1  <O>11      -0.0392
  10 C5        0.3455   -11.8544    -6.2937  C.ar    1  <O>11       0.0498
  11 N3       -1.0820   -11.9397    -6.4721  N.pl3   1  <O>11      -0.2160
  12 S2       -1.7516   -11.6019    -7.9436  S.O2    1  <O>11       0.0780
  13 O3       -1.1441   -12.6466    -9.0816  O.2     1  <O>11      -0.1498
  14 O4       -1.3870   -10.0402    -8.3730  O.2     1  <O>11      -0.1498
  15 C6       -3.5101   -11.7911    -7.8472  C.ar    1  <O>11       0.1843
  16 C7       -4.2587   -11.0123    -6.9497  C.ar    1  <O>11       0.1907
  17 F1       -3.6245   -10.0947    -6.1524  F       1  <O>11      -0.2002
  18 C8       -5.6464   -11.1706    -6.8654  C.ar    1  <O>11       0.1983
  19 F2       -6.3669   -10.4085    -5.9810  F       1  <O>11      -0.1993
  20 C9       -6.2987   -12.1028    -7.6784  C.ar    1  <O>11       0.1992
  21 F3       -7.6596   -12.2646    -7.5972  F       1  <O>11      -0.1993
  22 C10      -5.5545   -12.8728    -8.5758  C.ar    1  <O>11       0.1983
  23 F4       -6.1981   -13.7849    -9.3723  F       1  <O>11      -0.1993
  24 C11      -4.1697   -12.7217    -8.6691  C.ar    1  <O>11       0.1907
  25 F5       -3.4395   -13.4725    -9.5554  F       1  <O>11      -0.2002
  26 C12       0.8861   -10.8877    -5.4456  C.ar    1  <O>11      -0.0169
  27 H1        2.2749   -11.9241    -2.5490  H       1  <O>11       0.1456
  28 H2        1.8263   -10.4950    -1.8204  H       1  <O>11       0.1456
  29 H3        2.7643    -8.8257    -4.6685  H       1  <O>11       0.1747
  30 H4       -1.6780   -12.2071    -5.6883  H       1  <O>11       0.1737
  31 H5        4.1342   -11.6514    -5.8335  H       1  <O>11       0.0636
  32 H6        3.1773   -13.3289    -7.3102  H       1  <O>11       0.0619
  33 H7        0.7667   -13.4604    -7.6062  H       1  <O>11       0.0636
  34 H8        0.2687   -10.2337    -4.9395  H       1  <O>11       0.0655
@<TRIPOS>BOND
     1     1     2    1
     2     2     3    2
     3     2     4    2
     4     2     5    1
     5     5     6    1
     6     6     7   ar
     7     7     8   ar
     8     8     9   ar
     9     9    10   ar
    10    10    11    1
    11    11    12    1
    12    12    13    2
    13    12    14    2
    14    12    15    1
    15    15    16   ar
    16    16    17    1
    17    16    18   ar
    18    18    19    1
    19    18    20   ar
    20    20    21    1
    21    20    22   ar
    22    22    23    1
    23    22    24   ar
    24    15    24   ar
    25    24    25    1
    26    10    26   ar
    27     6    26   ar
    28     1    27    1
    29     1    28    1
    30     5    29    1
    31    11    30    1
    32     7    31    1
    33     8    32    1
    34     9    33    1
    35    26    34    1
@<TRIPOS>MOLECULE
mol91_4_3
 34 35 0 0 0
SMALL
USER_CHARGES
****
VDW energy = -426.80
@<TRIPOS>ATOM
   1 N1        2.6154   -11.0930    -2.0656  N.3     1  <O>11      -0.1906
   2 S1        3.6472   -10.2648    -3.0548  S.O2    1  <O>11       0.1067
   3 O1        4.2018    -8.9113    -2.2678  O.2     1  <O>11      -0.1383
   4 O2        4.9323   -11.2385    -3.4543  O.2     1  <O>11      -0.1383
   5 N2        2.8490    -9.8140    -4.4290  N.pl3   1  <O>11      -0.2067
   6 C1        2.2717   -10.8146    -5.2891  C.ar    1  <O>11       0.0508
   7 C2        3.0403   -11.3530    -6.3239  C.ar    1  <O>11      -0.0392
   8 C3        2.4827   -12.3150    -7.1718  C.ar    1  <O>11      -0.0582
   9 C4        1.1647   -12.7404    -6.9830  C.ar    1  <O>11      -0.0392
  10 C5        0.4094   -12.1974    -5.9376  C.ar    1  <O>11       0.0498
  11 N3       -0.9486   -12.6404    -5.7465  N.pl3   1  <O>11      -0.2160
  12 S2       -1.8564   -12.0128    -4.5179  S.O2    1  <O>11       0.0780
  13 O3       -1.1210   -12.3352    -3.0651  O.2     1  <O>11      -0.1498
  14 O4       -3.3680   -12.6992    -4.5393  O.2     1  <O>11      -0.1498
  15 C6       -2.0022   -10.2603    -4.7298  C.ar    1  <O>11       0.1843
  16 C7       -2.1406    -9.4203    -3.6128  C.ar    1  <O>11       0.1907
  17 F1       -2.1523    -9.9604    -2.3527  F       1  <O>11      -0.2002
  18 C8       -2.2678    -8.0371    -3.7815  C.ar    1  <O>11       0.1983
  19 F2       -2.4081    -7.2266    -2.6834  F       1  <O>11      -0.1993
  20 C9       -2.2534    -7.4805    -5.0642  C.ar    1  <O>11       0.1992
  21 F3       -2.3814    -6.1244    -5.2354  F       1  <O>11      -0.1993
  22 C10      -2.1092    -8.3159    -6.1749  C.ar    1  <O>11       0.1983
  23 F4       -2.0942    -7.7660    -7.4311  F       1  <O>11      -0.1993
  24 C11      -1.9799    -9.6970    -6.0178  C.ar    1  <O>11       0.1907
  25 F5       -1.8310   -10.5169    -7.1078  F       1  <O>11      -0.2002
  26 C12       0.9565   -11.2375    -5.0860  C.ar    1  <O>11      -0.0169
  27 H1        2.2749   -11.9241    -2.5490  H       1  <O>11       0.1456
  28 H2        1.8263   -10.4950    -1.8204  H       1  <O>11       0.1456
  29 H3        2.7643    -8.8257    -4.6685  H       1  <O>11       0.1747
  30 H4       -1.3474   -13.3430    -6.3697  H       1  <O>11       0.1737
  31 H5        4.0147   -11.0422    -6.4620  H       1  <O>11       0.0636
  32 H6        3.0463   -12.7124    -7.9396  H       1  <O>11       0.0619
  33 H7        0.7520   -13.4491    -7.6095  H       1  <O>11       0.0636
  34 H8        0.3954   -10.8441    -4.3143  H       1  <O>11       0.0655
@<TRIPOS>BOND
     1     1     2    1
     2     2     3    2
     3     2     4    2
     4     2     5    1
     5     5     6    1
     6     6     7   ar
     7     7     8   ar
     8     8     9   ar
     9     9    10   ar
    10    10    11    1
    11    11    12    1
    12    12    13    2
    13    12    14    2
    14    12    15    1
    15    15    16   ar
    16    16    17    1
    17    16    18   ar
    18    18    19    1
    19    18    20   ar
    20    20    21    1
    21    20    22   ar
    22    22    23    1
    23    22    24   ar
    24    15    24   ar
    25    24    25    1
    26    10    26   ar
    27     6    26   ar
    28     1    27    1
    29     1    28    1
    30     5    29    1
    31    11    30    1
    32     7    31    1
    33     8    32    1
    34     9    33    1
    35    26    34    1
@<TRIPOS>MOLECULE
mol91_4_4
 34 35 0 0 0
SMALL
USER_CHARGES
****
VDW energy = -423.96
@<TRIPOS>ATOM
   1 N1        2.6154   -11.0930    -2.0656  N.3     1  <O>11      -0.1906
   2 S1        3.6472   -10.2648    -3.0548  S.O2    1  <O>11       0.1067
   3 O1        4.2018    -8.9113    -2.2678  O.2     1  <O>11      -0.1383
   4 O2        4.9323   -11.2385    -3.4543  O.2     1  <O>11      -0.1383
   5 N2        2.8490    -9.8140    -4.4290  N.pl3   1  <O>11      -0.2067
   6 C1        1.6910    -8.9620    -4.3440  C.ar    1  <O>11       0.0508
   7 C2        0.4257    -9.5388    -4.2101  C.ar    1  <O>11      -0.0392
   8 C3       -0.7048    -8.7189    -4.1406  C.ar    1  <O>11      -0.0582
   9 C4       -0.5708    -7.3288    -4.1997  C.ar    1  <O>11      -0.0392
  10 C5        0.7038    -6.7652    -4.3265  C.ar    1  <O>11       0.0498
  11 N3        0.8365    -5.3314    -4.3857  N.pl3   1  <O>11      -0.2160
  12 S2        2.3319    -4.6463    -4.5341  S.O2    1  <O>11       0.0780
  13 O3        3.2726    -5.0832    -3.2381  O.2     1  <O>11      -0.1498
  14 O4        2.1822    -2.9934    -4.5792  O.2     1  <O>11      -0.1498
  15 C6        3.0914    -5.2100    -6.0318  C.ar    1  <O>11       0.1843
  16 C7        4.4886    -5.3226    -6.1191  C.ar    1  <O>11       0.1907
  17 F1        5.2660    -5.0040    -5.0356  F       1  <O>11      -0.2002
  18 C8        5.0887    -5.7565    -7.3064  C.ar    1  <O>11       0.1983
  19 F2        6.4549    -5.8574    -7.3823  F       1  <O>11      -0.1993
  20 C9        4.3006    -6.0858    -8.4135  C.ar    1  <O>11       0.1992
  21 F3        4.8846    -6.5086    -9.5819  F       1  <O>11      -0.1993
  22 C10       2.9103    -5.9798    -8.3241  C.ar    1  <O>11       0.1983
  23 F4        2.1408    -6.3049    -9.4117  F       1  <O>11      -0.1993
  24 C11       2.3012    -5.5495    -7.1439  C.ar    1  <O>11       0.1907
  25 F5        0.9356    -5.4524    -7.0534  F       1  <O>11      -0.2002
  26 C12       1.8379    -7.5744    -4.3963  C.ar    1  <O>11      -0.0169
  27 H1        2.2749   -11.9241    -2.5490  H       1  <O>11       0.1456
  28 H2        1.8263   -10.4950    -1.8204  H       1  <O>11       0.1456
  29 H3        3.1770   -10.1390    -5.3390  H       1  <O>11       0.1747
  30 H4        0.0062    -4.7406    -4.3340  H       1  <O>11       0.1737
  31 H5        0.3259   -10.5649    -4.1628  H       1  <O>11       0.0636
  32 H6       -1.6414    -9.1416    -4.0453  H       1  <O>11       0.0619
  33 H7       -1.4049    -6.7232    -4.1502  H       1  <O>11       0.0636
  34 H8        2.7753    -7.1521    -4.4856  H       1  <O>11       0.0655
@<TRIPOS>BOND
     1     1     2    1
     2     2     3    2
     3     2     4    2
     4     2     5    1
     5     5     6    1
     6     6     7   ar
     7     7     8   ar
     8     8     9   ar
     9     9    10   ar
    10    10    11    1
    11    11    12    1
    12    12    13    2
    13    12    14    2
    14    12    15    1
    15    15    16   ar
    16    16    17    1
    17    16    18   ar
    18    18    19    1
    19    18    20   ar
    20    20    21    1
    21    20    22   ar
    22    22    23    1
    23    22    24   ar
    24    15    24   ar
    25    24    25    1
    26    10    26   ar
    27     6    26   ar
    28     1    27    1
    29     1    28    1
    30     5    29    1
    31    11    30    1
    32     7    31    1
    33     8    32    1
    34     9    33    1
    35    26    34    1
@<TRIPOS>MOLECULE
mol91_4_5
 34 35 0 0 0
SMALL
USER_CHARGES
****
VDW energy = -423.70
@<TRIPOS>ATOM
   1 N1        2.6154   -11.0930    -2.0656  N.3     1  <O>11      -0.1906
   2 S1        3.6472   -10.2648    -3.0548  S.O2    1  <O>11       0.1067
   3 O1        4.2018    -8.9113    -2.2678  O.2     1  <O>11      -0.1383
   4 O2        4.9323   -11.2385    -3.4543  O.2     1  <O>11      -0.1383
   5 N2        2.8490    -9.8140    -4.4290  N.pl3   1  <O>11      -0.2067
   6 C1        1.6910    -8.9620    -4.3440  C.ar    1  <O>11       0.0508
   7 C2        1.0280    -8.5900    -5.5160  C.ar    1  <O>11      -0.0392
   8 C3       -0.0890    -7.7520    -5.4430  C.ar    1  <O>11      -0.0582
   9 C4       -0.5440    -7.2920    -4.2040  C.ar    1  <O>11      -0.0392
  10 C5        0.1260    -7.6790    -3.0380  C.ar    1  <O>11       0.0498
  11 N3       -0.3480    -7.2030    -1.7630  N.pl3   1  <O>11      -0.2160
  12 S2        0.4280    -7.6490    -0.3750  S.O2    1  <O>11       0.0780
  13 O3        0.3899    -9.3018    -0.2256  O.2     1  <O>11      -0.1498
  14 O4       -0.3289    -6.9561     0.9302  O.2     1  <O>11      -0.1498
  15 C6        2.1110    -7.1005    -0.4395  C.ar    1  <O>11       0.1843
  16 C7        3.1169    -7.8200     0.2260  C.ar    1  <O>11       0.1907
  17 F1        2.7942    -8.9577     0.9198  F       1  <O>11      -0.2002
  18 C8        4.4444    -7.3796     0.1848  C.ar    1  <O>11       0.1983
  19 F2        5.4181    -8.0872     0.8432  F       1  <O>11      -0.1993
  20 C9        4.7798    -6.2217    -0.5238  C.ar    1  <O>11       0.1992
  21 F3        6.0801    -5.7833    -0.5646  F       1  <O>11      -0.1993
  22 C10       3.7797    -5.5097    -1.1912  C.ar    1  <O>11       0.1983
  23 F4        4.1129    -4.3754    -1.8861  F       1  <O>11      -0.1993
  24 C11       2.4524    -5.9412    -1.1578  C.ar    1  <O>11       0.1907
  25 F5        1.4713    -5.2464    -1.8190  F       1  <O>11      -0.2002
  26 C12       1.2410    -8.5150    -3.1000  C.ar    1  <O>11      -0.0169
  27 H1        2.2749   -11.9241    -2.5490  H       1  <O>11       0.1456
  28 H2        1.8263   -10.4950    -1.8204  H       1  <O>11       0.1456
  29 H3        3.1770   -10.1390    -5.3390  H       1  <O>11       0.1747
  30 H4       -1.1640    -6.5920    -1.7190  H       1  <O>11       0.1737
  31 H5        1.3609    -8.9319    -6.4310  H       1  <O>11       0.0636
  32 H6       -0.5792    -7.4722    -6.3070  H       1  <O>11       0.0619
  33 H7       -1.3673    -6.6721    -4.1496  H       1  <O>11       0.0636
  34 H8        1.7280    -8.8000    -2.2359  H       1  <O>11       0.0655
@<TRIPOS>BOND
     1     1     2    1
     2     2     3    2
     3     2     4    2
     4     2     5    1
     5     5     6    1
     6     6     7   ar
     7     7     8   ar
     8     8     9   ar
     9     9    10   ar
    10    10    11    1
    11    11    12    1
    12    12    13    2
    13    12    14    2
    14    12    15    1
    15    15    16   ar
    16    16    17    1
    17    16    18   ar
    18    18    19    1
    19    18    20   ar
    20    20    21    1
    21    20    22   ar
    22    22    23    1
    23    22    24   ar
    24    15    24   ar
    25    24    25    1
    26    10    26   ar
    27     6    26   ar
    28     1    27    1
    29     1    28    1
    30     5    29    1
    31    11    30    1
    32     7    31    1
    33     8    32    1
    34     9    33    1
    35    26    34    1
@<TRIPOS>MOLECULE
mol91_4_6
 34 35 0 0 0
SMALL
USER_CHARGES
****
VDW energy = -423.09
@<TRIPOS>ATOM
   1 N1        2.6154   -11.0930    -2.0656  N.3     1  <O>11      -0.1906
   2 S1        3.6472   -10.2648    -3.0548  S.O2    1  <O>11       0.1067
   3 O1        4.2018    -8.9113    -2.2678  O.2     1  <O>11      -0.1383
   4 O2        4.9323   -11.2385    -3.4543  O.2     1  <O>11      -0.1383
   5 N2        2.8490    -9.8140    -4.4290  N.pl3   1  <O>11      -0.2067
   6 C1        3.5389    -9.0744    -5.4542  C.ar    1  <O>11       0.0508
   7 C2        3.5388    -7.6782    -5.4079  C.ar    1  <O>11      -0.0392
   8 C3        4.1948    -6.9526    -6.4071  C.ar    1  <O>11      -0.0582
   9 C4        4.8520    -7.6195    -7.4449  C.ar    1  <O>11      -0.0392
  10 C5        4.8498    -9.0186    -7.4740  C.ar    1  <O>11       0.0498
  11 N3        5.5300    -9.7013    -8.5454  N.pl3   1  <O>11      -0.2160
  12 S2        5.5401   -11.3520    -8.5974  S.O2    1  <O>11       0.0780
  13 O3        3.9807   -11.9128    -8.6934  O.2     1  <O>11      -0.1498
  14 O4        6.2598   -11.9453    -7.2239  O.2     1  <O>11      -0.1498
  15 C6        6.4499   -11.8905   -10.0186  C.ar    1  <O>11       0.1843
  16 C7        6.1220   -13.0994   -10.6539  C.ar    1  <O>11       0.1907
  17 F1        5.0858   -13.8598   -10.1763  F       1  <O>11      -0.2002
  18 C8        6.8487   -13.5302   -11.7693  C.ar    1  <O>11       0.1983
  19 F2        6.5232   -14.7156   -12.3786  F       1  <O>11      -0.1993
  20 C9        7.9043   -12.7572   -12.2626  C.ar    1  <O>11       0.1992
  21 F3        8.6228   -13.1770   -13.3545  F       1  <O>11      -0.1993
  22 C10       8.2261   -11.5514   -11.6342  C.ar    1  <O>11       0.1983
  23 F4        9.2612   -10.7955   -12.1218  F       1  <O>11      -0.1993
  24 C11       7.5065   -11.1115   -10.5217  C.ar    1  <O>11       0.1907
  25 F5        7.8175    -9.9239    -9.9089  F       1  <O>11      -0.2002
  26 C12       4.1987    -9.7517    -6.4818  C.ar    1  <O>11      -0.0169
  27 H1        2.2749   -11.9241    -2.5490  H       1  <O>11       0.1456
  28 H2        1.8263   -10.4950    -1.8204  H       1  <O>11       0.1456
  29 H3        1.8664   -10.0602    -4.5519  H       1  <O>11       0.1747
  30 H4        6.0064    -9.1639    -9.2702  H       1  <O>11       0.1737
  31 H5        3.0569    -7.1848    -4.6403  H       1  <O>11       0.0636
  32 H6        4.1938    -5.9210    -6.3782  H       1  <O>11       0.0619
  33 H7        5.3350    -7.0845    -8.1836  H       1  <O>11       0.0636
  34 H8        4.2044   -10.7834    -6.5069  H       1  <O>11       0.0655
@<TRIPOS>BOND
     1     1     2    1
     2     2     3    2
     3     2     4    2
     4     2     5    1
     5     5     6    1
     6     6     7   ar
     7     7     8   ar
     8     8     9   ar
     9     9    10   ar
    10    10    11    1
    11    11    12    1
    12    12    13    2
    13    12    14    2
    14    12    15    1
    15    15    16   ar
    16    16    17    1
    17    16    18   ar
    18    18    19    1
    19    18    20   ar
    20    20    21    1
    21    20    22   ar
    22    22    23    1
    23    22    24   ar
    24    15    24   ar
    25    24    25    1
    26    10    26   ar
    27     6    26   ar
    28     1    27    1
    29     1    28    1
    30     5    29    1
    31    11    30    1
    32     7    31    1
    33     8    32    1
    34     9    33    1
    35    26    34    1
@<TRIPOS>MOLECULE
mol91_4_7
 34 35 0 0 0
SMALL
USER_CHARGES
****
VDW energy = -422.63
@<TRIPOS>ATOM
   1 N1        2.6154   -11.0930    -2.0656  N.3     1  <O>11      -0.1906
   2 S1        3.6472   -10.2648    -3.0548  S.O2    1  <O>11       0.1067
   3 O1        4.2018    -8.9113    -2.2678  O.2     1  <O>11      -0.1383
   4 O2        4.9323   -11.2385    -3.4543  O.2     1  <O>11      -0.1383
   5 N2        2.8490    -9.8140    -4.4290  N.pl3   1  <O>11      -0.2067
   6 C1        3.5389    -9.0744    -5.4542  C.ar    1  <O>11       0.0508
   7 C2        4.5828    -9.6853    -6.1533  C.ar    1  <O>11      -0.0392
   8 C3        5.2666    -8.9693    -7.1408  C.ar    1  <O>11      -0.0582
   9 C4        4.9054    -7.6507    -7.4315  C.ar    1  <O>11      -0.0392
  10 C5        3.8529    -7.0545    -6.7280  C.ar    1  <O>11       0.0498
  11 N3        3.4836    -5.6952    -7.0325  N.pl3   1  <O>11      -0.2160
  12 S2        2.2436    -4.9736    -6.2144  S.O2    1  <O>11       0.0780
  13 O3        2.5965    -4.9375    -4.5928  O.2     1  <O>11      -0.1498
  14 O4        0.8442    -5.8330    -6.4588  O.2     1  <O>11      -0.1498
  15 C6        2.0301    -3.3190    -6.8093  C.ar    1  <O>11       0.1843
  16 C7        1.7238    -3.0853    -8.1599  C.ar    1  <O>11       0.1907
  17 F1        1.5797    -4.1449    -9.0180  F       1  <O>11      -0.2002
  18 C8        1.5672    -1.7774    -8.6319  C.ar    1  <O>11       0.1983
  19 F2        1.2736    -1.5607    -9.9544  F       1  <O>11      -0.1993
  20 C9        1.7099    -0.6932    -7.7605  C.ar    1  <O>11       0.1992
  21 F3        1.5608     0.5922    -8.2192  F       1  <O>11      -0.1993
  22 C10       2.0083    -0.9263    -6.4155  C.ar    1  <O>11       0.1983
  23 F4        2.1462     0.1396    -5.5639  F       1  <O>11      -0.1993
  24 C11       2.1651    -2.2272    -5.9338  C.ar    1  <O>11       0.1907
  25 F5        2.4508    -2.4568    -4.6116  F       1  <O>11      -0.2002
  26 C12       3.1641    -7.7603    -5.7413  C.ar    1  <O>11      -0.0169
  27 H1        2.2749   -11.9241    -2.5490  H       1  <O>11       0.1456
  28 H2        1.8263   -10.4950    -1.8204  H       1  <O>11       0.1456
  29 H3        1.8664   -10.0602    -4.5519  H       1  <O>11       0.1747
  30 H4        3.9878    -5.1802    -7.7548  H       1  <O>11       0.1737
  31 H5        4.8480   -10.6599    -5.9420  H       1  <O>11       0.0636
  32 H6        6.0406    -9.4162    -7.6568  H       1  <O>11       0.0619
  33 H7        5.4108    -7.1212    -8.1590  H       1  <O>11       0.0636
  34 H8        2.3861    -7.3160    -5.2291  H       1  <O>11       0.0655
@<TRIPOS>BOND
     1     1     2    1
     2     2     3    2
     3     2     4    2
     4     2     5    1
     5     5     6    1
     6     6     7   ar
     7     7     8   ar
     8     8     9   ar
     9     9    10   ar
    10    10    11    1
    11    11    12    1
    12    12    13    2
    13    12    14    2
    14    12    15    1
    15    15    16   ar
    16    16    17    1
    17    16    18   ar
    18    18    19    1
    19    18    20   ar
    20    20    21    1
    21    20    22   ar
    22    22    23    1
    23    22    24   ar
    24    15    24   ar
    25    24    25    1
    26    10    26   ar
    27     6    26   ar
    28     1    27    1
    29     1    28    1
    30     5    29    1
    31    11    30    1
    32     7    31    1
    33     8    32    1
    34     9    33    1
    35    26    34    1
@<TRIPOS>MOLECULE
mol91_4_8
 34 35 0 0 0
SMALL
USER_CHARGES
****
VDW energy = -422.55
@<TRIPOS>ATOM
   1 N1        2.6154   -11.0930    -2.0656  N.3     1  <O>11      -0.1906
   2 S1        3.6472   -10.2648    -3.0548  S.O2    1  <O>11       0.1067
   3 O1        4.2018    -8.9113    -2.2678  O.2     1  <O>11      -0.1383
   4 O2        4.9323   -11.2385    -3.4543  O.2     1  <O>11      -0.1383
   5 N2        2.8490    -9.8140    -4.4290  N.pl3   1  <O>11      -0.2067
   6 C1        3.5389    -9.0744    -5.4542  C.ar    1  <O>11       0.0508
   7 C2        2.8490    -8.7014    -6.6103  C.ar    1  <O>11      -0.0392
   8 C3        3.5154    -7.9949    -7.6163  C.ar    1  <O>11      -0.0582
   9 C4        4.8637    -7.6587    -7.4653  C.ar    1  <O>11      -0.0392
  10 C5        5.5397    -8.0328    -6.2986  C.ar    1  <O>11       0.0498
  11 N3        6.9294    -7.6825    -6.1474  N.pl3   1  <O>11      -0.2160
  12 S2        8.0622    -8.3489    -7.1476  S.O2    1  <O>11       0.0780
  13 O3        7.7180    -7.9459    -8.7206  O.2     1  <O>11      -0.1498
  14 O4        8.0452   -10.0007    -6.9814  O.2     1  <O>11      -0.1498
  15 C6        9.6649    -7.7300    -6.7165  C.ar    1  <O>11       0.1843
  16 C7       10.1845    -7.9435    -5.4294  C.ar    1  <O>11       0.1907
  17 F1        9.4505    -8.6435    -4.5068  F       1  <O>11      -0.2002
  18 C8       11.4455    -7.4440    -5.0856  C.ar    1  <O>11       0.1983
  19 F2       11.9409    -7.6538    -3.8235  F       1  <O>11      -0.1993
  20 C9       12.1998    -6.7322    -6.0235  C.ar    1  <O>11       0.1992
  21 F3       13.4361    -6.2369    -5.6902  F       1  <O>11      -0.1993
  22 C10      11.6853    -6.5255    -7.3060  C.ar    1  <O>11       0.1983
  23 F4       12.4286    -5.8280    -8.2233  F       1  <O>11      -0.1993
  24 C11      10.4290    -7.0209    -7.6599  C.ar    1  <O>11       0.1907
  25 F5        9.9265    -6.8245    -8.9214  F       1  <O>11      -0.2002
  26 C12       4.8839    -8.7373    -5.2889  C.ar    1  <O>11      -0.0169
  27 H1        2.2749   -11.9241    -2.5490  H       1  <O>11       0.1456
  28 H2        1.8263   -10.4950    -1.8204  H       1  <O>11       0.1456
  29 H3        1.8664   -10.0602    -4.5519  H       1  <O>11       0.1747
  30 H4        7.2124    -7.0242    -5.4210  H       1  <O>11       0.1737
  31 H5        1.8526    -8.9460    -6.7212  H       1  <O>11       0.0636
  32 H6        3.0099    -7.7208    -8.4733  H       1  <O>11       0.0619
  33 H7        5.3565    -7.1389    -8.2082  H       1  <O>11       0.0636
  34 H8        5.3872    -9.0065    -4.4291  H       1  <O>11       0.0655
@<TRIPOS>BOND
     1     1     2    1
     2     2     3    2
     3     2     4    2
     4     2     5    1
     5     5     6    1
     6     6     7   ar
     7     7     8   ar
     8     8     9   ar
     9     9    10   ar
    10    10    11    1
    11    11    12    1
    12    12    13    2
    13    12    14    2
    14    12    15    1
    15    15    16   ar
    16    16    17    1
    17    16    18   ar
    18    18    19    1
    19    18    20   ar
    20    20    21    1
    21    20    22   ar
    22    22    23    1
    23    22    24   ar
    24    15    24   ar
    25    24    25    1
    26    10    26   ar
    27     6    26   ar
    28     1    27    1
    29     1    28    1
    30     5    29    1
    31    11    30    1
    32     7    31    1
    33     8    32    1
    34     9    33    1
    35    26    34    1
@<TRIPOS>MOLECULE
mol91_4_9
 34 35 0 0 0
SMALL
USER_CHARGES
****
VDW energy = -422.34
@<TRIPOS>ATOM
   1 N1        2.6154   -11.0930    -2.0656  N.3     1  <O>11      -0.1906
   2 S1        3.6472   -10.2648    -3.0548  S.O2    1  <O>11       0.1067
   3 O1        4.2018    -8.9113    -2.2678  O.2     1  <O>11      -0.1383
   4 O2        4.9323   -11.2385    -3.4543  O.2     1  <O>11      -0.1383
   5 N2        2.8490    -9.8140    -4.4290  N.pl3   1  <O>11      -0.2067
   6 C1        3.5389    -9.0744    -5.4542  C.ar    1  <O>11       0.0508
   7 C2        3.5388    -7.6782    -5.4079  C.ar    1  <O>11      -0.0392
   8 C3        4.1948    -6.9526    -6.4071  C.ar    1  <O>11      -0.0582
   9 C4        4.8520    -7.6195    -7.4449  C.ar    1  <O>11      -0.0392
  10 C5        4.8498    -9.0186    -7.4740  C.ar    1  <O>11       0.0498
  11 N3        5.5300    -9.7013    -8.5454  N.pl3   1  <O>11      -0.2160
  12 S2        5.5401   -11.3520    -8.5974  S.O2    1  <O>11       0.0780
  13 O3        3.9807   -11.9128    -8.6934  O.2     1  <O>11      -0.1498
  14 O4        6.2598   -11.9453    -7.2239  O.2     1  <O>11      -0.1498
  15 C6        6.4499   -11.8905   -10.0186  C.ar    1  <O>11       0.1843
  16 C7        7.8016   -11.5403   -10.1694  C.ar    1  <O>11       0.1907
  17 F1        8.4208   -10.7867    -9.2059  F       1  <O>11      -0.2002
  18 C8        8.5165   -11.9559   -11.2982  C.ar    1  <O>11       0.1983
  19 F2        9.8350   -11.6033   -11.4379  F       1  <O>11      -0.1993
  20 C9        7.8909   -12.7273   -12.2825  C.ar    1  <O>11       0.1992
  21 F3        8.5867   -13.1346   -13.3937  F       1  <O>11      -0.1993
  22 C10       6.5478   -13.0809   -12.1290  C.ar    1  <O>11       0.1983
  23 F4        5.9383   -13.8386   -13.0959  F       1  <O>11      -0.1993
  24 C11       5.8258   -12.6730   -11.0060  C.ar    1  <O>11       0.1907
  25 F5        4.5090   -13.0262   -10.8513  F       1  <O>11      -0.2002
  26 C12       4.1987    -9.7517    -6.4818  C.ar    1  <O>11      -0.0169
  27 H1        2.2749   -11.9241    -2.5490  H       1  <O>11       0.1456
  28 H2        1.8263   -10.4950    -1.8204  H       1  <O>11       0.1456
  29 H3        1.8664   -10.0602    -4.5519  H       1  <O>11       0.1747
  30 H4        6.0064    -9.1639    -9.2702  H       1  <O>11       0.1737
  31 H5        3.0569    -7.1848    -4.6403  H       1  <O>11       0.0636
  32 H6        4.1938    -5.9210    -6.3782  H       1  <O>11       0.0619
  33 H7        5.3350    -7.0845    -8.1836  H       1  <O>11       0.0636
  34 H8        4.2044   -10.7834    -6.5069  H       1  <O>11       0.0655
@<TRIPOS>BOND
     1     1     2    1
     2     2     3    2
     3     2     4    2
     4     2     5    1
     5     5     6    1
     6     6     7   ar
     7     7     8   ar
     8     8     9   ar
     9     9    10   ar
    10    10    11    1
    11    11    12    1
    12    12    13    2
    13    12    14    2
    14    12    15    1
    15    15    16   ar
    16    16    17    1
    17    16    18   ar
    18    18    19    1
    19    18    20   ar
    20    20    21    1
    21    20    22   ar
    22    22    23    1
    23    22    24   ar
    24    15    24   ar
    25    24    25    1
    26    10    26   ar
    27     6    26   ar
    28     1    27    1
    29     1    28    1
    30     5    29    1
    31    11    30    1
    32     7    31    1
    33     8    32    1
    34     9    33    1
    35    26    34    1
@<TRIPOS>MOLECULE
mol91_4_10
 34 35 0 0 0
SMALL
USER_CHARGES
****
VDW energy = -422.23
@<TRIPOS>ATOM
   1 N1        2.6154   -11.0930    -2.0656  N.3     1  <O>11      -0.1906
   2 S1        3.6472   -10.2648    -3.0548  S.O2    1  <O>11       0.1067
   3 O1        4.2018    -8.9113    -2.2678  O.2     1  <O>11      -0.1383
   4 O2        4.9323   -11.2385    -3.4543  O.2     1  <O>11      -0.1383
   5 N2        2.8490    -9.8140    -4.4290  N.pl3   1  <O>11      -0.2067
   6 C1        3.5389    -9.0744    -5.4542  C.ar    1  <O>11       0.0508
   7 C2        4.1944    -9.7681    -6.4744  C.ar    1  <O>11      -0.0392
   8 C3        4.8780    -9.0576    -7.4659  C.ar    1  <O>11      -0.0582
   9 C4        4.9021    -7.6602    -7.4406  C.ar    1  <O>11      -0.0392
  10 C5        4.2347    -6.9790    -6.4165  C.ar    1  <O>11       0.0498
  11 N3        4.2616    -5.5382    -6.3958  N.pl3   1  <O>11      -0.2160
  12 S2        3.4793    -4.7153    -5.1964  S.O2    1  <O>11       0.0780
  13 O3        4.1125    -5.1474    -3.7241  O.2     1  <O>11      -0.1498
  14 O4        1.8613    -5.0851    -5.2349  O.2     1  <O>11      -0.1498
  15 C6        3.6916    -2.9740    -5.4424  C.ar    1  <O>11       0.1843
  16 C7        3.2354    -2.3641    -6.6224  C.ar    1  <O>11       0.1907
  17 F1        2.6140    -3.1201    -7.5827  F       1  <O>11      -0.2002
  18 C8        3.4141    -0.9907    -6.8215  C.ar    1  <O>11       0.1983
  19 F2        2.9695    -0.4064    -7.9805  F       1  <O>11      -0.1993
  20 C9        4.0444    -0.2143    -5.8441  C.ar    1  <O>11       0.1992
  21 F3        4.2253     1.1330    -6.0359  F       1  <O>11      -0.1993
  22 C10       4.4923    -0.8203    -4.6674  C.ar    1  <O>11       0.1983
  23 F4        5.1087    -0.0552    -3.7108  F       1  <O>11      -0.1993
  24 C11       4.3177    -2.1895    -4.4580  C.ar    1  <O>11       0.1907
  25 F5        4.7508    -2.7835    -3.2996  F       1  <O>11      -0.2002
  26 C12       3.5496    -7.6784    -5.4229  C.ar    1  <O>11      -0.0169
  27 H1        2.2749   -11.9241    -2.5490  H       1  <O>11       0.1456
  28 H2        1.8263   -10.4950    -1.8204  H       1  <O>11       0.1456
  29 H3        1.8664   -10.0602    -4.5519  H       1  <O>11       0.1747
  30 H4        4.7626    -5.0278    -7.1234  H       1  <O>11       0.1737
  31 H5        4.1743   -10.7996    -6.4961  H       1  <O>11       0.0636
  32 H6        5.3664    -9.5667    -8.2191  H       1  <O>11       0.0619
  33 H7        5.4079    -7.1353    -8.1711  H       1  <O>11       0.0636
  34 H8        3.0559    -7.1697    -4.6728  H       1  <O>11       0.0655
@<TRIPOS>BOND
     1     1     2    1
     2     2     3    2
     3     2     4    2
     4     2     5    1
     5     5     6    1
     6     6     7   ar
     7     7     8   ar
     8     8     9   ar
     9     9    10   ar
    10    10    11    1
    11    11    12    1
    12    12    13    2
    13    12    14    2
    14    12    15    1
    15    15    16   ar
    16    16    17    1
    17    16    18   ar
    18    18    19    1
    19    18    20   ar
    20    20    21    1
    21    20    22   ar
    22    22    23    1
    23    22    24   ar
    24    15    24   ar
    25    24    25    1
    26    10    26   ar
    27     6    26   ar
    28     1    27    1
    29     1    28    1
    30     5    29    1
    31    11    30    1
    32     7    31    1
    33     8    32    1
    34     9    33    1
    35    26    34    1
@<TRIPOS>MOLECULE
mol91_4_11
 34 35 0 0 0
SMALL
USER_CHARGES
****
VDW energy = -421.49
@<TRIPOS>ATOM
   1 N1        2.6154   -11.0930    -2.0656  N.3     1  <O>11      -0.1906
   2 S1        3.6472   -10.2648    -3.0548  S.O2    1  <O>11       0.1067
   3 O1        4.2018    -8.9113    -2.2678  O.2     1  <O>11      -0.1383
   4 O2        4.9323   -11.2385    -3.4543  O.2     1  <O>11      -0.1383
   5 N2        2.8490    -9.8140    -4.4290  N.pl3   1  <O>11      -0.2067
   6 C1        2.2717   -10.8146    -5.2891  C.ar    1  <O>11       0.0508
   7 C2        1.5998   -10.4160    -6.4471  C.ar    1  <O>11      -0.0392
   8 C3        1.0248   -11.3806    -7.2803  C.ar    1  <O>11      -0.0582
   9 C4        1.1253   -12.7375    -6.9600  C.ar    1  <O>11      -0.0392
  10 C5        1.8078   -13.1220    -5.8004  C.ar    1  <O>11       0.0498
  11 N3        1.9096   -14.5223    -5.4754  N.pl3   1  <O>11      -0.2160
  12 S2        0.5522   -15.3817    -5.0925  S.O2    1  <O>11       0.0780
  13 O3       -0.5058   -15.3447    -6.3710  O.2     1  <O>11      -0.1498
  14 O4       -0.1690   -14.7117    -3.7556  O.2     1  <O>11      -0.1498
  15 C6        0.9974   -17.0600    -4.7428  C.ar    1  <O>11       0.1843
  16 C7        1.8883   -17.3539    -3.6976  C.ar    1  <O>11       0.1907
  17 F1        2.4067   -16.3363    -2.9390  F       1  <O>11      -0.2002
  18 C8        2.2490   -18.6790    -3.4294  C.ar    1  <O>11       0.1983
  19 F2        3.1245   -18.9541    -2.4095  F       1  <O>11      -0.1993
  20 C9        1.7209   -19.7212    -4.1978  C.ar    1  <O>11       0.1992
  21 F3        2.0743   -21.0227    -3.9412  F       1  <O>11      -0.1993
  22 C10       0.8296   -19.4289    -5.2334  C.ar    1  <O>11       0.1983
  23 F4        0.3129   -20.4538    -5.9838  F       1  <O>11      -0.1993
  24 C11       0.4618   -18.1105    -5.5084  C.ar    1  <O>11       0.1907
  25 F5       -0.4190   -17.8237    -6.5205  F       1  <O>11      -0.2002
  26 C12       2.3852   -12.1676    -4.9628  C.ar    1  <O>11      -0.0169
  27 H1        2.2749   -11.9241    -2.5490  H       1  <O>11       0.1456
  28 H2        1.8263   -10.4950    -1.8204  H       1  <O>11       0.1456
  29 H3        2.7643    -8.8257    -4.6685  H       1  <O>11       0.1747
  30 H4        2.8210   -14.9812    -5.4805  H       1  <O>11       0.1737
  31 H5        1.5281    -9.4147    -6.6865  H       1  <O>11       0.0636
  32 H6        0.5246   -11.0897    -8.1348  H       1  <O>11       0.0619
  33 H7        0.6997   -13.4498    -7.5736  H       1  <O>11       0.0636
  34 H8        2.8908   -12.4582    -4.1114  H       1  <O>11       0.0655
@<TRIPOS>BOND
     1     1     2    1
     2     2     3    2
     3     2     4    2
     4     2     5    1
     5     5     6    1
     6     6     7   ar
     7     7     8   ar
     8     8     9   ar
     9     9    10   ar
    10    10    11    1
    11    11    12    1
    12    12    13    2
    13    12    14    2
    14    12    15    1
    15    15    16   ar
    16    16    17    1
    17    16    18   ar
    18    18    19    1
    19    18    20   ar
    20    20    21    1
    21    20    22   ar
    22    22    23    1
    23    22    24   ar
    24    15    24   ar
    25    24    25    1
    26    10    26   ar
    27     6    26   ar
    28     1    27    1
    29     1    28    1
    30     5    29    1
    31    11    30    1
    32     7    31    1
    33     8    32    1
    34     9    33    1
    35    26    34    1
@<TRIPOS>MOLECULE
mol91_4_12
 34 35 0 0 0
SMALL
USER_CHARGES
****
VDW energy = -421.08
@<TRIPOS>ATOM
   1 N1        2.6154   -11.0930    -2.0656  N.3     1  <O>11      -0.1906
   2 S1        3.6472   -10.2648    -3.0548  S.O2    1  <O>11       0.1067
   3 O1        4.2018    -8.9113    -2.2678  O.2     1  <O>11      -0.1383
   4 O2        4.9323   -11.2385    -3.4543  O.2     1  <O>11      -0.1383
   5 N2        2.8490    -9.8140    -4.4290  N.pl3   1  <O>11      -0.2067
   6 C1        1.6910    -8.9620    -4.3440  C.ar    1  <O>11       0.0508
   7 C2        0.5350    -9.4391    -3.7214  C.ar    1  <O>11      -0.0392
   8 C3       -0.5979    -8.6229    -3.6468  C.ar    1  <O>11      -0.0582
   9 C4       -0.5739    -7.3343    -4.1877  C.ar    1  <O>11      -0.0392
  10 C5        0.5936    -6.8675    -4.8019  C.ar    1  <O>11       0.0498
  11 N3        0.6135    -5.5376    -5.3568  N.pl3   1  <O>11      -0.2160
  12 S2        1.9819    -4.9674    -6.0848  S.O2    1  <O>11       0.0780
  13 O3        3.2311    -4.9647    -4.9917  O.2     1  <O>11      -0.1498
  14 O4        1.7170    -3.4213    -6.6287  O.2     1  <O>11      -0.1498
  15 C6        2.3980    -6.0105    -7.4546  C.ar    1  <O>11       0.1843
  16 C7        3.7384    -6.1703    -7.8422  C.ar    1  <O>11       0.1907
  17 F1        4.7289    -5.5231    -7.1494  F       1  <O>11      -0.2002
  18 C8        4.0656    -6.9850    -8.9318  C.ar    1  <O>11       0.1983
  19 F2        5.3779    -7.1294    -9.3051  F       1  <O>11      -0.1993
  20 C9        3.0598    -7.6499    -9.6401  C.ar    1  <O>11       0.1992
  21 F3        3.3751    -8.4475   -10.7121  F       1  <O>11      -0.1993
  22 C10       1.7270    -7.4957    -9.2501  C.ar    1  <O>11       0.1983
  23 F4        0.7437    -8.1505    -9.9465  F       1  <O>11      -0.1993
  24 C11       1.3897    -6.6867    -8.1635  C.ar    1  <O>11       0.1907
  25 F5        0.0817    -6.5409    -7.7758  F       1  <O>11      -0.2002
  26 C12       1.7293    -7.6736    -4.8811  C.ar    1  <O>11      -0.0169
  27 H1        2.2749   -11.9241    -2.5490  H       1  <O>11       0.1456
  28 H2        1.8263   -10.4950    -1.8204  H       1  <O>11       0.1456
  29 H3        3.1770   -10.1390    -5.3390  H       1  <O>11       0.1747
  30 H4       -0.2177    -4.9488    -5.2977  H       1  <O>11       0.1737
  31 H5        0.5173   -10.3890    -3.3186  H       1  <O>11       0.0636
  32 H6       -1.4549    -8.9733    -3.1908  H       1  <O>11       0.0619
  33 H7       -1.4103    -6.7321    -4.1345  H       1  <O>11       0.0636
  34 H8        2.5885    -7.3216    -5.3317  H       1  <O>11       0.0655
@<TRIPOS>BOND
     1     1     2    1
     2     2     3    2
     3     2     4    2
     4     2     5    1
     5     5     6    1
     6     6     7   ar
     7     7     8   ar
     8     8     9   ar
     9     9    10   ar
    10    10    11    1
    11    11    12    1
    12    12    13    2
    13    12    14    2
    14    12    15    1
    15    15    16   ar
    16    16    17    1
    17    16    18   ar
    18    18    19    1
    19    18    20   ar
    20    20    21    1
    21    20    22   ar
    22    22    23    1
    23    22    24   ar
    24    15    24   ar
    25    24    25    1
    26    10    26   ar
    27     6    26   ar
    28     1    27    1
    29     1    28    1
    30     5    29    1
    31    11    30    1
    32     7    31    1
    33     8    32    1
    34     9    33    1
    35    26    34    1
@<TRIPOS>MOLECULE
mol91_4_13
 34 35 0 0 0
SMALL
USER_CHARGES
****
VDW energy = -420.85
@<TRIPOS>ATOM
   1 N1        2.6154   -11.0930    -2.0656  N.3     1  <O>11      -0.1906
   2 S1        3.6472   -10.2648    -3.0548  S.O2    1  <O>11       0.1067
   3 O1        4.2018    -8.9113    -2.2678  O.2     1  <O>11      -0.1383
   4 O2        4.9323   -11.2385    -3.4543  O.2     1  <O>11      -0.1383
   5 N2        2.8490    -9.8140    -4.4290  N.pl3   1  <O>11      -0.2067
   6 C1        3.5389    -9.0744    -5.4542  C.ar    1  <O>11       0.0508
   7 C2        3.5388    -7.6782    -5.4079  C.ar    1  <O>11      -0.0392
   8 C3        4.1948    -6.9526    -6.4071  C.ar    1  <O>11      -0.0582
   9 C4        4.8520    -7.6195    -7.4449  C.ar    1  <O>11      -0.0392
  10 C5        4.8498    -9.0186    -7.4740  C.ar    1  <O>11       0.0498
  11 N3        5.5300    -9.7013    -8.5454  N.pl3   1  <O>11      -0.2160
  12 S2        5.5401   -11.3520    -8.5974  S.O2    1  <O>11       0.0780
  13 O3        6.2587   -11.9452    -7.2236  O.2     1  <O>11      -0.1498
  14 O4        6.3890   -11.8593    -9.9311  O.2     1  <O>11      -0.1498
  15 C6        3.8751   -11.9479    -8.6973  C.ar    1  <O>11       0.1843
  16 C7        3.0548   -11.5817    -9.7769  C.ar    1  <O>11       0.1907
  17 F1        3.5504   -10.7675   -10.7624  F       1  <O>11      -0.2002
  18 C8        1.7358   -12.0430    -9.8491  C.ar    1  <O>11       0.1983
  19 F2        0.9416   -11.6744   -10.9055  F       1  <O>11      -0.1993
  20 C9        1.2260   -12.8761    -8.8484  C.ar    1  <O>11       0.1992
  21 F3       -0.0685   -13.3286    -8.9127  F       1  <O>11      -0.1993
  22 C10       2.0444   -13.2454    -7.7778  C.ar    1  <O>11       0.1983
  23 F4        1.5412   -14.0637    -6.7992  F       1  <O>11      -0.1993
  24 C11       3.3624   -12.7922    -7.6969  C.ar    1  <O>11       0.1907
  25 F5        4.1686   -13.1605    -6.6495  F       1  <O>11      -0.2002
  26 C12       4.1987    -9.7517    -6.4818  C.ar    1  <O>11      -0.0169
  27 H1        2.2749   -11.9241    -2.5490  H       1  <O>11       0.1456
  28 H2        1.8263   -10.4950    -1.8204  H       1  <O>11       0.1456
  29 H3        1.8664   -10.0602    -4.5519  H       1  <O>11       0.1747
  30 H4        6.0064    -9.1639    -9.2702  H       1  <O>11       0.1737
  31 H5        3.0569    -7.1848    -4.6403  H       1  <O>11       0.0636
  32 H6        4.1938    -5.9210    -6.3782  H       1  <O>11       0.0619
  33 H7        5.3350    -7.0845    -8.1836  H       1  <O>11       0.0636
  34 H8        4.2044   -10.7834    -6.5069  H       1  <O>11       0.0655
@<TRIPOS>BOND
     1     1     2    1
     2     2     3    2
     3     2     4    2
     4     2     5    1
     5     5     6    1
     6     6     7   ar
     7     7     8   ar
     8     8     9   ar
     9     9    10   ar
    10    10    11    1
    11    11    12    1
    12    12    13    2
    13    12    14    2
    14    12    15    1
    15    15    16   ar
    16    16    17    1
    17    16    18   ar
    18    18    19    1
    19    18    20   ar
    20    20    21    1
    21    20    22   ar
    22    22    23    1
    23    22    24   ar
    24    15    24   ar
    25    24    25    1
    26    10    26   ar
    27     6    26   ar
    28     1    27    1
    29     1    28    1
    30     5    29    1
    31    11    30    1
    32     7    31    1
    33     8    32    1
    34     9    33    1
    35    26    34    1
@<TRIPOS>MOLECULE
mol91_4_14
 34 35 0 0 0
SMALL
USER_CHARGES
****
VDW energy = -420.73
@<TRIPOS>ATOM
   1 N1        2.6154   -11.0930    -2.0656  N.3     1  <O>11      -0.1906
   2 S1        3.6472   -10.2648    -3.0548  S.O2    1  <O>11       0.1067
   3 O1        4.2018    -8.9113    -2.2678  O.2     1  <O>11      -0.1383
   4 O2        4.9323   -11.2385    -3.4543  O.2     1  <O>11      -0.1383
   5 N2        2.8490    -9.8140    -4.4290  N.pl3   1  <O>11      -0.2067
   6 C1        1.6910    -8.9620    -4.3440  C.ar    1  <O>11       0.0508
   7 C2        1.8563    -7.5759    -4.3971  C.ar    1  <O>11      -0.0392
   8 C3        0.7383    -6.7414    -4.3016  C.ar    1  <O>11      -0.0582
   9 C4       -0.5393    -7.2901    -4.1586  C.ar    1  <O>11      -0.0392
  10 C5       -0.6900    -8.6807    -4.1142  C.ar    1  <O>11       0.0498
  11 N3       -2.0095    -9.2413    -3.9680  N.pl3   1  <O>11      -0.2160
  12 S2       -2.2089   -10.8799    -3.9146  S.O2    1  <O>11       0.0780
  13 O3       -1.6406   -11.5532    -5.3214  O.2     1  <O>11      -0.1498
  14 O4       -3.8210   -11.2365    -3.7403  O.2     1  <O>11      -0.1498
  15 C6       -1.3079   -11.5379    -2.5389  C.ar    1  <O>11       0.1843
  16 C7       -0.7831   -12.8394    -2.5926  C.ar    1  <O>11       0.1907
  17 F1       -0.9612   -13.5989    -3.7201  F       1  <O>11      -0.2002
  18 C8       -0.0817   -13.3631    -1.5009  C.ar    1  <O>11       0.1983
  19 F2        0.4219   -14.6378    -1.5622  F       1  <O>11      -0.1993
  20 C9        0.1057   -12.5919    -0.3497  C.ar    1  <O>11       0.1992
  21 F3        0.7900   -13.1021     0.7256  F       1  <O>11      -0.1993
  22 C10      -0.4111   -11.2946    -0.2991  C.ar    1  <O>11       0.1983
  23 F4       -0.2240   -10.5410     0.8312  F       1  <O>11      -0.1993
  24 C11      -1.1110   -10.7619    -1.3832  C.ar    1  <O>11       0.1907
  25 F5       -1.6122    -9.4855    -1.3367  F       1  <O>11      -0.2002
  26 C12       0.4189    -9.5218    -4.2091  C.ar    1  <O>11      -0.0169
  27 H1        2.2749   -11.9241    -2.5490  H       1  <O>11       0.1456
  28 H2        1.8263   -10.4950    -1.8204  H       1  <O>11       0.1456
  29 H3        3.1770   -10.1390    -5.3390  H       1  <O>11       0.1747
  30 H4       -2.8198    -8.6249    -3.8992  H       1  <O>11       0.1737
  31 H5        2.7987    -7.1698    -4.5063  H       1  <O>11       0.0636
  32 H6        0.8569    -5.7169    -4.3369  H       1  <O>11       0.0619
  33 H7       -1.3646    -6.6748    -4.0863  H       1  <O>11       0.0636
  34 H8        0.3003   -10.5465    -4.1800  H       1  <O>11       0.0655
@<TRIPOS>BOND
     1     1     2    1
     2     2     3    2
     3     2     4    2
     4     2     5    1
     5     5     6    1
     6     6     7   ar
     7     7     8   ar
     8     8     9   ar
     9     9    10   ar
    10    10    11    1
    11    11    12    1
    12    12    13    2
    13    12    14    2
    14    12    15    1
    15    15    16   ar
    16    16    17    1
    17    16    18   ar
    18    18    19    1
    19    18    20   ar
    20    20    21    1
    21    20    22   ar
    22    22    23    1
    23    22    24   ar
    24    15    24   ar
    25    24    25    1
    26    10    26   ar
    27     6    26   ar
    28     1    27    1
    29     1    28    1
    30     5    29    1
    31    11    30    1
    32     7    31    1
    33     8    32    1
    34     9    33    1
    35    26    34    1
@<TRIPOS>MOLECULE
mol91_4_15
 34 35 0 0 0
SMALL
USER_CHARGES
****
VDW energy = -420.68
@<TRIPOS>ATOM
   1 N1        2.6154   -11.0930    -2.0656  N.3     1  <O>11      -0.1906
   2 S1        3.6472   -10.2648    -3.0548  S.O2    1  <O>11       0.1067
   3 O1        4.2018    -8.9113    -2.2678  O.2     1  <O>11      -0.1383
   4 O2        4.9323   -11.2385    -3.4543  O.2     1  <O>11      -0.1383
   5 N2        2.8490    -9.8140    -4.4290  N.pl3   1  <O>11      -0.2067
   6 C1        3.5389    -9.0744    -5.4542  C.ar    1  <O>11       0.0508
   7 C2        3.9847    -7.7791    -5.1806  C.ar    1  <O>11      -0.0392
   8 C3        4.6434    -7.0494    -6.1750  C.ar    1  <O>11      -0.0582
   9 C4        4.8597    -7.6136    -7.4354  C.ar    1  <O>11      -0.0392
  10 C5        4.4139    -8.9149    -7.6925  C.ar    1  <O>11       0.0498
  11 N3        4.6406    -9.4924    -8.9933  N.pl3   1  <O>11      -0.2160
  12 S2        4.1232   -11.0272    -9.3165  S.O2    1  <O>11       0.0780
  13 O3        4.8553   -12.0900    -8.2725  O.2     1  <O>11      -0.1498
  14 O4        4.5148   -11.4262   -10.8798  O.2     1  <O>11      -0.1498
  15 C6        2.3662   -11.1117    -9.1095  C.ar    1  <O>11       0.1843
  16 C7        1.5213   -10.3010    -9.8849  C.ar    1  <O>11       0.1907
  17 F1        2.0606    -9.4482   -10.8132  F       1  <O>11      -0.2002
  18 C8        0.1339   -10.3595    -9.7125  C.ar    1  <O>11       0.1983
  19 F2       -0.6816    -9.5588   -10.4716  F       1  <O>11      -0.1993
  20 C9       -0.4218   -11.2296    -8.7695  C.ar    1  <O>11       0.1992
  21 F3       -1.7821   -11.2884    -8.5939  F       1  <O>11      -0.1993
  22 C10       0.4188   -12.0408    -8.0028  C.ar    1  <O>11       0.1983
  23 F4       -0.1301   -12.8938    -7.0800  F       1  <O>11      -0.1993
  24 C11       1.8041   -11.9915    -8.1679  C.ar    1  <O>11       0.1907
  25 F5        2.6294   -12.7932    -7.4203  F       1  <O>11      -0.2002
  26 C12       3.7562    -9.6513    -6.7071  C.ar    1  <O>11      -0.0169
  27 H1        2.2749   -11.9241    -2.5490  H       1  <O>11       0.1456
  28 H2        1.8263   -10.4950    -1.8204  H       1  <O>11       0.1456
  29 H3        1.8664   -10.0602    -4.5519  H       1  <O>11       0.1747
  30 H4        5.1223    -8.9529    -9.7129  H       1  <O>11       0.1737
  31 H5        3.8288    -7.3628    -4.2493  H       1  <O>11       0.0636
  32 H6        4.9710    -6.0908    -5.9777  H       1  <O>11       0.0619
  33 H7        5.3443    -7.0749    -8.1704  H       1  <O>11       0.0636
  34 H8        3.4336   -10.6121    -6.9020  H       1  <O>11       0.0655
@<TRIPOS>BOND
     1     1     2    1
     2     2     3    2
     3     2     4    2
     4     2     5    1
     5     5     6    1
     6     6     7   ar
     7     7     8   ar
     8     8     9   ar
     9     9    10   ar
    10    10    11    1
    11    11    12    1
    12    12    13    2
    13    12    14    2
    14    12    15    1
    15    15    16   ar
    16    16    17    1
    17    16    18   ar
    18    18    19    1
    19    18    20   ar
    20    20    21    1
    21    20    22   ar
    22    22    23    1
    23    22    24   ar
    24    15    24   ar
    25    24    25    1
    26    10    26   ar
    27     6    26   ar
    28     1    27    1
    29     1    28    1
    30     5    29    1
    31    11    30    1
    32     7    31    1
    33     8    32    1
    34     9    33    1
    35    26    34    1
@<TRIPOS>MOLECULE
mol91_4_16
 34 35 0 0 0
SMALL
USER_CHARGES
****
VDW energy = -420.32
@<TRIPOS>ATOM
   1 N1        2.6154   -11.0930    -2.0656  N.3     1  <O>11      -0.1906
   2 S1        3.6472   -10.2648    -3.0548  S.O2    1  <O>11       0.1067
   3 O1        4.2018    -8.9113    -2.2678  O.2     1  <O>11      -0.1383
   4 O2        4.9323   -11.2385    -3.4543  O.2     1  <O>11      -0.1383
   5 N2        2.8490    -9.8140    -4.4290  N.pl3   1  <O>11      -0.2067
   6 C1        2.2717   -10.8146    -5.2891  C.ar    1  <O>11       0.0508
   7 C2        1.2094   -11.5904    -4.8188  C.ar    1  <O>11      -0.0392
   8 C3        0.6524   -12.5732    -5.6429  C.ar    1  <O>11      -0.0582
   9 C4        1.1516   -12.7762    -6.9326  C.ar    1  <O>11      -0.0392
  10 C5        2.2114   -11.9864    -7.3924  C.ar    1  <O>11       0.0498
  11 N3        2.7215   -12.1989    -8.7234  N.pl3   1  <O>11      -0.2160
  12 S2        3.9710   -11.2767    -9.2855  S.O2    1  <O>11       0.0780
  13 O3        5.2980   -11.4884    -8.3109  O.2     1  <O>11      -0.1498
  14 O4        3.5263    -9.6771    -9.2777  O.2     1  <O>11      -0.1498
  15 C6        4.3685   -11.7695   -10.9397  C.ar    1  <O>11       0.1843
  16 C7        3.4029   -11.6843   -11.9560  C.ar    1  <O>11       0.1907
  17 F1        2.1505   -11.2074   -11.6664  F       1  <O>11      -0.2002
  18 C8        3.7138   -12.0850   -13.2601  C.ar    1  <O>11       0.1983
  19 F2        2.7610   -12.0027   -14.2439  F       1  <O>11      -0.1993
  20 C9        4.9904   -12.5692   -13.5618  C.ar    1  <O>11       0.1992
  21 F3        5.2995   -12.9671   -14.8389  F       1  <O>11      -0.1993
  22 C10       5.9527   -12.6478   -12.5518  C.ar    1  <O>11       0.1983
  23 F4        7.2040   -13.1220   -12.8520  F       1  <O>11      -0.1993
  24 C11       5.6536   -12.2491   -11.2478  C.ar    1  <O>11       0.1907
  25 F5        6.6005   -12.3193   -10.2573  F       1  <O>11      -0.2002
  26 C12       2.7738   -11.0031    -6.5784  C.ar    1  <O>11      -0.0169
  27 H1        2.2749   -11.9241    -2.5490  H       1  <O>11       0.1456
  28 H2        1.8263   -10.4950    -1.8204  H       1  <O>11       0.1456
  29 H3        2.7643    -8.8257    -4.6685  H       1  <O>11       0.1747
  30 H4        2.3089   -12.9181    -9.3180  H       1  <O>11       0.1737
  31 H5        0.8377   -11.4390    -3.8682  H       1  <O>11       0.0636
  32 H6       -0.1302   -13.1507    -5.2976  H       1  <O>11       0.0619
  33 H7        0.7421   -13.5026    -7.5406  H       1  <O>11       0.0636
  34 H8        3.5524   -10.4212    -6.9252  H       1  <O>11       0.0655
@<TRIPOS>BOND
     1     1     2    1
     2     2     3    2
     3     2     4    2
     4     2     5    1
     5     5     6    1
     6     6     7   ar
     7     7     8   ar
     8     8     9   ar
     9     9    10   ar
    10    10    11    1
    11    11    12    1
    12    12    13    2
    13    12    14    2
    14    12    15    1
    15    15    16   ar
    16    16    17    1
    17    16    18   ar
    18    18    19    1
    19    18    20   ar
    20    20    21    1
    21    20    22   ar
    22    22    23    1
    23    22    24   ar
    24    15    24   ar
    25    24    25    1
    26    10    26   ar
    27     6    26   ar
    28     1    27    1
    29     1    28    1
    30     5    29    1
    31    11    30    1
    32     7    31    1
    33     8    32    1
    34     9    33    1
    35    26    34    1
@<TRIPOS>MOLECULE
mol91_4_17
 34 35 0 0 0
SMALL
USER_CHARGES
****
VDW energy = -420.28
@<TRIPOS>ATOM
   1 N1        2.6154   -11.0930    -2.0656  N.3     1  <O>11      -0.1906
   2 S1        3.6472   -10.2648    -3.0548  S.O2    1  <O>11       0.1067
   3 O1        4.2018    -8.9113    -2.2678  O.2     1  <O>11      -0.1383
   4 O2        4.9323   -11.2385    -3.4543  O.2     1  <O>11      -0.1383
   5 N2        2.8490    -9.8140    -4.4290  N.pl3   1  <O>11      -0.2067
   6 C1        1.6910    -8.9620    -4.3440  C.ar    1  <O>11       0.0508
   7 C2        0.5350    -9.4391    -3.7214  C.ar    1  <O>11      -0.0392
   8 C3       -0.5979    -8.6229    -3.6468  C.ar    1  <O>11      -0.0582
   9 C4       -0.5739    -7.3343    -4.1877  C.ar    1  <O>11      -0.0392
  10 C5        0.5936    -6.8675    -4.8019  C.ar    1  <O>11       0.0498
  11 N3        0.6135    -5.5376    -5.3568  N.pl3   1  <O>11      -0.2160
  12 S2        1.9819    -4.9674    -6.0848  S.O2    1  <O>11       0.0780
  13 O3        2.3727    -5.9421    -7.3704  O.2     1  <O>11      -0.1498
  14 O4        3.2311    -4.9637    -4.9912  O.2     1  <O>11      -0.1498
  15 C6        1.6980    -3.3164    -6.6603  C.ar    1  <O>11       0.1843
  16 C7        1.3494    -2.3005    -5.7554  C.ar    1  <O>11       0.1907
  17 F1        1.2389    -2.5879    -4.4194  F       1  <O>11      -0.2002
  18 C8        1.1135    -0.9991    -6.2122  C.ar    1  <O>11       0.1983
  19 F2        0.7680    -0.0157    -5.3200  F       1  <O>11      -0.1993
  20 C9        1.2278    -0.6997    -7.5732  C.ar    1  <O>11       0.1992
  21 F3        0.9940     0.5748    -8.0271  F       1  <O>11      -0.1993
  22 C10       1.5810    -1.7092    -8.4724  C.ar    1  <O>11       0.1983
  23 F4        1.6934    -1.4112    -9.8062  F       1  <O>11      -0.1993
  24 C11       1.8201    -3.0106    -8.0271  C.ar    1  <O>11       0.1907
  25 F5        2.1740    -4.0005    -8.9087  F       1  <O>11      -0.2002
  26 C12       1.7293    -7.6736    -4.8811  C.ar    1  <O>11      -0.0169
  27 H1        2.2749   -11.9241    -2.5490  H       1  <O>11       0.1456
  28 H2        1.8263   -10.4950    -1.8204  H       1  <O>11       0.1456
  29 H3        3.1770   -10.1390    -5.3390  H       1  <O>11       0.1747
  30 H4       -0.2177    -4.9488    -5.2977  H       1  <O>11       0.1737
  31 H5        0.5173   -10.3890    -3.3186  H       1  <O>11       0.0636
  32 H6       -1.4549    -8.9733    -3.1908  H       1  <O>11       0.0619
  33 H7       -1.4103    -6.7321    -4.1345  H       1  <O>11       0.0636
  34 H8        2.5885    -7.3216    -5.3317  H       1  <O>11       0.0655
@<TRIPOS>BOND
     1     1     2    1
     2     2     3    2
     3     2     4    2
     4     2     5    1
     5     5     6    1
     6     6     7   ar
     7     7     8   ar
     8     8     9   ar
     9     9    10   ar
    10    10    11    1
    11    11    12    1
    12    12    13    2
    13    12    14    2
    14    12    15    1
    15    15    16   ar
    16    16    17    1
    17    16    18   ar
    18    18    19    1
    19    18    20   ar
    20    20    21    1
    21    20    22   ar
    22    22    23    1
    23    22    24   ar
    24    15    24   ar
    25    24    25    1
    26    10    26   ar
    27     6    26   ar
    28     1    27    1
    29     1    28    1
    30     5    29    1
    31    11    30    1
    32     7    31    1
    33     8    32    1
    34     9    33    1
    35    26    34    1
@<TRIPOS>MOLECULE
mol91_4_18
 34 35 0 0 0
SMALL
USER_CHARGES
****
VDW energy = -418.31
@<TRIPOS>ATOM
   1 N1        2.6154   -11.0930    -2.0656  N.3     1  <O>11      -0.1906
   2 S1        3.6472   -10.2648    -3.0548  S.O2    1  <O>11       0.1067
   3 O1        4.2018    -8.9113    -2.2678  O.2     1  <O>11      -0.1383
   4 O2        4.9323   -11.2385    -3.4543  O.2     1  <O>11      -0.1383
   5 N2        2.8490    -9.8140    -4.4290  N.pl3   1  <O>11      -0.2067
   6 C1        3.5389    -9.0744    -5.4542  C.ar    1  <O>11       0.0508
   7 C2        4.1944    -9.7681    -6.4744  C.ar    1  <O>11      -0.0392
   8 C3        4.8780    -9.0576    -7.4659  C.ar    1  <O>11      -0.0582
   9 C4        4.9021    -7.6602    -7.4406  C.ar    1  <O>11      -0.0392
  10 C5        4.2347    -6.9790    -6.4165  C.ar    1  <O>11       0.0498
  11 N3        4.2616    -5.5382    -6.3958  N.pl3   1  <O>11      -0.2160
  12 S2        3.4793    -4.7153    -5.1964  S.O2    1  <O>11       0.0780
  13 O3        4.1125    -5.1474    -3.7241  O.2     1  <O>11      -0.1498
  14 O4        1.8613    -5.0851    -5.2349  O.2     1  <O>11      -0.1498
  15 C6        3.6916    -2.9740    -5.4424  C.ar    1  <O>11       0.1843
  16 C7        3.1158    -2.0565    -4.5485  C.ar    1  <O>11       0.1907
  17 F1        2.3951    -2.5131    -3.4752  F       1  <O>11      -0.2002
  18 C8        3.2737    -0.6809    -4.7500  C.ar    1  <O>11       0.1983
  19 F2        2.7022     0.2064    -3.8735  F       1  <O>11      -0.1993
  20 C9        4.0104    -0.2097    -5.8412  C.ar    1  <O>11       0.1992
  21 F3        4.1654     1.1390    -6.0455  F       1  <O>11      -0.1993
  22 C10       4.5885    -1.1230    -6.7267  C.ar    1  <O>11       0.1983
  23 F4        5.3113    -0.6569    -7.7948  F       1  <O>11      -0.1993
  24 C11       4.4385    -2.4975    -6.5340  C.ar    1  <O>11       0.1907
  25 F5        5.0122    -3.3946    -7.3992  F       1  <O>11      -0.2002
  26 C12       3.5496    -7.6784    -5.4229  C.ar    1  <O>11      -0.0169
  27 H1        2.2749   -11.9241    -2.5490  H       1  <O>11       0.1456
  28 H2        1.8263   -10.4950    -1.8204  H       1  <O>11       0.1456
  29 H3        1.8664   -10.0602    -4.5519  H       1  <O>11       0.1747
  30 H4        4.7626    -5.0278    -7.1234  H       1  <O>11       0.1737
  31 H5        4.1743   -10.7996    -6.4961  H       1  <O>11       0.0636
  32 H6        5.3664    -9.5667    -8.2191  H       1  <O>11       0.0619
  33 H7        5.4079    -7.1353    -8.1711  H       1  <O>11       0.0636
  34 H8        3.0559    -7.1697    -4.6728  H       1  <O>11       0.0655
@<TRIPOS>BOND
     1     1     2    1
     2     2     3    2
     3     2     4    2
     4     2     5    1
     5     5     6    1
     6     6     7   ar
     7     7     8   ar
     8     8     9   ar
     9     9    10   ar
    10    10    11    1
    11    11    12    1
    12    12    13    2
    13    12    14    2
    14    12    15    1
    15    15    16   ar
    16    16    17    1
    17    16    18   ar
    18    18    19    1
    19    18    20   ar
    20    20    21    1
    21    20    22   ar
    22    22    23    1
    23    22    24   ar
    24    15    24   ar
    25    24    25    1
    26    10    26   ar
    27     6    26   ar
    28     1    27    1
    29     1    28    1
    30     5    29    1
    31    11    30    1
    32     7    31    1
    33     8    32    1
    34     9    33    1
    35    26    34    1
@<TRIPOS>MOLECULE
mol91_4_19
 34 35 0 0 0
SMALL
USER_CHARGES
****
VDW energy = -414.84
@<TRIPOS>ATOM
   1 N1        2.6154   -11.0930    -2.0656  N.3     1  <O>11      -0.1906
   2 S1        3.6472   -10.2648    -3.0548  S.O2    1  <O>11       0.1067
   3 O1        4.2018    -8.9113    -2.2678  O.2     1  <O>11      -0.1383
   4 O2        4.9323   -11.2385    -3.4543  O.2     1  <O>11      -0.1383
   5 N2        2.8490    -9.8140    -4.4290  N.pl3   1  <O>11      -0.2067
   6 C1        2.2717   -10.8146    -5.2891  C.ar    1  <O>11       0.0508
   7 C2        1.5998   -10.4160    -6.4471  C.ar    1  <O>11      -0.0392
   8 C3        1.0248   -11.3806    -7.2803  C.ar    1  <O>11      -0.0582
   9 C4        1.1253   -12.7375    -6.9600  C.ar    1  <O>11      -0.0392
  10 C5        1.8078   -13.1220    -5.8004  C.ar    1  <O>11       0.0498
  11 N3        1.9096   -14.5223    -5.4754  N.pl3   1  <O>11      -0.2160
  12 S2        2.7118   -14.9971    -4.1120  S.O2    1  <O>11       0.0780
  13 O3        1.9814   -14.3301    -2.7790  O.2     1  <O>11      -0.1498
  14 O4        4.2903   -14.4888    -4.1926  O.2     1  <O>11      -0.1498
  15 C6        2.6673   -16.7634    -3.9881  C.ar    1  <O>11       0.1843
  16 C7        2.6149   -17.5542    -5.1475  C.ar    1  <O>11       0.1907
  17 F1        2.6085   -16.9545    -6.3804  F       1  <O>11      -0.2002
  18 C8        2.5676   -18.9492    -5.0487  C.ar    1  <O>11       0.1983
  19 F2        2.5109   -19.7117    -6.1879  F       1  <O>11      -0.1993
  20 C9        2.5770   -19.5663    -3.7939  C.ar    1  <O>11       0.1992
  21 F3        2.5272   -20.9344    -3.6913  F       1  <O>11      -0.1993
  22 C10       2.6357   -18.7794    -2.6408  C.ar    1  <O>11       0.1983
  23 F4        2.6461   -19.3885    -1.4122  F       1  <O>11      -0.1993
  24 C11       2.6848   -17.3870    -2.7281  C.ar    1  <O>11       0.1907
  25 F5        2.7499   -16.6142    -1.5962  F       1  <O>11      -0.2002
  26 C12       2.3852   -12.1676    -4.9628  C.ar    1  <O>11      -0.0169
  27 H1        2.2749   -11.9241    -2.5490  H       1  <O>11       0.1456
  28 H2        1.8263   -10.4950    -1.8204  H       1  <O>11       0.1456
  29 H3        2.7643    -8.8257    -4.6685  H       1  <O>11       0.1747
  30 H4        1.4873   -15.2195    -6.0892  H       1  <O>11       0.1737
  31 H5        1.5281    -9.4147    -6.6865  H       1  <O>11       0.0636
  32 H6        0.5246   -11.0897    -8.1348  H       1  <O>11       0.0619
  33 H7        0.6997   -13.4498    -7.5736  H       1  <O>11       0.0636
  34 H8        2.8908   -12.4582    -4.1114  H       1  <O>11       0.0655
@<TRIPOS>BOND
     1     1     2    1
     2     2     3    2
     3     2     4    2
     4     2     5    1
     5     5     6    1
     6     6     7   ar
     7     7     8   ar
     8     8     9   ar
     9     9    10   ar
    10    10    11    1
    11    11    12    1
    12    12    13    2
    13    12    14    2
    14    12    15    1
    15    15    16   ar
    16    16    17    1
    17    16    18   ar
    18    18    19    1
    19    18    20   ar
    20    20    21    1
    21    20    22   ar
    22    22    23    1
    23    22    24   ar
    24    15    24   ar
    25    24    25    1
    26    10    26   ar
    27     6    26   ar
    28     1    27    1
    29     1    28    1
    30     5    29    1
    31    11    30    1
    32     7    31    1
    33     8    32    1
    34     9    33    1
    35    26    34    1
@<TRIPOS>MOLECULE
mol91_4_20
 34 35 0 0 0
SMALL
USER_CHARGES
****
VDW energy = -414.75
@<TRIPOS>ATOM
   1 N1        2.6154   -11.0930    -2.0656  N.3     1  <O>11      -0.1906
   2 S1        3.6472   -10.2648    -3.0548  S.O2    1  <O>11       0.1067
   3 O1        4.2018    -8.9113    -2.2678  O.2     1  <O>11      -0.1383
   4 O2        4.9323   -11.2385    -3.4543  O.2     1  <O>11      -0.1383
   5 N2        2.8490    -9.8140    -4.4290  N.pl3   1  <O>11      -0.2067
   6 C1        2.2717   -10.8146    -5.2891  C.ar    1  <O>11       0.0508
   7 C2        1.5998   -10.4160    -6.4471  C.ar    1  <O>11      -0.0392
   8 C3        1.0248   -11.3806    -7.2803  C.ar    1  <O>11      -0.0582
   9 C4        1.1253   -12.7375    -6.9600  C.ar    1  <O>11      -0.0392
  10 C5        1.8078   -13.1220    -5.8004  C.ar    1  <O>11       0.0498
  11 N3        1.9096   -14.5223    -5.4754  N.pl3   1  <O>11      -0.2160
  12 S2        2.7118   -14.9971    -4.1120  S.O2    1  <O>11       0.0780
  13 O3        1.9814   -14.3301    -2.7790  O.2     1  <O>11      -0.1498
  14 O4        4.2903   -14.4888    -4.1926  O.2     1  <O>11      -0.1498
  15 C6        2.6673   -16.7634    -3.9881  C.ar    1  <O>11       0.1843
  16 C7        2.6842   -17.3863    -2.7294  C.ar    1  <O>11       0.1907
  17 F1        2.7249   -16.6214    -1.5922  F       1  <O>11      -0.2002
  18 C8        2.6611   -18.7819    -2.6323  C.ar    1  <O>11       0.1983
  19 F2        2.6835   -19.3798    -1.3977  F       1  <O>11      -0.1993
  20 C9        2.6164   -19.5669    -3.7887  C.ar    1  <O>11       0.1992
  21 F3        2.5972   -20.9368    -3.6991  F       1  <O>11      -0.1993
  22 C10       2.5931   -18.9468    -5.0406  C.ar    1  <O>11       0.1983
  23 F4        2.5479   -19.7201    -6.1721  F       1  <O>11      -0.1993
  24 C11       2.6142   -17.5551    -5.1487  C.ar    1  <O>11       0.1907
  25 F5        2.5839   -16.9457    -6.3776  F       1  <O>11      -0.2002
  26 C12       2.3852   -12.1676    -4.9628  C.ar    1  <O>11      -0.0169
  27 H1        2.2749   -11.9241    -2.5490  H       1  <O>11       0.1456
  28 H2        1.8263   -10.4950    -1.8204  H       1  <O>11       0.1456
  29 H3        2.7643    -8.8257    -4.6685  H       1  <O>11       0.1747
  30 H4        1.4873   -15.2195    -6.0892  H       1  <O>11       0.1737
  31 H5        1.5281    -9.4147    -6.6865  H       1  <O>11       0.0636
  32 H6        0.5246   -11.0897    -8.1348  H       1  <O>11       0.0619
  33 H7        0.6997   -13.4498    -7.5736  H       1  <O>11       0.0636
  34 H8        2.8908   -12.4582    -4.1114  H       1  <O>11       0.0655
@<TRIPOS>BOND
     1     1     2    1
     2     2     3    2
     3     2     4    2
     4     2     5    1
     5     5     6    1
     6     6     7   ar
     7     7     8   ar
     8     8     9   ar
     9     9    10   ar
    10    10    11    1
    11    11    12    1
    12    12    13    2
    13    12    14    2
    14    12    15    1
    15    15    16   ar
    16    16    17    1
    17    16    18   ar
    18    18    19    1
    19    18    20   ar
    20    20    21    1
    21    20    22   ar
    22    22    23    1
    23    22    24   ar
    24    15    24   ar
    25    24    25    1
    26    10    26   ar
    27     6    26   ar
    28     1    27    1
    29     1    28    1
    30     5    29    1
    31    11    30    1
    32     7    31    1
    33     8    32    1
    34     9    33    1
    35    26    34    1
@<TRIPOS>MOLECULE
mol91_4_21
 34 35 0 0 0
SMALL
USER_CHARGES
****
VDW energy = -414.31
@<TRIPOS>ATOM
   1 N1        2.6154   -11.0930    -2.0656  N.3     1  <O>11      -0.1906
   2 S1        3.6472   -10.2648    -3.0548  S.O2    1  <O>11       0.1067
   3 O1        4.2018    -8.9113    -2.2678  O.2     1  <O>11      -0.1383
   4 O2        4.9323   -11.2385    -3.4543  O.2     1  <O>11      -0.1383
   5 N2        2.8490    -9.8140    -4.4290  N.pl3   1  <O>11      -0.2067
   6 C1        1.6910    -8.9620    -4.3440  C.ar    1  <O>11       0.0508
   7 C2        1.0280    -8.5900    -5.5160  C.ar    1  <O>11      -0.0392
   8 C3       -0.0890    -7.7520    -5.4430  C.ar    1  <O>11      -0.0582
   9 C4       -0.5440    -7.2920    -4.2040  C.ar    1  <O>11      -0.0392
  10 C5        0.1260    -7.6790    -3.0380  C.ar    1  <O>11       0.0498
  11 N3       -0.3480    -7.2030    -1.7630  N.pl3   1  <O>11      -0.2160
  12 S2        0.4280    -7.6490    -0.3750  S.O2    1  <O>11       0.0780
  13 O3        2.0050    -7.1340    -0.4320  O.2     1  <O>11      -0.1498
  14 O4        0.3890    -9.3020    -0.2250  O.2     1  <O>11      -0.1498
  15 C6       -0.3840    -6.9120     1.0160  C.ar    1  <O>11       0.1843
  16 C7        0.3446    -6.5876     2.1720  C.ar    1  <O>11       0.1907
  17 F1        1.6926    -6.8338     2.2181  F       1  <O>11      -0.2002
  18 C8       -0.2996    -6.0164     3.2750  C.ar    1  <O>11       0.1983
  19 F2        0.4211    -5.7087     4.4012  F       1  <O>11      -0.1993
  20 C9       -1.6735    -5.7601     3.2324  C.ar    1  <O>11       0.1992
  21 F3       -2.3111    -5.2032     4.3132  F       1  <O>11      -0.1993
  22 C10      -2.3969    -6.0771     2.0797  C.ar    1  <O>11       0.1983
  23 F4       -3.7439    -5.8230     2.0413  F       1  <O>11      -0.1993
  24 C11      -1.7638    -6.6457     0.9730  C.ar    1  <O>11       0.1907
  25 F5       -2.4724    -6.9504    -0.1617  F       1  <O>11      -0.2002
  26 C12       1.2410    -8.5150    -3.1000  C.ar    1  <O>11      -0.0169
  27 H1        2.2749   -11.9241    -2.5490  H       1  <O>11       0.1456
  28 H2        1.8263   -10.4950    -1.8204  H       1  <O>11       0.1456
  29 H3        3.1770   -10.1390    -5.3390  H       1  <O>11       0.1747
  30 H4       -1.1640    -6.5920    -1.7190  H       1  <O>11       0.1737
  31 H5        1.3609    -8.9319    -6.4310  H       1  <O>11       0.0636
  32 H6       -0.5792    -7.4722    -6.3070  H       1  <O>11       0.0619
  33 H7       -1.3673    -6.6721    -4.1496  H       1  <O>11       0.0636
  34 H8        1.7280    -8.8000    -2.2359  H       1  <O>11       0.0655
@<TRIPOS>BOND
     1     1     2    1
     2     2     3    2
     3     2     4    2
     4     2     5    1
     5     5     6    1
     6     6     7   ar
     7     7     8   ar
     8     8     9   ar
     9     9    10   ar
    10    10    11    1
    11    11    12    1
    12    12    13    2
    13    12    14    2
    14    12    15    1
    15    15    16   ar
    16    16    17    1
    17    16    18   ar
    18    18    19    1
    19    18    20   ar
    20    20    21    1
    21    20    22   ar
    22    22    23    1
    23    22    24   ar
    24    15    24   ar
    25    24    25    1
    26    10    26   ar
    27     6    26   ar
    28     1    27    1
    29     1    28    1
    30     5    29    1
    31    11    30    1
    32     7    31    1
    33     8    32    1
    34     9    33    1
    35    26    34    1
@<TRIPOS>MOLECULE
mol91_4_22
 34 35 0 0 0
SMALL
USER_CHARGES
****
VDW energy = -414.15
@<TRIPOS>ATOM
   1 N1        2.6154   -11.0930    -2.0656  N.3     1  <O>11      -0.1906
   2 S1        3.6472   -10.2648    -3.0548  S.O2    1  <O>11       0.1067
   3 O1        4.2018    -8.9113    -2.2678  O.2     1  <O>11      -0.1383
   4 O2        4.9323   -11.2385    -3.4543  O.2     1  <O>11      -0.1383
   5 N2        2.8490    -9.8140    -4.4290  N.pl3   1  <O>11      -0.2067
   6 C1        2.2717   -10.8146    -5.2891  C.ar    1  <O>11       0.0508
   7 C2        1.5998   -10.4160    -6.4471  C.ar    1  <O>11      -0.0392
   8 C3        1.0248   -11.3806    -7.2803  C.ar    1  <O>11      -0.0582
   9 C4        1.1253   -12.7375    -6.9600  C.ar    1  <O>11      -0.0392
  10 C5        1.8078   -13.1220    -5.8004  C.ar    1  <O>11       0.0498
  11 N3        1.9096   -14.5223    -5.4754  N.pl3   1  <O>11      -0.2160
  12 S2        2.7118   -14.9971    -4.1120  S.O2    1  <O>11       0.0780
  13 O3        1.9814   -14.3301    -2.7790  O.2     1  <O>11      -0.1498
  14 O4        4.2903   -14.4888    -4.1926  O.2     1  <O>11      -0.1498
  15 C6        2.6673   -16.7634    -3.9881  C.ar    1  <O>11       0.1843
  16 C7        3.2253   -17.5594    -5.0017  C.ar    1  <O>11       0.1907
  17 F1        3.8159   -16.9643    -6.0866  F       1  <O>11      -0.2002
  18 C8        3.1792   -18.9548    -4.9091  C.ar    1  <O>11       0.1983
  19 F2        3.7225   -19.7226    -5.9079  F       1  <O>11      -0.1993
  20 C9        2.5809   -19.5671    -3.8034  C.ar    1  <O>11       0.1992
  21 F3        2.5299   -20.9358    -3.7093  F       1  <O>11      -0.1993
  22 C10       2.0316   -18.7748    -2.7920  C.ar    1  <O>11       0.1983
  23 F4        1.4470   -19.3791    -1.7087  F       1  <O>11      -0.1993
  24 C11       2.0737   -17.3818    -2.8737  C.ar    1  <O>11       0.1907
  25 F5        1.5409   -16.6035    -1.8772  F       1  <O>11      -0.2002
  26 C12       2.3852   -12.1676    -4.9628  C.ar    1  <O>11      -0.0169
  27 H1        2.2749   -11.9241    -2.5490  H       1  <O>11       0.1456
  28 H2        1.8263   -10.4950    -1.8204  H       1  <O>11       0.1456
  29 H3        2.7643    -8.8257    -4.6685  H       1  <O>11       0.1747
  30 H4        1.4873   -15.2195    -6.0892  H       1  <O>11       0.1737
  31 H5        1.5281    -9.4147    -6.6865  H       1  <O>11       0.0636
  32 H6        0.5246   -11.0897    -8.1348  H       1  <O>11       0.0619
  33 H7        0.6997   -13.4498    -7.5736  H       1  <O>11       0.0636
  34 H8        2.8908   -12.4582    -4.1114  H       1  <O>11       0.0655
@<TRIPOS>BOND
     1     1     2    1
     2     2     3    2
     3     2     4    2
     4     2     5    1
     5     5     6    1
     6     6     7   ar
     7     7     8   ar
     8     8     9   ar
     9     9    10   ar
    10    10    11    1
    11    11    12    1
    12    12    13    2
    13    12    14    2
    14    12    15    1
    15    15    16   ar
    16    16    17    1
    17    16    18   ar
    18    18    19    1
    19    18    20   ar
    20    20    21    1
    21    20    22   ar
    22    22    23    1
    23    22    24   ar
    24    15    24   ar
    25    24    25    1
    26    10    26   ar
    27     6    26   ar
    28     1    27    1
    29     1    28    1
    30     5    29    1
    31    11    30    1
    32     7    31    1
    33     8    32    1
    34     9    33    1
    35    26    34    1
@<TRIPOS>MOLECULE
mol91_4_23
 34 35 0 0 0
SMALL
USER_CHARGES
****
VDW energy = -414.00
@<TRIPOS>ATOM
   1 N1        2.6154   -11.0930    -2.0656  N.3     1  <O>11      -0.1906
   2 S1        3.6472   -10.2648    -3.0548  S.O2    1  <O>11       0.1067
   3 O1        4.2018    -8.9113    -2.2678  O.2     1  <O>11      -0.1383
   4 O2        4.9323   -11.2385    -3.4543  O.2     1  <O>11      -0.1383
   5 N2        2.8490    -9.8140    -4.4290  N.pl3   1  <O>11      -0.2067
   6 C1        1.6910    -8.9620    -4.3440  C.ar    1  <O>11       0.0508
   7 C2        1.0280    -8.5900    -5.5160  C.ar    1  <O>11      -0.0392
   8 C3       -0.0890    -7.7520    -5.4430  C.ar    1  <O>11      -0.0582
   9 C4       -0.5440    -7.2920    -4.2040  C.ar    1  <O>11      -0.0392
  10 C5        0.1260    -7.6790    -3.0380  C.ar    1  <O>11       0.0498
  11 N3       -0.3480    -7.2030    -1.7630  N.pl3   1  <O>11      -0.2160
  12 S2        0.4280    -7.6490    -0.3750  S.O2    1  <O>11       0.0780
  13 O3        2.0050    -7.1340    -0.4320  O.2     1  <O>11      -0.1498
  14 O4        0.3890    -9.3020    -0.2250  O.2     1  <O>11      -0.1498
  15 C6       -0.3840    -6.9120     1.0160  C.ar    1  <O>11       0.1843
  16 C7       -0.4840    -5.5150     1.1200  C.ar    1  <O>11       0.1907
  17 F1        0.0410    -4.7200     0.1340  F       1  <O>11      -0.2002
  18 C8       -1.1150    -4.9330     2.2250  C.ar    1  <O>11       0.1983
  19 F2       -1.2020    -3.5670     2.3190  F       1  <O>11      -0.1993
  20 C9       -1.6550    -5.7390     3.2320  C.ar    1  <O>11       0.1992
  21 F3       -2.2720    -5.1730     4.3200  F       1  <O>11      -0.1993
  22 C10      -1.5610    -7.1290     3.1250  C.ar    1  <O>11       0.1983
  23 F4       -2.0930    -7.9160     4.1140  F       1  <O>11      -0.1993
  24 C11      -0.9350    -7.7200     2.0260  C.ar    1  <O>11       0.1907
  25 F5       -0.8490    -9.0850     1.9170  F       1  <O>11      -0.2002
  26 C12       1.2410    -8.5150    -3.1000  C.ar    1  <O>11      -0.0169
  27 H1        2.2749   -11.9241    -2.5490  H       1  <O>11       0.1456
  28 H2        1.8263   -10.4950    -1.8204  H       1  <O>11       0.1456
  29 H3        3.1770   -10.1390    -5.3390  H       1  <O>11       0.1747
  30 H4       -1.1640    -6.5920    -1.7190  H       1  <O>11       0.1737
  31 H5        1.3609    -8.9319    -6.4310  H       1  <O>11       0.0636
  32 H6       -0.5792    -7.4722    -6.3070  H       1  <O>11       0.0619
  33 H7       -1.3673    -6.6721    -4.1496  H       1  <O>11       0.0636
  34 H8        1.7280    -8.8000    -2.2359  H       1  <O>11       0.0655
@<TRIPOS>BOND
     1     1     2    1
     2     2     3    2
     3     2     4    2
     4     2     5    1
     5     5     6    1
     6     6     7   ar
     7     7     8   ar
     8     8     9   ar
     9     9    10   ar
    10    10    11    1
    11    11    12    1
    12    12    13    2
    13    12    14    2
    14    12    15    1
    15    15    16   ar
    16    16    17    1
    17    16    18   ar
    18    18    19    1
    19    18    20   ar
    20    20    21    1
    21    20    22   ar
    22    22    23    1
    23    22    24   ar
    24    15    24   ar
    25    24    25    1
    26    10    26   ar
    27     6    26   ar
    28     1    27    1
    29     1    28    1
    30     5    29    1
    31    11    30    1
    32     7    31    1
    33     8    32    1
    34     9    33    1
    35    26    34    1
@<TRIPOS>MOLECULE
mol91_4_24
 34 35 0 0 0
SMALL
USER_CHARGES
****
VDW energy = -413.70
@<TRIPOS>ATOM
   1 N1        2.6154   -11.0930    -2.0656  N.3     1  <O>11      -0.1906
   2 S1        3.6472   -10.2648    -3.0548  S.O2    1  <O>11       0.1067
   3 O1        4.2018    -8.9113    -2.2678  O.2     1  <O>11      -0.1383
   4 O2        4.9323   -11.2385    -3.4543  O.2     1  <O>11      -0.1383
   5 N2        2.8490    -9.8140    -4.4290  N.pl3   1  <O>11      -0.2067
   6 C1        1.6910    -8.9620    -4.3440  C.ar    1  <O>11       0.0508
   7 C2        1.0280    -8.5900    -5.5160  C.ar    1  <O>11      -0.0392
   8 C3       -0.0890    -7.7520    -5.4430  C.ar    1  <O>11      -0.0582
   9 C4       -0.5440    -7.2920    -4.2040  C.ar    1  <O>11      -0.0392
  10 C5        0.1260    -7.6790    -3.0380  C.ar    1  <O>11       0.0498
  11 N3       -0.3480    -7.2030    -1.7630  N.pl3   1  <O>11      -0.2160
  12 S2        0.4280    -7.6490    -0.3750  S.O2    1  <O>11       0.0780
  13 O3        2.0050    -7.1340    -0.4320  O.2     1  <O>11      -0.1498
  14 O4        0.3890    -9.3020    -0.2250  O.2     1  <O>11      -0.1498
  15 C6       -0.3840    -6.9120     1.0160  C.ar    1  <O>11       0.1843
  16 C7       -1.7344    -7.1937     1.2795  C.ar    1  <O>11       0.1907
  17 F1       -2.4228    -8.0516     0.4609  F       1  <O>11      -0.2002
  18 C8       -2.3787    -6.6019     2.3715  C.ar    1  <O>11       0.1983
  19 F2       -3.6998    -6.8799     2.6162  F       1  <O>11      -0.1993
  20 C9       -1.6807    -5.7287     3.2116  C.ar    1  <O>11       0.1992
  21 F3       -2.3090    -5.1426     4.2823  F       1  <O>11      -0.1993
  22 C10      -0.3354    -5.4537     2.9528  C.ar    1  <O>11       0.1983
  23 F4        0.3460    -4.5979     3.7797  F       1  <O>11      -0.1993
  24 C11       0.3174    -6.0400     1.8670  C.ar    1  <O>11       0.1907
  25 F5        1.6404    -5.7759     1.6169  F       1  <O>11      -0.2002
  26 C12       1.2410    -8.5150    -3.1000  C.ar    1  <O>11      -0.0169
  27 H1        2.2749   -11.9241    -2.5490  H       1  <O>11       0.1456
  28 H2        1.8263   -10.4950    -1.8204  H       1  <O>11       0.1456
  29 H3        3.1770   -10.1390    -5.3390  H       1  <O>11       0.1747
  30 H4       -1.1640    -6.5920    -1.7190  H       1  <O>11       0.1737
  31 H5        1.3609    -8.9319    -6.4310  H       1  <O>11       0.0636
  32 H6       -0.5792    -7.4722    -6.3070  H       1  <O>11       0.0619
  33 H7       -1.3673    -6.6721    -4.1496  H       1  <O>11       0.0636
  34 H8        1.7280    -8.8000    -2.2359  H       1  <O>11       0.0655
@<TRIPOS>BOND
     1     1     2    1
     2     2     3    2
     3     2     4    2
     4     2     5    1
     5     5     6    1
     6     6     7   ar
     7     7     8   ar
     8     8     9   ar
     9     9    10   ar
    10    10    11    1
    11    11    12    1
    12    12    13    2
    13    12    14    2
    14    12    15    1
    15    15    16   ar
    16    16    17    1
    17    16    18   ar
    18    18    19    1
    19    18    20   ar
    20    20    21    1
    21    20    22   ar
    22    22    23    1
    23    22    24   ar
    24    15    24   ar
    25    24    25    1
    26    10    26   ar
    27     6    26   ar
    28     1    27    1
    29     1    28    1
    30     5    29    1
    31    11    30    1
    32     7    31    1
    33     8    32    1
    34     9    33    1
    35    26    34    1
@<TRIPOS>MOLECULE
mol91_4_25
 34 35 0 0 0
SMALL
USER_CHARGES
****
VDW energy = -411.29
@<TRIPOS>ATOM
   1 N1        2.6154   -11.0930    -2.0656  N.3     1  <O>11      -0.1906
   2 S1        3.6472   -10.2648    -3.0548  S.O2    1  <O>11       0.1067
   3 O1        4.2018    -8.9113    -2.2678  O.2     1  <O>11      -0.1383
   4 O2        4.9323   -11.2385    -3.4543  O.2     1  <O>11      -0.1383
   5 N2        2.8490    -9.8140    -4.4290  N.pl3   1  <O>11      -0.2067
   6 C1        3.5389    -9.0744    -5.4542  C.ar    1  <O>11       0.0508
   7 C2        2.8490    -8.7014    -6.6103  C.ar    1  <O>11      -0.0392
   8 C3        3.5154    -7.9949    -7.6163  C.ar    1  <O>11      -0.0582
   9 C4        4.8637    -7.6587    -7.4653  C.ar    1  <O>11      -0.0392
  10 C5        5.5397    -8.0328    -6.2986  C.ar    1  <O>11       0.0498
  11 N3        6.9294    -7.6825    -6.1474  N.pl3   1  <O>11      -0.2160
  12 S2        7.7450    -8.1137    -4.7775  S.O2    1  <O>11       0.0780
  13 O3        7.7308    -9.7662    -4.6213  O.2     1  <O>11      -0.1498
  14 O4        7.0124    -7.4250    -3.4564  O.2     1  <O>11      -0.1498
  15 C6        9.4191    -7.5452    -4.8858  C.ar    1  <O>11       0.1843
  16 C7       10.2522    -7.9883    -5.9260  C.ar    1  <O>11       0.1907
  17 F1        9.7624    -8.8570    -6.8669  F       1  <O>11      -0.2002
  18 C8       11.5781    -7.5483    -6.0043  C.ar    1  <O>11       0.1983
  19 F2       12.3847    -7.9920    -7.0215  F       1  <O>11      -0.1993
  20 C9       12.0821    -6.6599    -5.0492  C.ar    1  <O>11       0.1992
  21 F3       13.3833    -6.2278    -5.1193  F       1  <O>11      -0.1993
  22 C10      11.2510    -6.2142    -4.0181  C.ar    1  <O>11       0.1983
  23 F4       11.7485    -5.3420    -3.0842  F       1  <O>11      -0.1993
  24 C11       9.9261    -6.6457    -3.9317  C.ar    1  <O>11       0.1907
  25 F5        9.1076    -6.2026    -2.9236  F       1  <O>11      -0.2002
  26 C12       4.8839    -8.7373    -5.2889  C.ar    1  <O>11      -0.0169
  27 H1        2.2749   -11.9241    -2.5490  H       1  <O>11       0.1456
  28 H2        1.8263   -10.4950    -1.8204  H       1  <O>11       0.1456
  29 H3        1.8664   -10.0602    -4.5519  H       1  <O>11       0.1747
  30 H4        7.4078    -7.1667    -6.8864  H       1  <O>11       0.1737
  31 H5        1.8526    -8.9460    -6.7212  H       1  <O>11       0.0636
  32 H6        3.0099    -7.7208    -8.4733  H       1  <O>11       0.0619
  33 H7        5.3565    -7.1389    -8.2082  H       1  <O>11       0.0636
  34 H8        5.3872    -9.0065    -4.4291  H       1  <O>11       0.0655
@<TRIPOS>BOND
     1     1     2    1
     2     2     3    2
     3     2     4    2
     4     2     5    1
     5     5     6    1
     6     6     7   ar
     7     7     8   ar
     8     8     9   ar
     9     9    10   ar
    10    10    11    1
    11    11    12    1
    12    12    13    2
    13    12    14    2
    14    12    15    1
    15    15    16   ar
    16    16    17    1
    17    16    18   ar
    18    18    19    1
    19    18    20   ar
    20    20    21    1
    21    20    22   ar
    22    22    23    1
    23    22    24   ar
    24    15    24   ar
    25    24    25    1
    26    10    26   ar
    27     6    26   ar
    28     1    27    1
    29     1    28    1
    30     5    29    1
    31    11    30    1
    32     7    31    1
    33     8    32    1
    34     9    33    1
    35    26    34    1
@<TRIPOS>MOLECULE
mol91_4_26
 34 35 0 0 0
SMALL
USER_CHARGES
****
VDW energy = -411.24
@<TRIPOS>ATOM
   1 N1        2.6154   -11.0930    -2.0656  N.3     1  <O>11      -0.1906
   2 S1        3.6472   -10.2648    -3.0548  S.O2    1  <O>11       0.1067
   3 O1        4.2018    -8.9113    -2.2678  O.2     1  <O>11      -0.1383
   4 O2        4.9323   -11.2385    -3.4543  O.2     1  <O>11      -0.1383
   5 N2        2.8490    -9.8140    -4.4290  N.pl3   1  <O>11      -0.2067
   6 C1        3.5389    -9.0744    -5.4542  C.ar    1  <O>11       0.0508
   7 C2        2.8490    -8.7014    -6.6103  C.ar    1  <O>11      -0.0392
   8 C3        3.5154    -7.9949    -7.6163  C.ar    1  <O>11      -0.0582
   9 C4        4.8637    -7.6587    -7.4653  C.ar    1  <O>11      -0.0392
  10 C5        5.5397    -8.0328    -6.2986  C.ar    1  <O>11       0.0498
  11 N3        6.9294    -7.6825    -6.1474  N.pl3   1  <O>11      -0.2160
  12 S2        7.7450    -8.1137    -4.7775  S.O2    1  <O>11       0.0780
  13 O3        7.7308    -9.7662    -4.6213  O.2     1  <O>11      -0.1498
  14 O4        7.0124    -7.4250    -3.4564  O.2     1  <O>11      -0.1498
  15 C6        9.4191    -7.5452    -4.8858  C.ar    1  <O>11       0.1843
  16 C7        9.6948    -6.1752    -5.0250  C.ar    1  <O>11       0.1907
  17 F1        8.6622    -5.2742    -5.0666  F       1  <O>11      -0.2002
  18 C8       11.0170    -5.7278    -5.1225  C.ar    1  <O>11       0.1983
  19 F2       11.2744    -4.3876    -5.2638  F       1  <O>11      -0.1993
  20 C9       12.0741    -6.6419    -5.0774  C.ar    1  <O>11       0.1992
  21 F3       13.3731    -6.2086    -5.1763  F       1  <O>11      -0.1993
  22 C10      11.7997    -8.0043    -4.9325  C.ar    1  <O>11       0.1983
  23 F4       12.8393    -8.8974    -4.8874  F       1  <O>11      -0.1993
  24 C11      10.4843    -8.4612    -4.8327  C.ar    1  <O>11       0.1907
  25 F5       10.2148    -9.7981    -4.6830  F       1  <O>11      -0.2002
  26 C12       4.8839    -8.7373    -5.2889  C.ar    1  <O>11      -0.0169
  27 H1        2.2749   -11.9241    -2.5490  H       1  <O>11       0.1456
  28 H2        1.8263   -10.4950    -1.8204  H       1  <O>11       0.1456
  29 H3        1.8664   -10.0602    -4.5519  H       1  <O>11       0.1747
  30 H4        7.4078    -7.1667    -6.8864  H       1  <O>11       0.1737
  31 H5        1.8526    -8.9460    -6.7212  H       1  <O>11       0.0636
  32 H6        3.0099    -7.7208    -8.4733  H       1  <O>11       0.0619
  33 H7        5.3565    -7.1389    -8.2082  H       1  <O>11       0.0636
  34 H8        5.3872    -9.0065    -4.4291  H       1  <O>11       0.0655
@<TRIPOS>BOND
     1     1     2    1
     2     2     3    2
     3     2     4    2
     4     2     5    1
     5     5     6    1
     6     6     7   ar
     7     7     8   ar
     8     8     9   ar
     9     9    10   ar
    10    10    11    1
    11    11    12    1
    12    12    13    2
    13    12    14    2
    14    12    15    1
    15    15    16   ar
    16    16    17    1
    17    16    18   ar
    18    18    19    1
    19    18    20   ar
    20    20    21    1
    21    20    22   ar
    22    22    23    1
    23    22    24   ar
    24    15    24   ar
    25    24    25    1
    26    10    26   ar
    27     6    26   ar
    28     1    27    1
    29     1    28    1
    30     5    29    1
    31    11    30    1
    32     7    31    1
    33     8    32    1
    34     9    33    1
    35    26    34    1
@<TRIPOS>MOLECULE
mol91_4_27
 34 35 0 0 0
SMALL
USER_CHARGES
****
VDW energy = -410.02
@<TRIPOS>ATOM
   1 N1        2.6154   -11.0930    -2.0656  N.3     1  <O>11      -0.1906
   2 S1        3.6472   -10.2648    -3.0548  S.O2    1  <O>11       0.1067
   3 O1        4.2018    -8.9113    -2.2678  O.2     1  <O>11      -0.1383
   4 O2        4.9323   -11.2385    -3.4543  O.2     1  <O>11      -0.1383
   5 N2        2.8490    -9.8140    -4.4290  N.pl3   1  <O>11      -0.2067
   6 C1        1.6910    -8.9620    -4.3440  C.ar    1  <O>11       0.0508
   7 C2        0.5350    -9.4391    -3.7214  C.ar    1  <O>11      -0.0392
   8 C3       -0.5979    -8.6229    -3.6468  C.ar    1  <O>11      -0.0582
   9 C4       -0.5739    -7.3343    -4.1877  C.ar    1  <O>11      -0.0392
  10 C5        0.5936    -6.8675    -4.8019  C.ar    1  <O>11       0.0498
  11 N3        0.6135    -5.5376    -5.3568  N.pl3   1  <O>11      -0.2160
  12 S2        1.9819    -4.9674    -6.0848  S.O2    1  <O>11       0.0780
  13 O3        3.2311    -4.9647    -4.9917  O.2     1  <O>11      -0.1498
  14 O4        1.7170    -3.4213    -6.6287  O.2     1  <O>11      -0.1498
  15 C6        2.3980    -6.0105    -7.4546  C.ar    1  <O>11       0.1843
  16 C7        3.5288    -5.7321    -8.2396  C.ar    1  <O>11       0.1907
  17 F1        4.3188    -4.6533    -7.9363  F       1  <O>11      -0.2002
  18 C8        3.8503    -6.5495    -9.3288  C.ar    1  <O>11       0.1983
  19 F2        4.9542    -6.2648   -10.0922  F       1  <O>11      -0.1993
  20 C9        3.0500    -7.6529    -9.6408  C.ar    1  <O>11       0.1992
  21 F3        3.3590    -8.4560   -10.7105  F       1  <O>11      -0.1993
  22 C10       1.9287    -7.9333    -8.8556  C.ar    1  <O>11       0.1983
  23 F4        1.1471    -9.0170    -9.1640  F       1  <O>11      -0.1993
  24 C11       1.5998    -7.1252    -7.7657  C.ar    1  <O>11       0.1907
  25 F5        0.5030    -7.4045    -6.9902  F       1  <O>11      -0.2002
  26 C12       1.7293    -7.6736    -4.8811  C.ar    1  <O>11      -0.0169
  27 H1        2.2749   -11.9241    -2.5490  H       1  <O>11       0.1456
  28 H2        1.8263   -10.4950    -1.8204  H       1  <O>11       0.1456
  29 H3        3.1770   -10.1390    -5.3390  H       1  <O>11       0.1747
  30 H4       -0.2177    -4.9488    -5.2977  H       1  <O>11       0.1737
  31 H5        0.5173   -10.3890    -3.3186  H       1  <O>11       0.0636
  32 H6       -1.4549    -8.9733    -3.1908  H       1  <O>11       0.0619
  33 H7       -1.4103    -6.7321    -4.1345  H       1  <O>11       0.0636
  34 H8        2.5885    -7.3216    -5.3317  H       1  <O>11       0.0655
@<TRIPOS>BOND
     1     1     2    1
     2     2     3    2
     3     2     4    2
     4     2     5    1
     5     5     6    1
     6     6     7   ar
     7     7     8   ar
     8     8     9   ar
     9     9    10   ar
    10    10    11    1
    11    11    12    1
    12    12    13    2
    13    12    14    2
    14    12    15    1
    15    15    16   ar
    16    16    17    1
    17    16    18   ar
    18    18    19    1
    19    18    20   ar
    20    20    21    1
    21    20    22   ar
    22    22    23    1
    23    22    24   ar
    24    15    24   ar
    25    24    25    1
    26    10    26   ar
    27     6    26   ar
    28     1    27    1
    29     1    28    1
    30     5    29    1
    31    11    30    1
    32     7    31    1
    33     8    32    1
    34     9    33    1
    35    26    34    1
@<TRIPOS>MOLECULE
mol91_4_28
 34 35 0 0 0
SMALL
USER_CHARGES
****
VDW energy = -407.15
@<TRIPOS>ATOM
   1 N1        2.6154   -11.0930    -2.0656  N.3     1  <O>11      -0.1906
   2 S1        3.6472   -10.2648    -3.0548  S.O2    1  <O>11       0.1067
   3 O1        4.2018    -8.9113    -2.2678  O.2     1  <O>11      -0.1383
   4 O2        4.9323   -11.2385    -3.4543  O.2     1  <O>11      -0.1383
   5 N2        2.8490    -9.8140    -4.4290  N.pl3   1  <O>11      -0.2067
   6 C1        3.5389    -9.0744    -5.4542  C.ar    1  <O>11       0.0508
   7 C2        2.8490    -8.7014    -6.6103  C.ar    1  <O>11      -0.0392
   8 C3        3.5154    -7.9949    -7.6163  C.ar    1  <O>11      -0.0582
   9 C4        4.8637    -7.6587    -7.4653  C.ar    1  <O>11      -0.0392
  10 C5        5.5397    -8.0328    -6.2986  C.ar    1  <O>11       0.0498
  11 N3        6.9294    -7.6825    -6.1474  N.pl3   1  <O>11      -0.2160
  12 S2        7.7450    -8.1137    -4.7775  S.O2    1  <O>11       0.0780
  13 O3        7.7308    -9.7662    -4.6213  O.2     1  <O>11      -0.1498
  14 O4        7.0124    -7.4250    -3.4564  O.2     1  <O>11      -0.1498
  15 C6        9.4191    -7.5452    -4.8858  C.ar    1  <O>11       0.1843
  16 C7       10.3199    -7.7897    -3.8365  C.ar    1  <O>11       0.1907
  17 F1        9.9024    -8.4809    -2.7284  F       1  <O>11      -0.2002
  18 C8       11.6390    -7.3300    -3.9173  C.ar    1  <O>11       0.1983
  19 F2       12.5090    -7.5697    -2.8838  F       1  <O>11      -0.1993
  20 C9       12.0712    -6.6273    -5.0464  C.ar    1  <O>11       0.1992
  21 F3       13.3633    -6.1710    -5.1292  F       1  <O>11      -0.1993
  22 C10      11.1764    -6.3899    -6.0930  C.ar    1  <O>11       0.1983
  23 F4       11.6045    -5.7016    -7.1991  F       1  <O>11      -0.1993
  24 C11       9.8587    -6.8456    -6.0233  C.ar    1  <O>11       0.1907
  25 F5        8.9818    -6.6190    -7.0539  F       1  <O>11      -0.2002
  26 C12       4.8839    -8.7373    -5.2889  C.ar    1  <O>11      -0.0169
  27 H1        2.2749   -11.9241    -2.5490  H       1  <O>11       0.1456
  28 H2        1.8263   -10.4950    -1.8204  H       1  <O>11       0.1456
  29 H3        1.8664   -10.0602    -4.5519  H       1  <O>11       0.1747
  30 H4        7.4078    -7.1667    -6.8864  H       1  <O>11       0.1737
  31 H5        1.8526    -8.9460    -6.7212  H       1  <O>11       0.0636
  32 H6        3.0099    -7.7208    -8.4733  H       1  <O>11       0.0619
  33 H7        5.3565    -7.1389    -8.2082  H       1  <O>11       0.0636
  34 H8        5.3872    -9.0065    -4.4291  H       1  <O>11       0.0655
@<TRIPOS>BOND
     1     1     2    1
     2     2     3    2
     3     2     4    2
     4     2     5    1
     5     5     6    1
     6     6     7   ar
     7     7     8   ar
     8     8     9   ar
     9     9    10   ar
    10    10    11    1
    11    11    12    1
    12    12    13    2
    13    12    14    2
    14    12    15    1
    15    15    16   ar
    16    16    17    1
    17    16    18   ar
    18    18    19    1
    19    18    20   ar
    20    20    21    1
    21    20    22   ar
    22    22    23    1
    23    22    24   ar
    24    15    24   ar
    25    24    25    1
    26    10    26   ar
    27     6    26   ar
    28     1    27    1
    29     1    28    1
    30     5    29    1
    31    11    30    1
    32     7    31    1
    33     8    32    1
    34     9    33    1
    35    26    34    1
@<TRIPOS>MOLECULE
mol91_4_29
 34 35 0 0 0
SMALL
USER_CHARGES
****
VDW energy = -405.77
@<TRIPOS>ATOM
   1 N1        2.6154   -11.0930    -2.0656  N.3     1  <O>11      -0.1906
   2 S1        3.6472   -10.2648    -3.0548  S.O2    1  <O>11       0.1067
   3 O1        4.2018    -8.9113    -2.2678  O.2     1  <O>11      -0.1383
   4 O2        4.9323   -11.2385    -3.4543  O.2     1  <O>11      -0.1383
   5 N2        2.8490    -9.8140    -4.4290  N.pl3   1  <O>11      -0.2067
   6 C1        1.6910    -8.9620    -4.3440  C.ar    1  <O>11       0.0508
   7 C2        1.0280    -8.5900    -5.5160  C.ar    1  <O>11      -0.0392
   8 C3       -0.0890    -7.7520    -5.4430  C.ar    1  <O>11      -0.0582
   9 C4       -0.5440    -7.2920    -4.2040  C.ar    1  <O>11      -0.0392
  10 C5        0.1260    -7.6790    -3.0380  C.ar    1  <O>11       0.0498
  11 N3       -0.3480    -7.2030    -1.7630  N.pl3   1  <O>11      -0.2160
  12 S2        0.2327    -5.7867    -1.1428  S.O2    1  <O>11       0.0780
  13 O3        1.8764    -5.9026    -0.9420  O.2     1  <O>11      -0.1498
  14 O4       -0.4860    -5.4880     0.3237  O.2     1  <O>11      -0.1498
  15 C6       -0.1338    -4.4613    -2.2593  C.ar    1  <O>11       0.1843
  16 C7        0.7151    -3.3452    -2.3374  C.ar    1  <O>11       0.1907
  17 F1        1.8378    -3.2880    -1.5525  F       1  <O>11      -0.2002
  18 C8        0.4187    -2.2930    -3.2109  C.ar    1  <O>11       0.1983
  19 F2        1.2520    -1.2050    -3.2749  F       1  <O>11      -0.1993
  20 C9       -0.7233    -2.3475    -4.0160  C.ar    1  <O>11       0.1992
  21 F3       -1.0206    -1.3162    -4.8721  F       1  <O>11      -0.1993
  22 C10      -1.5641    -3.4610    -3.9427  C.ar    1  <O>11       0.1983
  23 F4       -2.6823    -3.5113    -4.7349  F       1  <O>11      -0.1993
  24 C11      -1.2768    -4.5171    -3.0759  C.ar    1  <O>11       0.1907
  25 F5       -2.0984    -5.6139    -3.0089  F       1  <O>11      -0.2002
  26 C12       1.2410    -8.5150    -3.1000  C.ar    1  <O>11      -0.0169
  27 H1        2.2749   -11.9241    -2.5490  H       1  <O>11       0.1456
  28 H2        1.8263   -10.4950    -1.8204  H       1  <O>11       0.1456
  29 H3        3.1770   -10.1390    -5.3390  H       1  <O>11       0.1747
  30 H4       -1.0410    -7.7426    -1.2437  H       1  <O>11       0.1737
  31 H5        1.3609    -8.9319    -6.4310  H       1  <O>11       0.0636
  32 H6       -0.5792    -7.4722    -6.3070  H       1  <O>11       0.0619
  33 H7       -1.3673    -6.6721    -4.1496  H       1  <O>11       0.0636
  34 H8        1.7280    -8.8000    -2.2359  H       1  <O>11       0.0655
@<TRIPOS>BOND
     1     1     2    1
     2     2     3    2
     3     2     4    2
     4     2     5    1
     5     5     6    1
     6     6     7   ar
     7     7     8   ar
     8     8     9   ar
     9     9    10   ar
    10    10    11    1
    11    11    12    1
    12    12    13    2
    13    12    14    2
    14    12    15    1
    15    15    16   ar
    16    16    17    1
    17    16    18   ar
    18    18    19    1
    19    18    20   ar
    20    20    21    1
    21    20    22   ar
    22    22    23    1
    23    22    24   ar
    24    15    24   ar
    25    24    25    1
    26    10    26   ar
    27     6    26   ar
    28     1    27    1
    29     1    28    1
    30     5    29    1
    31    11    30    1
    32     7    31    1
    33     8    32    1
    34     9    33    1
    35    26    34    1
@<TRIPOS>MOLECULE
mol91_4_30
 34 35 0 0 0
SMALL
USER_CHARGES
****
VDW energy = -395.77
@<TRIPOS>ATOM
   1 N1        2.6154   -11.0930    -2.0656  N.3     1  <O>11      -0.1906
   2 S1        3.6472   -10.2648    -3.0548  S.O2    1  <O>11       0.1067
   3 O1        4.2018    -8.9113    -2.2678  O.2     1  <O>11      -0.1383
   4 O2        4.9323   -11.2385    -3.4543  O.2     1  <O>11      -0.1383
   5 N2        2.8490    -9.8140    -4.4290  N.pl3   1  <O>11      -0.2067
   6 C1        1.6910    -8.9620    -4.3440  C.ar    1  <O>11       0.0508
   7 C2        1.0280    -8.5900    -5.5160  C.ar    1  <O>11      -0.0392
   8 C3       -0.0890    -7.7520    -5.4430  C.ar    1  <O>11      -0.0582
   9 C4       -0.5440    -7.2920    -4.2040  C.ar    1  <O>11      -0.0392
  10 C5        0.1260    -7.6790    -3.0380  C.ar    1  <O>11       0.0498
  11 N3       -0.3480    -7.2030    -1.7630  N.pl3   1  <O>11      -0.2160
  12 S2        0.4280    -7.6490    -0.3750  S.O2    1  <O>11       0.0780
  13 O3        0.3899    -9.3018    -0.2256  O.2     1  <O>11      -0.1498
  14 O4       -0.3289    -6.9561     0.9302  O.2     1  <O>11      -0.1498
  15 C6        2.1110    -7.1005    -0.4395  C.ar    1  <O>11       0.1843
  16 C7        2.4065    -5.7334    -0.5664  C.ar    1  <O>11       0.1907
  17 F1        1.3862    -4.8198    -0.6302  F       1  <O>11      -0.2002
  18 C8        3.7360    -5.3017    -0.6293  C.ar    1  <O>11       0.1983
  19 F2        4.0130    -3.9643    -0.7589  F       1  <O>11      -0.1993
  20 C9        4.7807    -6.2288    -0.5615  C.ar    1  <O>11       0.1992
  21 F3        6.0868    -5.8109    -0.6264  F       1  <O>11      -0.1993
  22 C10       4.4863    -7.5883    -0.4288  C.ar    1  <O>11       0.1983
  23 F4        5.5136    -8.4942    -0.3613  F       1  <O>11      -0.1993
  24 C11       3.1634    -8.0295    -0.3634  C.ar    1  <O>11       0.1907
  25 F5        2.8742    -9.3636    -0.2257  F       1  <O>11      -0.2002
  26 C12       1.2410    -8.5150    -3.1000  C.ar    1  <O>11      -0.0169
  27 H1        2.2749   -11.9241    -2.5490  H       1  <O>11       0.1456
  28 H2        1.8263   -10.4950    -1.8204  H       1  <O>11       0.1456
  29 H3        3.1770   -10.1390    -5.3390  H       1  <O>11       0.1747
  30 H4       -1.1640    -6.5920    -1.7190  H       1  <O>11       0.1737
  31 H5        1.3609    -8.9319    -6.4310  H       1  <O>11       0.0636
  32 H6       -0.5792    -7.4722    -6.3070  H       1  <O>11       0.0619
  33 H7       -1.3673    -6.6721    -4.1496  H       1  <O>11       0.0636
  34 H8        1.7280    -8.8000    -2.2359  H       1  <O>11       0.0655
@<TRIPOS>BOND
     1     1     2    1
     2     2     3    2
     3     2     4    2
     4     2     5    1
     5     5     6    1
     6     6     7   ar
     7     7     8   ar
     8     8     9   ar
     9     9    10   ar
    10    10    11    1
    11    11    12    1
    12    12    13    2
    13    12    14    2
    14    12    15    1
    15    15    16   ar
    16    16    17    1
    17    16    18   ar
    18    18    19    1
    19    18    20   ar
    20    20    21    1
    21    20    22   ar
    22    22    23    1
    23    22    24   ar
    24    15    24   ar
    25    24    25    1
    26    10    26   ar
    27     6    26   ar
    28     1    27    1
    29     1    28    1
    30     5    29    1
    31    11    30    1
    32     7    31    1
    33     8    32    1
    34     9    33    1
    35    26    34    1
