@<TRIPOS>MOLECULE
mol9_1_1
 33 35 0 0 0
SMALL
USER_CHARGES
****
VDW energy = -1.32
@<TRIPOS>ATOM
   1 O1        3.4420    -9.1855    -5.2979  O.2     1  <O>11      -0.2451
   2 C1        2.8552    -9.8129    -4.4288  C.2     1  <O>11       0.3368
   3 O2        3.5096   -10.1823    -3.3012  O.3     1  <O>11      -0.4771
   4 C2        1.4620   -10.1610    -4.6040  C.ar    1  <O>11       0.0591
   5 C3        1.1306   -11.3698    -5.2192  C.ar    1  <O>11      -0.0478
   6 C4       -0.2153   -11.7066    -5.4026  C.ar    1  <O>11      -0.0607
   7 C5       -1.2229   -10.8409    -4.9699  C.ar    1  <O>11      -0.0582
   8 C6       -0.8747    -9.6351    -4.3496  C.ar    1  <O>11      -0.0407
   9 C7       -1.9432    -8.7250    -3.8932  C.3     1  <O>11       0.0171
  10 C8       -2.2905    -7.7811    -4.9876  C.ar    1  <O>11       0.0736
  11 N1       -1.4550    -7.6710    -6.1037  N.ar    1  <O>11      -0.1750
  12 N2       -1.7008    -6.7428    -7.0578  N.ar    1  <O>11      -0.2425
  13 C9       -2.7756    -5.9291    -6.9237  C.ar    1  <O>11       0.2725
  14 O3       -2.9209    -4.9224    -7.8990  O.2     1  <O>11      -0.2658
  15 C10      -3.7161    -6.0435    -5.8907  C.ar    1  <O>11       0.0496
  16 C11      -4.8709    -5.2330    -5.7796  C.ar    1  <O>11      -0.0487
  17 C12      -5.7501    -5.3782    -4.7066  C.ar    1  <O>11      -0.0610
  18 C13      -5.4935    -6.3271    -3.7233  C.ar    1  <O>11      -0.0611
  19 C14      -4.3549    -7.1306    -3.8133  C.ar    1  <O>11      -0.0521
  20 C15      -3.4568    -7.0029    -4.8965  C.ar    1  <O>11       0.0106
  21 C16       0.4636    -9.2913    -4.1600  C.ar    1  <O>11      -0.0442
  22 H1        2.9041   -10.6687    -2.7201  H       1  <O>11       0.2954
  23 H2       -1.5971    -8.1637    -3.0250  H       1  <O>11       0.0377
  24 H3       -2.8242    -9.3069    -3.6219  H       1  <O>11       0.0377
  25 H4       -1.0916    -6.6594    -7.8589  H       1  <O>11       0.1921
  26 H5        1.8739   -12.0113    -5.5368  H       1  <O>11       0.0626
  27 H6       -0.4644   -12.5978    -5.8593  H       1  <O>11       0.0618
  28 H7       -2.2155   -11.0882    -5.1063  H       1  <O>11       0.0620
  29 H8       -5.0654    -4.5238    -6.5035  H       1  <O>11       0.0625
  30 H9       -6.5901    -4.7821    -4.6428  H       1  <O>11       0.0618
  31 H10      -6.1429    -6.4373    -2.9289  H       1  <O>11       0.0618
  32 H11      -4.1666    -7.8288    -3.0770  H       1  <O>11       0.0624
  33 H12       0.7134    -8.4037    -3.6966  H       1  <O>11       0.0628
@<TRIPOS>BOND
     1     1     2    2
     2     2     3    1
     3     2     4    1
     4     4     5   ar
     5     5     6   ar
     6     6     7   ar
     7     7     8   ar
     8     8     9    1
     9     9    10    1
    10    10    11   ar
    11    11    12   ar
    12    12    13   ar
    13    13    14    2
    14    13    15   ar
    15    15    16   ar
    16    16    17   ar
    17    17    18   ar
    18    18    19   ar
    19    19    20   ar
    20    10    20   ar
    21    15    20   ar
    22     8    21   ar
    23     4    21   ar
    24     3    22    1
    25     9    23    1
    26     9    24    1
    27    12    25    1
    28     5    26    1
    29     6    27    1
    30     7    28    1
    31    16    29    1
    32    17    30    1
    33    18    31    1
    34    19    32    1
    35    21    33    1
@<TRIPOS>MOLECULE
mol9_1_2
 33 35 0 0 0
SMALL
USER_CHARGES
****
VDW energy = -0.84
@<TRIPOS>ATOM
   1 O1        3.4420    -9.1855    -5.2979  O.2     1  <O>11      -0.2451
   2 C1        2.8552    -9.8129    -4.4288  C.2     1  <O>11       0.3368
   3 O2        3.5096   -10.1823    -3.3012  O.3     1  <O>11      -0.4771
   4 C2        1.4620   -10.1610    -4.6040  C.ar    1  <O>11       0.0591
   5 C3        1.1306   -11.3698    -5.2192  C.ar    1  <O>11      -0.0478
   6 C4       -0.2153   -11.7066    -5.4026  C.ar    1  <O>11      -0.0607
   7 C5       -1.2229   -10.8409    -4.9699  C.ar    1  <O>11      -0.0582
   8 C6       -0.8747    -9.6351    -4.3496  C.ar    1  <O>11      -0.0407
   9 C7       -1.9432    -8.7250    -3.8932  C.3     1  <O>11       0.0171
  10 C8       -2.7945    -9.4225    -2.8942  C.ar    1  <O>11       0.0736
  11 N1       -3.9134   -10.1470    -3.3173  N.ar    1  <O>11      -0.1750
  12 N2       -4.7566   -10.6996    -2.4141  N.ar    1  <O>11      -0.2425
  13 C9       -4.4953   -10.5523    -1.0930  C.ar    1  <O>11       0.2725
  14 O3       -5.4613   -11.0670    -0.2053  O.2     1  <O>11      -0.2658
  15 C10      -3.3439    -9.9307    -0.5905  C.ar    1  <O>11       0.0496
  16 C11      -3.0394    -9.8261     0.7876  C.ar    1  <O>11      -0.0487
  17 C12      -1.8906    -9.1648     1.2214  C.ar    1  <O>11      -0.0610
  18 C13      -1.0283    -8.5914     0.2936  C.ar    1  <O>11      -0.0611
  19 C14      -1.3169    -8.6789    -1.0700  C.ar    1  <O>11      -0.0521
  20 C15      -2.4720    -9.3510    -1.5286  C.ar    1  <O>11       0.0106
  21 C16       0.4636    -9.2913    -4.1600  C.ar    1  <O>11      -0.0442
  22 H1        2.9041   -10.6687    -2.7201  H       1  <O>11       0.2954
  23 H2       -2.5538    -8.4242    -4.7448  H       1  <O>11       0.0377
  24 H3       -1.4967    -7.8415    -3.4364  H       1  <O>11       0.0377
  25 H4       -5.5685   -11.2155    -2.7216  H       1  <O>11       0.1921
  26 H5        1.8739   -12.0113    -5.5368  H       1  <O>11       0.0626
  27 H6       -0.4644   -12.5978    -5.8593  H       1  <O>11       0.0618
  28 H7       -2.2155   -11.0882    -5.1063  H       1  <O>11       0.0620
  29 H8       -3.6771   -10.2456     1.4821  H       1  <O>11       0.0625
  30 H9       -1.6809    -9.1012     2.2298  H       1  <O>11       0.0618
  31 H10      -0.1771    -8.1024     0.6118  H       1  <O>11       0.0618
  32 H11      -0.6763    -8.2459    -1.7535  H       1  <O>11       0.0624
  33 H12       0.7134    -8.4037    -3.6966  H       1  <O>11       0.0628
@<TRIPOS>BOND
     1     1     2    2
     2     2     3    1
     3     2     4    1
     4     4     5   ar
     5     5     6   ar
     6     6     7   ar
     7     7     8   ar
     8     8     9    1
     9     9    10    1
    10    10    11   ar
    11    11    12   ar
    12    12    13   ar
    13    13    14    2
    14    13    15   ar
    15    15    16   ar
    16    16    17   ar
    17    17    18   ar
    18    18    19   ar
    19    19    20   ar
    20    10    20   ar
    21    15    20   ar
    22     8    21   ar
    23     4    21   ar
    24     3    22    1
    25     9    23    1
    26     9    24    1
    27    12    25    1
    28     5    26    1
    29     6    27    1
    30     7    28    1
    31    16    29    1
    32    17    30    1
    33    18    31    1
    34    19    32    1
    35    21    33    1
@<TRIPOS>MOLECULE
mol9_1_3
 33 35 0 0 0
SMALL
USER_CHARGES
****
VDW energy = -0.52
@<TRIPOS>ATOM
   1 O1        3.4420    -9.1855    -5.2979  O.2     1  <O>11      -0.2451
   2 C1        2.8552    -9.8129    -4.4288  C.2     1  <O>11       0.3368
   3 O2        3.5096   -10.1823    -3.3012  O.3     1  <O>11      -0.4771
   4 C2        1.4620   -10.1610    -4.6040  C.ar    1  <O>11       0.0591
   5 C3        0.4750    -9.2817    -4.1546  C.ar    1  <O>11      -0.0478
   6 C4       -0.8745    -9.6183    -4.3101  C.ar    1  <O>11      -0.0607
   7 C5       -1.2337   -10.8255    -4.9148  C.ar    1  <O>11      -0.0582
   8 C6       -0.2326   -11.6941    -5.3653  C.ar    1  <O>11      -0.0407
   9 C7       -0.6176   -12.9674    -6.0045  C.3     1  <O>11       0.0171
  10 C8       -1.4357   -12.6870    -7.2134  C.ar    1  <O>11       0.0736
  11 N1       -2.8266   -12.5896    -7.1059  N.ar    1  <O>11      -0.1750
  12 N2       -3.5929   -12.4391    -8.2115  N.ar    1  <O>11      -0.2425
  13 C9       -2.9931   -12.3713    -9.4244  C.ar    1  <O>11       0.2725
  14 O3       -3.8504   -12.3122   -10.5413  O.2     1  <O>11      -0.2658
  15 C10      -1.6035   -12.3580    -9.6074  C.ar    1  <O>11       0.0496
  16 C11      -0.9733   -12.2291   -10.8679  C.ar    1  <O>11      -0.0487
  17 C12       0.4164   -12.2561   -10.9825  C.ar    1  <O>11      -0.0610
  18 C13       1.2029   -12.4175    -9.8473  C.ar    1  <O>11      -0.0611
  19 C14       0.5976   -12.5534    -8.5962  C.ar    1  <O>11      -0.0521
  20 C15      -0.8083   -12.5212    -8.4597  C.ar    1  <O>11       0.0106
  21 C16       1.1151   -11.3668    -5.2172  C.ar    1  <O>11      -0.0442
  22 H1        2.9041   -10.6687    -2.7201  H       1  <O>11       0.2954
  23 H2       -1.1989   -13.5660    -5.3028  H       1  <O>11       0.0377
  24 H3        0.2800   -13.5151    -6.2923  H       1  <O>11       0.0377
  25 H4       -4.5978   -12.3772    -8.1326  H       1  <O>11       0.1921
  26 H5        0.7391    -8.3884    -3.7103  H       1  <O>11       0.0626
  27 H6       -1.6070    -8.9723    -3.9769  H       1  <O>11       0.0618
  28 H7       -2.2287   -11.0748    -5.0282  H       1  <O>11       0.0620
  29 H8       -1.5509   -12.1132   -11.7152  H       1  <O>11       0.0625
  30 H9        0.8604   -12.1564   -11.9087  H       1  <O>11       0.0618
  31 H10       2.2314   -12.4369    -9.9291  H       1  <O>11       0.0618
  32 H11       1.1865   -12.6793    -7.7581  H       1  <O>11       0.0624
  33 H12       1.8481   -12.0089    -5.5570  H       1  <O>11       0.0628
@<TRIPOS>BOND
     1     1     2    2
     2     2     3    1
     3     2     4    1
     4     4     5   ar
     5     5     6   ar
     6     6     7   ar
     7     7     8   ar
     8     8     9    1
     9     9    10    1
    10    10    11   ar
    11    11    12   ar
    12    12    13   ar
    13    13    14    2
    14    13    15   ar
    15    15    16   ar
    16    16    17   ar
    17    17    18   ar
    18    18    19   ar
    19    19    20   ar
    20    10    20   ar
    21    15    20   ar
    22     8    21   ar
    23     4    21   ar
    24     3    22    1
    25     9    23    1
    26     9    24    1
    27    12    25    1
    28     5    26    1
    29     6    27    1
    30     7    28    1
    31    16    29    1
    32    17    30    1
    33    18    31    1
    34    19    32    1
    35    21    33    1
@<TRIPOS>MOLECULE
mol9_1_4
 33 35 0 0 0
SMALL
USER_CHARGES
****
VDW energy = -0.16
@<TRIPOS>ATOM
   1 O1        3.4420    -9.1855    -5.2979  O.2     1  <O>11      -0.2451
   2 C1        2.8552    -9.8129    -4.4288  C.2     1  <O>11       0.3368
   3 O2        3.5096   -10.1823    -3.3012  O.3     1  <O>11      -0.4771
   4 C2        1.4620   -10.1610    -4.6040  C.ar    1  <O>11       0.0591
   5 C3        1.1306   -11.3698    -5.2192  C.ar    1  <O>11      -0.0478
   6 C4       -0.2153   -11.7066    -5.4026  C.ar    1  <O>11      -0.0607
   7 C5       -1.2229   -10.8409    -4.9699  C.ar    1  <O>11      -0.0582
   8 C6       -0.8747    -9.6351    -4.3496  C.ar    1  <O>11      -0.0407
   9 C7       -1.9432    -8.7250    -3.8932  C.3     1  <O>11       0.0171
  10 C8       -2.7754    -8.3165    -5.0550  C.ar    1  <O>11       0.0736
  11 N1       -3.8944    -9.0759    -5.4114  N.ar    1  <O>11      -0.1750
  12 N2       -4.6006    -8.7780    -6.5271  N.ar    1  <O>11      -0.2425
  13 C9       -4.2163    -7.7254    -7.2884  C.ar    1  <O>11       0.2725
  14 O3       -4.9327    -7.5275    -8.4857  O.2     1  <O>11      -0.2658
  15 C10      -3.1717    -6.8557    -6.9460  C.ar    1  <O>11       0.0496
  16 C11      -2.8050    -5.7217    -7.7091  C.ar    1  <O>11      -0.0487
  17 C12      -1.7326    -4.9154    -7.3280  C.ar    1  <O>11      -0.0610
  18 C13      -1.0033    -5.2257    -6.1856  C.ar    1  <O>11      -0.0611
  19 C14      -1.3469    -6.3450    -5.4246  C.ar    1  <O>11      -0.0521
  20 C15      -2.4344    -7.1693    -5.7910  C.ar    1  <O>11       0.0106
  21 C16       0.4636    -9.2913    -4.1600  C.ar    1  <O>11      -0.0442
  22 H1        2.9041   -10.6687    -2.7201  H       1  <O>11       0.2954
  23 H2       -1.4979    -7.8410    -3.4360  H       1  <O>11       0.0377
  24 H3       -2.5678    -9.2370    -3.1609  H       1  <O>11       0.0377
  25 H4       -5.4036    -9.3325    -6.7872  H       1  <O>11       0.1921
  26 H5        1.8739   -12.0113    -5.5368  H       1  <O>11       0.0626
  27 H6       -0.4644   -12.5978    -5.8593  H       1  <O>11       0.0618
  28 H7       -2.2155   -11.0882    -5.1063  H       1  <O>11       0.0620
  29 H8       -3.3392    -5.4877    -8.5605  H       1  <O>11       0.0625
  30 H9       -1.4809    -4.0895    -7.8932  H       1  <O>11       0.0618
  31 H10      -0.2101    -4.6302    -5.9008  H       1  <O>11       0.0618
  32 H11      -0.7978    -6.5738    -4.5813  H       1  <O>11       0.0624
  33 H12       0.7134    -8.4037    -3.6966  H       1  <O>11       0.0628
@<TRIPOS>BOND
     1     1     2    2
     2     2     3    1
     3     2     4    1
     4     4     5   ar
     5     5     6   ar
     6     6     7   ar
     7     7     8   ar
     8     8     9    1
     9     9    10    1
    10    10    11   ar
    11    11    12   ar
    12    12    13   ar
    13    13    14    2
    14    13    15   ar
    15    15    16   ar
    16    16    17   ar
    17    17    18   ar
    18    18    19   ar
    19    19    20   ar
    20    10    20   ar
    21    15    20   ar
    22     8    21   ar
    23     4    21   ar
    24     3    22    1
    25     9    23    1
    26     9    24    1
    27    12    25    1
    28     5    26    1
    29     6    27    1
    30     7    28    1
    31    16    29    1
    32    17    30    1
    33    18    31    1
    34    19    32    1
    35    21    33    1
@<TRIPOS>MOLECULE
mol9_1_5
 33 35 0 0 0
SMALL
USER_CHARGES
****
VDW energy = 0.89
@<TRIPOS>ATOM
   1 O1        3.4420    -9.1855    -5.2979  O.2     1  <O>11      -0.2451
   2 C1        2.8552    -9.8129    -4.4288  C.2     1  <O>11       0.3368
   3 O2        3.5096   -10.1823    -3.3012  O.3     1  <O>11      -0.4771
   4 C2        1.4620   -10.1610    -4.6040  C.ar    1  <O>11       0.0591
   5 C3        1.1306   -11.3698    -5.2192  C.ar    1  <O>11      -0.0478
   6 C4       -0.2153   -11.7066    -5.4026  C.ar    1  <O>11      -0.0607
   7 C5       -1.2229   -10.8409    -4.9699  C.ar    1  <O>11      -0.0582
   8 C6       -0.8747    -9.6351    -4.3496  C.ar    1  <O>11      -0.0407
   9 C7       -1.9432    -8.7250    -3.8932  C.3     1  <O>11       0.0171
  10 C8       -2.7754    -8.3165    -5.0550  C.ar    1  <O>11       0.0736
  11 N1       -2.3274    -8.5688    -6.3556  N.ar    1  <O>11      -0.1750
  12 N2       -3.0222    -8.1107    -7.4232  N.ar    1  <O>11      -0.2425
  13 C9       -4.1656    -7.4145    -7.2154  C.ar    1  <O>11       0.2725
  14 O3       -4.7890    -6.8831    -8.3621  O.2     1  <O>11      -0.2658
  15 C10      -4.7341    -7.2083    -5.9508  C.ar    1  <O>11       0.0496
  16 C11      -5.9581    -6.5316    -5.7351  C.ar    1  <O>11      -0.0487
  17 C12      -6.4515    -6.3323    -4.4459  C.ar    1  <O>11      -0.0610
  18 C13      -5.7340    -6.7970    -3.3493  C.ar    1  <O>11      -0.0611
  19 C14      -4.5208    -7.4607    -3.5433  C.ar    1  <O>11      -0.0521
  20 C15      -4.0088    -7.6782    -4.8421  C.ar    1  <O>11       0.0106
  21 C16       0.4636    -9.2913    -4.1600  C.ar    1  <O>11      -0.0442
  22 H1        2.9041   -10.6687    -2.7201  H       1  <O>11       0.2954
  23 H2       -1.4979    -7.8410    -3.4360  H       1  <O>11       0.0377
  24 H3       -2.5678    -9.2370    -3.1609  H       1  <O>11       0.0377
  25 H4       -2.6928    -8.2869    -8.3614  H       1  <O>11       0.1921
  26 H5        1.8739   -12.0113    -5.5368  H       1  <O>11       0.0626
  27 H6       -0.4644   -12.5978    -5.8593  H       1  <O>11       0.0618
  28 H7       -2.2155   -11.0882    -5.1063  H       1  <O>11       0.0620
  29 H8       -6.4938    -6.1802    -6.5442  H       1  <O>11       0.0625
  30 H9       -7.3479    -5.8405    -4.3061  H       1  <O>11       0.0618
  31 H10      -6.0973    -6.6518    -2.3944  H       1  <O>11       0.0618
  32 H11      -3.9898    -7.7978    -2.7251  H       1  <O>11       0.0624
  33 H12       0.7134    -8.4037    -3.6966  H       1  <O>11       0.0628
@<TRIPOS>BOND
     1     1     2    2
     2     2     3    1
     3     2     4    1
     4     4     5   ar
     5     5     6   ar
     6     6     7   ar
     7     7     8   ar
     8     8     9    1
     9     9    10    1
    10    10    11   ar
    11    11    12   ar
    12    12    13   ar
    13    13    14    2
    14    13    15   ar
    15    15    16   ar
    16    16    17   ar
    17    17    18   ar
    18    18    19   ar
    19    19    20   ar
    20    10    20   ar
    21    15    20   ar
    22     8    21   ar
    23     4    21   ar
    24     3    22    1
    25     9    23    1
    26     9    24    1
    27    12    25    1
    28     5    26    1
    29     6    27    1
    30     7    28    1
    31    16    29    1
    32    17    30    1
    33    18    31    1
    34    19    32    1
    35    21    33    1
@<TRIPOS>MOLECULE
mol9_1_6
 33 35 0 0 0
SMALL
USER_CHARGES
****
VDW energy = 2.10
@<TRIPOS>ATOM
   1 O1        3.4420    -9.1855    -5.2979  O.2     1  <O>11      -0.2451
   2 C1        2.8552    -9.8129    -4.4288  C.2     1  <O>11       0.3368
   3 O2        3.5096   -10.1823    -3.3012  O.3     1  <O>11      -0.4771
   4 C2        1.4620   -10.1610    -4.6040  C.ar    1  <O>11       0.0591
   5 C3        1.0134   -11.4175    -4.1926  C.ar    1  <O>11      -0.0478
   6 C4       -0.3305   -11.7649    -4.3706  C.ar    1  <O>11      -0.0607
   7 C5       -1.2205   -10.8590    -4.9532  C.ar    1  <O>11      -0.0582
   8 C6       -0.7568    -9.6008    -5.3553  C.ar    1  <O>11      -0.0407
   9 C7       -1.7015    -8.6473    -5.9690  C.3     1  <O>11       0.0171
  10 C8       -2.7968    -8.3487    -5.0095  C.ar    1  <O>11       0.0736
  11 N1       -3.9540    -9.1339    -5.0072  N.ar    1  <O>11      -0.1750
  12 N2       -5.0020    -8.8118    -4.2134  N.ar    1  <O>11      -0.2425
  13 C9       -4.9105    -7.7243    -3.4107  C.ar    1  <O>11       0.2725
  14 O3       -6.0691    -7.3876    -2.6826  O.2     1  <O>11      -0.2658
  15 C10      -3.7511    -6.9475    -3.2795  C.ar    1  <O>11       0.0496
  16 C11      -3.6332    -5.8458    -2.3991  C.ar    1  <O>11      -0.0487
  17 C12      -2.4596    -5.0944    -2.3416  C.ar    1  <O>11      -0.0610
  18 C13      -1.3858    -5.4216    -3.1621  C.ar    1  <O>11      -0.0611
  19 C14      -1.4873    -6.5012    -4.0420  C.ar    1  <O>11      -0.0521
  20 C15      -2.6654    -7.2783    -4.1089  C.ar    1  <O>11       0.0106
  21 C16       0.5801    -9.2441    -5.1802  C.ar    1  <O>11      -0.0442
  22 H1        2.9041   -10.6687    -2.7201  H       1  <O>11       0.2954
  23 H2       -2.1212    -9.0830    -6.8759  H       1  <O>11       0.0377
  24 H3       -1.1758    -7.7254    -6.2186  H       1  <O>11       0.0377
  25 H4       -5.8400    -9.3754    -4.2191  H       1  <O>11       0.1921
  26 H5        1.6693   -12.0865    -3.7596  H       1  <O>11       0.0626
  27 H6       -0.6655   -12.6936    -4.0704  H       1  <O>11       0.0618
  28 H7       -2.2113   -11.1153    -5.0861  H       1  <O>11       0.0620
  29 H8       -4.4277    -5.5946    -1.7903  H       1  <O>11       0.0625
  30 H9       -2.3883    -4.2965    -1.6910  H       1  <O>11       0.0618
  31 H10      -0.5159    -4.8679    -3.1209  H       1  <O>11       0.0618
  32 H11      -0.6892    -6.7352    -4.6529  H       1  <O>11       0.0624
  33 H12       0.9141    -8.3127    -5.4733  H       1  <O>11       0.0628
@<TRIPOS>BOND
     1     1     2    2
     2     2     3    1
     3     2     4    1
     4     4     5   ar
     5     5     6   ar
     6     6     7   ar
     7     7     8   ar
     8     8     9    1
     9     9    10    1
    10    10    11   ar
    11    11    12   ar
    12    12    13   ar
    13    13    14    2
    14    13    15   ar
    15    15    16   ar
    16    16    17   ar
    17    17    18   ar
    18    18    19   ar
    19    19    20   ar
    20    10    20   ar
    21    15    20   ar
    22     8    21   ar
    23     4    21   ar
    24     3    22    1
    25     9    23    1
    26     9    24    1
    27    12    25    1
    28     5    26    1
    29     6    27    1
    30     7    28    1
    31    16    29    1
    32    17    30    1
    33    18    31    1
    34    19    32    1
    35    21    33    1
@<TRIPOS>MOLECULE
mol9_1_7
 33 35 0 0 0
SMALL
USER_CHARGES
****
VDW energy = 2.25
@<TRIPOS>ATOM
   1 O1        3.4420    -9.1855    -5.2979  O.2     1  <O>11      -0.2451
   2 C1        2.8552    -9.8129    -4.4288  C.2     1  <O>11       0.3368
   3 O2        3.5096   -10.1823    -3.3012  O.3     1  <O>11      -0.4771
   4 C2        1.4620   -10.1610    -4.6040  C.ar    1  <O>11       0.0591
   5 C3        0.5946   -10.0837    -3.5126  C.ar    1  <O>11      -0.0478
   6 C4       -0.7516   -10.4309    -3.6727  C.ar    1  <O>11      -0.0607
   7 C5       -1.2274   -10.8492    -4.9180  C.ar    1  <O>11      -0.0582
   8 C6       -0.3466   -10.9160    -6.0041  C.ar    1  <O>11      -0.0407
   9 C7       -0.8548   -11.3572    -7.3177  C.3     1  <O>11       0.0171
  10 C8       -1.9288   -10.4339    -7.7685  C.ar    1  <O>11       0.0736
  11 N1       -3.2598   -10.6942    -7.4272  N.ar    1  <O>11      -0.1750
  12 N2       -4.2587    -9.9229    -7.9166  N.ar    1  <O>11      -0.2425
  13 C9       -3.9509    -8.8862    -8.7326  C.ar    1  <O>11       0.2725
  14 O3       -5.0401    -8.1829    -9.2849  O.2     1  <O>11      -0.2658
  15 C10      -2.6394    -8.4980    -9.0392  C.ar    1  <O>11       0.0496
  16 C11      -2.3134    -7.3807    -9.8442  C.ar    1  <O>11      -0.0487
  17 C12      -0.9859    -7.0690   -10.1371  C.ar    1  <O>11      -0.0610
  18 C13       0.0394    -7.8655    -9.6397  C.ar    1  <O>11      -0.0611
  19 C14      -0.2644    -8.9761    -8.8495  C.ar    1  <O>11      -0.0521
  20 C15      -1.6027    -9.3032    -8.5362  C.ar    1  <O>11       0.0106
  21 C16       0.9963   -10.5699    -5.8555  C.ar    1  <O>11      -0.0442
  22 H1        2.9041   -10.6687    -2.7201  H       1  <O>11       0.2954
  23 H2       -1.2557   -12.3674    -7.2324  H       1  <O>11       0.0377
  24 H3       -0.0409   -11.3495    -8.0429  H       1  <O>11       0.0377
  25 H4       -5.2199   -10.1175    -7.6755  H       1  <O>11       0.1921
  26 H5        0.9443    -9.7723    -2.5929  H       1  <O>11       0.0626
  27 H6       -1.3953   -10.3778    -2.8679  H       1  <O>11       0.0618
  28 H7       -2.2197   -11.1068    -5.0362  H       1  <O>11       0.0620
  29 H8       -3.0695    -6.7875   -10.2203  H       1  <O>11       0.0625
  30 H9       -0.7650    -6.2481   -10.7222  H       1  <O>11       0.0618
  31 H10       1.0226    -7.6366    -9.8541  H       1  <O>11       0.0618
  32 H11       0.5007    -9.5671    -8.4885  H       1  <O>11       0.0624
  33 H12       1.6389   -10.6156    -6.6617  H       1  <O>11       0.0628
@<TRIPOS>BOND
     1     1     2    2
     2     2     3    1
     3     2     4    1
     4     4     5   ar
     5     5     6   ar
     6     6     7   ar
     7     7     8   ar
     8     8     9    1
     9     9    10    1
    10    10    11   ar
    11    11    12   ar
    12    12    13   ar
    13    13    14    2
    14    13    15   ar
    15    15    16   ar
    16    16    17   ar
    17    17    18   ar
    18    18    19   ar
    19    19    20   ar
    20    10    20   ar
    21    15    20   ar
    22     8    21   ar
    23     4    21   ar
    24     3    22    1
    25     9    23    1
    26     9    24    1
    27    12    25    1
    28     5    26    1
    29     6    27    1
    30     7    28    1
    31    16    29    1
    32    17    30    1
    33    18    31    1
    34    19    32    1
    35    21    33    1
@<TRIPOS>MOLECULE
mol9_1_8
 33 35 0 0 0
SMALL
USER_CHARGES
****
VDW energy = 3.63
@<TRIPOS>ATOM
   1 O1        3.4420    -9.1855    -5.2979  O.2     1  <O>11      -0.2451
   2 C1        2.8552    -9.8129    -4.4288  C.2     1  <O>11       0.3368
   3 O2        3.5096   -10.1823    -3.3012  O.3     1  <O>11      -0.4771
   4 C2        1.4620   -10.1610    -4.6040  C.ar    1  <O>11       0.0591
   5 C3        0.4750    -9.2817    -4.1546  C.ar    1  <O>11      -0.0478
   6 C4       -0.8745    -9.6183    -4.3101  C.ar    1  <O>11      -0.0607
   7 C5       -1.2337   -10.8255    -4.9148  C.ar    1  <O>11      -0.0582
   8 C6       -0.2326   -11.6941    -5.3653  C.ar    1  <O>11      -0.0407
   9 C7       -0.6176   -12.9674    -6.0045  C.3     1  <O>11       0.0171
  10 C8       -0.7324   -14.0268    -4.9682  C.ar    1  <O>11       0.0736
  11 N1        0.3843   -14.8004    -4.6364  N.ar    1  <O>11      -0.1750
  12 N2        0.2712   -15.8362    -3.7724  N.ar    1  <O>11      -0.2425
  13 C9       -0.9372   -16.1064    -3.2227  C.ar    1  <O>11       0.2725
  14 O3       -1.0090   -17.2542    -2.4083  O.2     1  <O>11      -0.2658
  15 C10      -2.0789   -15.3185    -3.4237  C.ar    1  <O>11       0.0496
  16 C11      -3.3280   -15.5644    -2.8055  C.ar    1  <O>11      -0.0487
  17 C12      -4.4341   -14.7588    -3.0752  C.ar    1  <O>11      -0.0610
  18 C13      -4.3191   -13.6991    -3.9680  C.ar    1  <O>11      -0.0611
  19 C14      -3.0959   -13.4463    -4.5925  C.ar    1  <O>11      -0.0521
  20 C15      -1.9627   -14.2471    -4.3263  C.ar    1  <O>11       0.0106
  21 C16       1.1151   -11.3668    -5.2172  C.ar    1  <O>11      -0.0442
  22 H1        2.9041   -10.6687    -2.7201  H       1  <O>11       0.2954
  23 H2        0.1408   -13.2528    -6.7339  H       1  <O>11       0.0377
  24 H3       -1.5772   -12.8455    -6.5073  H       1  <O>11       0.0377
  25 H4        1.0771   -16.3987    -3.5402  H       1  <O>11       0.1921
  26 H5        0.7391    -8.3884    -3.7103  H       1  <O>11       0.0626
  27 H6       -1.6070    -8.9723    -3.9769  H       1  <O>11       0.0618
  28 H7       -2.2287   -11.0748    -5.0282  H       1  <O>11       0.0620
  29 H8       -3.4218   -16.3518    -2.1450  H       1  <O>11       0.0625
  30 H9       -5.3368   -14.9490    -2.6127  H       1  <O>11       0.0618
  31 H10      -5.1357   -13.1009    -4.1686  H       1  <O>11       0.0618
  32 H11      -3.0184   -12.6622    -5.2590  H       1  <O>11       0.0624
  33 H12       1.8481   -12.0089    -5.5570  H       1  <O>11       0.0628
@<TRIPOS>BOND
     1     1     2    2
     2     2     3    1
     3     2     4    1
     4     4     5   ar
     5     5     6   ar
     6     6     7   ar
     7     7     8   ar
     8     8     9    1
     9     9    10    1
    10    10    11   ar
    11    11    12   ar
    12    12    13   ar
    13    13    14    2
    14    13    15   ar
    15    15    16   ar
    16    16    17   ar
    17    17    18   ar
    18    18    19   ar
    19    19    20   ar
    20    10    20   ar
    21    15    20   ar
    22     8    21   ar
    23     4    21   ar
    24     3    22    1
    25     9    23    1
    26     9    24    1
    27    12    25    1
    28     5    26    1
    29     6    27    1
    30     7    28    1
    31    16    29    1
    32    17    30    1
    33    18    31    1
    34    19    32    1
    35    21    33    1
@<TRIPOS>MOLECULE
mol9_1_9
 33 35 0 0 0
SMALL
USER_CHARGES
****
VDW energy = 4.36
@<TRIPOS>ATOM
   1 O1        3.4420    -9.1855    -5.2979  O.2     1  <O>11      -0.2451
   2 C1        2.8552    -9.8129    -4.4288  C.2     1  <O>11       0.3368
   3 O2        3.5096   -10.1823    -3.3012  O.3     1  <O>11      -0.4771
   4 C2        1.4620   -10.1610    -4.6040  C.ar    1  <O>11       0.0591
   5 C3        1.1306   -11.3698    -5.2192  C.ar    1  <O>11      -0.0478
   6 C4       -0.2153   -11.7066    -5.4026  C.ar    1  <O>11      -0.0607
   7 C5       -1.2229   -10.8409    -4.9699  C.ar    1  <O>11      -0.0582
   8 C6       -0.8747    -9.6351    -4.3496  C.ar    1  <O>11      -0.0407
   9 C7       -1.9432    -8.7250    -3.8932  C.3     1  <O>11       0.0171
  10 C8       -2.7754    -8.3165    -5.0550  C.ar    1  <O>11       0.0736
  11 N1       -4.1425    -8.6109    -5.0702  N.ar    1  <O>11      -0.1750
  12 N2       -4.8922    -8.3396    -6.1641  N.ar    1  <O>11      -0.2425
  13 C9       -4.3027    -7.7668    -7.2410  C.ar    1  <O>11       0.2725
  14 O3       -5.1147    -7.5993    -8.3806  O.2     1  <O>11      -0.2658
  15 C10      -2.9652    -7.3485    -7.2673  C.ar    1  <O>11       0.0496
  16 C11      -2.3619    -6.6975    -8.3696  C.ar    1  <O>11      -0.0487
  17 C12      -1.0150    -6.3366    -8.3417  C.ar    1  <O>11      -0.0610
  18 C13      -0.2437    -6.6216    -7.2205  C.ar    1  <O>11      -0.0611
  19 C14      -0.8209    -7.2698    -6.1265  C.ar    1  <O>11      -0.0521
  20 C15      -2.1853    -7.6366    -6.1337  C.ar    1  <O>11       0.0106
  21 C16       0.4636    -9.2913    -4.1600  C.ar    1  <O>11      -0.0442
  22 H1        2.9041   -10.6687    -2.7201  H       1  <O>11       0.2954
  23 H2       -1.4979    -7.8410    -3.4360  H       1  <O>11       0.0377
  24 H3       -2.5678    -9.2370    -3.1609  H       1  <O>11       0.0377
  25 H4       -5.8776    -8.5604    -6.1762  H       1  <O>11       0.1921
  26 H5        1.8739   -12.0113    -5.5368  H       1  <O>11       0.0626
  27 H6       -0.4644   -12.5978    -5.8593  H       1  <O>11       0.0618
  28 H7       -2.2155   -11.0882    -5.1063  H       1  <O>11       0.0620
  29 H8       -2.9273    -6.4867    -9.2068  H       1  <O>11       0.0625
  30 H9       -0.5914    -5.8586    -9.1523  H       1  <O>11       0.0618
  31 H10       0.7529    -6.3548    -7.1969  H       1  <O>11       0.0618
  32 H11      -0.2417    -7.4843    -5.2998  H       1  <O>11       0.0624
  33 H12       0.7134    -8.4037    -3.6966  H       1  <O>11       0.0628
@<TRIPOS>BOND
     1     1     2    2
     2     2     3    1
     3     2     4    1
     4     4     5   ar
     5     5     6   ar
     6     6     7   ar
     7     7     8   ar
     8     8     9    1
     9     9    10    1
    10    10    11   ar
    11    11    12   ar
    12    12    13   ar
    13    13    14    2
    14    13    15   ar
    15    15    16   ar
    16    16    17   ar
    17    17    18   ar
    18    18    19   ar
    19    19    20   ar
    20    10    20   ar
    21    15    20   ar
    22     8    21   ar
    23     4    21   ar
    24     3    22    1
    25     9    23    1
    26     9    24    1
    27    12    25    1
    28     5    26    1
    29     6    27    1
    30     7    28    1
    31    16    29    1
    32    17    30    1
    33    18    31    1
    34    19    32    1
    35    21    33    1
@<TRIPOS>MOLECULE
mol9_1_10
 33 35 0 0 0
SMALL
USER_CHARGES
****
VDW energy = 4.47
@<TRIPOS>ATOM
   1 O1        3.4420    -9.1855    -5.2979  O.2     1  <O>11      -0.2451
   2 C1        2.8552    -9.8129    -4.4288  C.2     1  <O>11       0.3368
   3 O2        3.5096   -10.1823    -3.3012  O.3     1  <O>11      -0.4771
   4 C2        1.4620   -10.1610    -4.6040  C.ar    1  <O>11       0.0591
   5 C3        1.1306   -11.3698    -5.2192  C.ar    1  <O>11      -0.0478
   6 C4       -0.2153   -11.7066    -5.4026  C.ar    1  <O>11      -0.0607
   7 C5       -1.2229   -10.8409    -4.9699  C.ar    1  <O>11      -0.0582
   8 C6       -0.8747    -9.6351    -4.3496  C.ar    1  <O>11      -0.0407
   9 C7       -1.9432    -8.7250    -3.8932  C.3     1  <O>11       0.0171
  10 C8       -2.7945    -9.4225    -2.8942  C.ar    1  <O>11       0.0736
  11 N1       -2.6877   -10.8078    -2.7342  N.ar    1  <O>11      -0.1750
  12 N2       -3.5275   -11.4710    -1.9054  N.ar    1  <O>11      -0.2425
  13 C9       -4.4661   -10.7728    -1.2221  C.ar    1  <O>11       0.2725
  14 O3       -5.3700   -11.5318    -0.4521  O.2     1  <O>11      -0.2658
  15 C10      -4.5713    -9.3753    -1.2487  C.ar    1  <O>11       0.0496
  16 C11      -5.5131    -8.6389    -0.4915  C.ar    1  <O>11      -0.0487
  17 C12      -5.5855    -7.2495    -0.5899  C.ar    1  <O>11      -0.0610
  18 C13      -4.7272    -6.5693    -1.4465  C.ar    1  <O>11      -0.0611
  19 C14      -3.7964    -7.2807    -2.2066  C.ar    1  <O>11      -0.0521
  20 C15      -3.7035    -8.6876    -2.1148  C.ar    1  <O>11       0.0106
  21 C16       0.4636    -9.2913    -4.1600  C.ar    1  <O>11      -0.0442
  22 H1        2.9041   -10.6687    -2.7201  H       1  <O>11       0.2954
  23 H2       -2.5538    -8.4242    -4.7448  H       1  <O>11       0.0377
  24 H3       -1.4967    -7.8415    -3.4364  H       1  <O>11       0.0377
  25 H4       -3.4541   -12.4724    -1.7974  H       1  <O>11       0.1921
  26 H5        1.8739   -12.0113    -5.5368  H       1  <O>11       0.0626
  27 H6       -0.4644   -12.5978    -5.8593  H       1  <O>11       0.0618
  28 H7       -2.2155   -11.0882    -5.1063  H       1  <O>11       0.0620
  29 H8       -6.1562    -9.1375     0.1432  H       1  <O>11       0.0625
  30 H9       -6.2752    -6.7270    -0.0275  H       1  <O>11       0.0618
  31 H10      -4.7779    -5.5413    -1.5206  H       1  <O>11       0.0618
  32 H11      -3.1663    -6.7708    -2.8454  H       1  <O>11       0.0624
  33 H12       0.7134    -8.4037    -3.6966  H       1  <O>11       0.0628
@<TRIPOS>BOND
     1     1     2    2
     2     2     3    1
     3     2     4    1
     4     4     5   ar
     5     5     6   ar
     6     6     7   ar
     7     7     8   ar
     8     8     9    1
     9     9    10    1
    10    10    11   ar
    11    11    12   ar
    12    12    13   ar
    13    13    14    2
    14    13    15   ar
    15    15    16   ar
    16    16    17   ar
    17    17    18   ar
    18    18    19   ar
    19    19    20   ar
    20    10    20   ar
    21    15    20   ar
    22     8    21   ar
    23     4    21   ar
    24     3    22    1
    25     9    23    1
    26     9    24    1
    27    12    25    1
    28     5    26    1
    29     6    27    1
    30     7    28    1
    31    16    29    1
    32    17    30    1
    33    18    31    1
    34    19    32    1
    35    21    33    1
@<TRIPOS>MOLECULE
mol9_1_11
 33 35 0 0 0
SMALL
USER_CHARGES
****
VDW energy = 4.95
@<TRIPOS>ATOM
   1 O1        3.4420    -9.1855    -5.2979  O.2     1  <O>11      -0.2451
   2 C1        2.8552    -9.8129    -4.4288  C.2     1  <O>11       0.3368
   3 O2        3.5096   -10.1823    -3.3012  O.3     1  <O>11      -0.4771
   4 C2        1.4620   -10.1610    -4.6040  C.ar    1  <O>11       0.0591
   5 C3        0.4750    -9.2817    -4.1546  C.ar    1  <O>11      -0.0478
   6 C4       -0.8745    -9.6183    -4.3101  C.ar    1  <O>11      -0.0607
   7 C5       -1.2337   -10.8255    -4.9148  C.ar    1  <O>11      -0.0582
   8 C6       -0.2326   -11.6941    -5.3653  C.ar    1  <O>11      -0.0407
   9 C7       -0.6176   -12.9674    -6.0045  C.3     1  <O>11       0.0171
  10 C8        0.5785   -13.5881    -6.6317  C.ar    1  <O>11       0.0736
  11 N1        1.3748   -14.4685    -5.8923  N.ar    1  <O>11      -0.1750
  12 N2        2.5234   -14.9597    -6.4136  N.ar    1  <O>11      -0.2425
  13 C9        2.8858   -14.5968    -7.6675  C.ar    1  <O>11       0.2725
  14 O3        4.1377   -15.0644    -8.1146  O.2     1  <O>11      -0.2658
  15 C10       2.0941   -13.8030    -8.5089  C.ar    1  <O>11       0.0496
  16 C11       2.4426   -13.4698    -9.8394  C.ar    1  <O>11      -0.0487
  17 C12       1.6233   -12.6472   -10.6122  C.ar    1  <O>11      -0.0610
  18 C13       0.4470   -12.1374   -10.0741  C.ar    1  <O>11      -0.0611
  19 C14       0.0911   -12.4502    -8.7604  C.ar    1  <O>11      -0.0521
  20 C15       0.9048   -13.2876    -7.9649  C.ar    1  <O>11       0.0106
  21 C16       1.1151   -11.3668    -5.2172  C.ar    1  <O>11      -0.0442
  22 H1        2.9041   -10.6687    -2.7201  H       1  <O>11       0.2954
  23 H2       -1.3719   -12.7779    -6.7686  H       1  <O>11       0.0377
  24 H3       -1.0249   -13.6428    -5.2518  H       1  <O>11       0.0377
  25 H4        3.1012   -15.5889    -5.8750  H       1  <O>11       0.1921
  26 H5        0.7391    -8.3884    -3.7103  H       1  <O>11       0.0626
  27 H6       -1.6070    -8.9723    -3.9769  H       1  <O>11       0.0618
  28 H7       -2.2287   -11.0748    -5.0282  H       1  <O>11       0.0620
  29 H8        3.3164   -13.8411   -10.2440  H       1  <O>11       0.0625
  30 H9        1.8898   -12.4173   -11.5824  H       1  <O>11       0.0618
  31 H10      -0.1616   -11.5293   -10.6440  H       1  <O>11       0.0618
  32 H11      -0.7800   -12.0636    -8.3645  H       1  <O>11       0.0624
  33 H12       1.8481   -12.0089    -5.5570  H       1  <O>11       0.0628
@<TRIPOS>BOND
     1     1     2    2
     2     2     3    1
     3     2     4    1
     4     4     5   ar
     5     5     6   ar
     6     6     7   ar
     7     7     8   ar
     8     8     9    1
     9     9    10    1
    10    10    11   ar
    11    11    12   ar
    12    12    13   ar
    13    13    14    2
    14    13    15   ar
    15    15    16   ar
    16    16    17   ar
    17    17    18   ar
    18    18    19   ar
    19    19    20   ar
    20    10    20   ar
    21    15    20   ar
    22     8    21   ar
    23     4    21   ar
    24     3    22    1
    25     9    23    1
    26     9    24    1
    27    12    25    1
    28     5    26    1
    29     6    27    1
    30     7    28    1
    31    16    29    1
    32    17    30    1
    33    18    31    1
    34    19    32    1
    35    21    33    1
@<TRIPOS>MOLECULE
mol9_1_12
 33 35 0 0 0
SMALL
USER_CHARGES
****
VDW energy = 6.65
@<TRIPOS>ATOM
   1 O1        3.4420    -9.1855    -5.2979  O.2     1  <O>11      -0.2451
   2 C1        2.8552    -9.8129    -4.4288  C.2     1  <O>11       0.3368
   3 O2        3.5096   -10.1823    -3.3012  O.3     1  <O>11      -0.4771
   4 C2        1.4620   -10.1610    -4.6040  C.ar    1  <O>11       0.0591
   5 C3        0.8523    -9.9431    -5.8410  C.ar    1  <O>11      -0.0478
   6 C4       -0.4984   -10.2663    -6.0132  C.ar    1  <O>11      -0.0607
   7 C5       -1.2331   -10.8075    -4.9552  C.ar    1  <O>11      -0.0582
   8 C6       -0.6062   -11.0255    -3.7226  C.ar    1  <O>11      -0.0407
   9 C7       -1.3866   -11.5987    -2.6088  C.3     1  <O>11       0.0171
  10 C8       -1.2879   -13.0813    -2.6467  C.ar    1  <O>11       0.0736
  11 N1       -0.7727   -13.7163    -3.7813  N.ar    1  <O>11      -0.1750
  12 N2       -0.7732   -15.0667    -3.8734  N.ar    1  <O>11      -0.2425
  13 C9       -1.2686   -15.7968    -2.8453  C.ar    1  <O>11       0.2725
  14 O3       -1.3296   -17.1907    -3.0432  O.2     1  <O>11      -0.2658
  15 C10      -1.7075   -15.2419    -1.6353  C.ar    1  <O>11       0.0496
  16 C11      -2.1713   -16.0053    -0.5377  C.ar    1  <O>11      -0.0487
  17 C12      -2.6249   -15.3869     0.6272  C.ar    1  <O>11      -0.0610
  18 C13      -2.6305   -13.9995     0.7187  C.ar    1  <O>11      -0.0611
  19 C14      -2.1829   -13.2303    -0.3574  C.ar    1  <O>11      -0.0521
  20 C15      -1.7131   -13.8392    -1.5427  C.ar    1  <O>11       0.0106
  21 C16       0.7400   -10.7089    -3.5415  C.ar    1  <O>11      -0.0442
  22 H1        2.9041   -10.6687    -2.7201  H       1  <O>11       0.2954
  23 H2       -2.4310   -11.3011    -2.7049  H       1  <O>11       0.0377
  24 H3       -0.9903   -11.2323    -1.6617  H       1  <O>11       0.0377
  25 H4       -0.4082   -15.5231    -4.6970  H       1  <O>11       0.1921
  26 H5        1.3947    -9.5459    -6.6240  H       1  <O>11       0.0626
  27 H6       -0.9534   -10.1042    -6.9251  H       1  <O>11       0.0618
  28 H7       -2.2296   -11.0446    -5.0813  H       1  <O>11       0.0620
  29 H8       -2.1740   -17.0355    -0.6002  H       1  <O>11       0.0625
  30 H9       -2.9559   -15.9583     1.4202  H       1  <O>11       0.0618
  31 H10      -2.9647   -13.5393     1.5798  H       1  <O>11       0.0618
  32 H11      -2.1955   -12.2009    -0.2859  H       1  <O>11       0.0624
  33 H12       1.1977   -10.8778    -2.6321  H       1  <O>11       0.0628
@<TRIPOS>BOND
     1     1     2    2
     2     2     3    1
     3     2     4    1
     4     4     5   ar
     5     5     6   ar
     6     6     7   ar
     7     7     8   ar
     8     8     9    1
     9     9    10    1
    10    10    11   ar
    11    11    12   ar
    12    12    13   ar
    13    13    14    2
    14    13    15   ar
    15    15    16   ar
    16    16    17   ar
    17    17    18   ar
    18    18    19   ar
    19    19    20   ar
    20    10    20   ar
    21    15    20   ar
    22     8    21   ar
    23     4    21   ar
    24     3    22    1
    25     9    23    1
    26     9    24    1
    27    12    25    1
    28     5    26    1
    29     6    27    1
    30     7    28    1
    31    16    29    1
    32    17    30    1
    33    18    31    1
    34    19    32    1
    35    21    33    1
@<TRIPOS>MOLECULE
mol9_1_13
 33 35 0 0 0
SMALL
USER_CHARGES
****
VDW energy = 6.85
@<TRIPOS>ATOM
   1 O1        3.4420    -9.1855    -5.2979  O.2     1  <O>11      -0.2451
   2 C1        2.8552    -9.8129    -4.4288  C.2     1  <O>11       0.3368
   3 O2        3.5096   -10.1823    -3.3012  O.3     1  <O>11      -0.4771
   4 C2        1.4620   -10.1610    -4.6040  C.ar    1  <O>11       0.0591
   5 C3        0.5946   -10.0837    -3.5126  C.ar    1  <O>11      -0.0478
   6 C4       -0.7516   -10.4309    -3.6727  C.ar    1  <O>11      -0.0607
   7 C5       -1.2274   -10.8492    -4.9180  C.ar    1  <O>11      -0.0582
   8 C6       -0.3466   -10.9160    -6.0041  C.ar    1  <O>11      -0.0407
   9 C7       -0.8548   -11.3572    -7.3177  C.3     1  <O>11       0.0171
  10 C8       -1.4019   -12.7342    -7.1997  C.ar    1  <O>11       0.0736
  11 N1       -2.7458   -12.9779    -7.5006  N.ar    1  <O>11      -0.1750
  12 N2       -3.2845   -14.2030    -7.2983  N.ar    1  <O>11      -0.2425
  13 C9       -2.5007   -15.1950    -6.8116  C.ar    1  <O>11       0.2725
  14 O3       -3.1438   -16.4176    -6.5327  O.2     1  <O>11      -0.2658
  15 C10      -1.1246   -15.0599    -6.5822  C.ar    1  <O>11       0.0496
  16 C11      -0.2918   -16.1105    -6.1288  C.ar    1  <O>11      -0.0487
  17 C12       1.0658   -15.8988    -5.8894  C.ar    1  <O>11      -0.0610
  18 C13       1.6173   -14.6385    -6.0908  C.ar    1  <O>11      -0.0611
  19 C14       0.8088   -13.5885    -6.5312  C.ar    1  <O>11      -0.0521
  20 C15      -0.5669   -13.7857    -6.7859  C.ar    1  <O>11       0.0106
  21 C16       0.9963   -10.5699    -5.8555  C.ar    1  <O>11      -0.0442
  22 H1        2.9041   -10.6687    -2.7201  H       1  <O>11       0.2954
  23 H2       -0.0418   -11.3498    -8.0439  H       1  <O>11       0.0377
  24 H3       -1.6429   -10.6802    -7.6479  H       1  <O>11       0.0377
  25 H4       -4.2572   -14.3748    -7.5086  H       1  <O>11       0.1921
  26 H5        0.9443    -9.7723    -2.5929  H       1  <O>11       0.0626
  27 H6       -1.3953   -10.3778    -2.8679  H       1  <O>11       0.0618
  28 H7       -2.2197   -11.1068    -5.0362  H       1  <O>11       0.0620
  29 H8       -0.6952   -17.0475    -5.9731  H       1  <O>11       0.0625
  30 H9        1.6602   -16.6768    -5.5631  H       1  <O>11       0.0618
  31 H10       2.6218   -14.4794    -5.9154  H       1  <O>11       0.0618
  32 H11       1.2226   -12.6538    -6.6728  H       1  <O>11       0.0624
  33 H12       1.6389   -10.6156    -6.6617  H       1  <O>11       0.0628
@<TRIPOS>BOND
     1     1     2    2
     2     2     3    1
     3     2     4    1
     4     4     5   ar
     5     5     6   ar
     6     6     7   ar
     7     7     8   ar
     8     8     9    1
     9     9    10    1
    10    10    11   ar
    11    11    12   ar
    12    12    13   ar
    13    13    14    2
    14    13    15   ar
    15    15    16   ar
    16    16    17   ar
    17    17    18   ar
    18    18    19   ar
    19    19    20   ar
    20    10    20   ar
    21    15    20   ar
    22     8    21   ar
    23     4    21   ar
    24     3    22    1
    25     9    23    1
    26     9    24    1
    27    12    25    1
    28     5    26    1
    29     6    27    1
    30     7    28    1
    31    16    29    1
    32    17    30    1
    33    18    31    1
    34    19    32    1
    35    21    33    1
@<TRIPOS>MOLECULE
mol9_1_14
 33 35 0 0 0
SMALL
USER_CHARGES
****
VDW energy = 7.26
@<TRIPOS>ATOM
   1 O1        3.4420    -9.1855    -5.2979  O.2     1  <O>11      -0.2451
   2 C1        2.8552    -9.8129    -4.4288  C.2     1  <O>11       0.3368
   3 O2        3.5096   -10.1823    -3.3012  O.3     1  <O>11      -0.4771
   4 C2        1.4620   -10.1610    -4.6040  C.ar    1  <O>11       0.0591
   5 C3        1.0134   -11.4175    -4.1926  C.ar    1  <O>11      -0.0478
   6 C4       -0.3305   -11.7649    -4.3706  C.ar    1  <O>11      -0.0607
   7 C5       -1.2205   -10.8590    -4.9532  C.ar    1  <O>11      -0.0582
   8 C6       -0.7568    -9.6008    -5.3553  C.ar    1  <O>11      -0.0407
   9 C7       -1.7015    -8.6473    -5.9690  C.3     1  <O>11       0.0171
  10 C8       -2.7968    -8.3487    -5.0095  C.ar    1  <O>11       0.0736
  11 N1       -2.9607    -9.1432    -3.8704  N.ar    1  <O>11      -0.1750
  12 N2       -4.0143    -8.9499    -3.0430  N.ar    1  <O>11      -0.2425
  13 C9       -4.9026    -7.9670    -3.3262  C.ar    1  <O>11       0.2725
  14 O3       -6.0271    -7.8805    -2.4813  O.2     1  <O>11      -0.2658
  15 C10      -4.7540    -7.0641    -4.3880  C.ar    1  <O>11       0.0496
  16 C11      -5.6492    -6.0003    -4.6523  C.ar    1  <O>11      -0.0487
  17 C12      -5.4598    -5.1571    -5.7469  C.ar    1  <O>11      -0.0610
  18 C13      -4.3812    -5.3602    -6.6004  C.ar    1  <O>11      -0.0611
  19 C14      -3.4919    -6.4095    -6.3588  C.ar    1  <O>11      -0.0521
  20 C15      -3.6635    -7.2694    -5.2509  C.ar    1  <O>11       0.0106
  21 C16       0.5801    -9.2441    -5.1802  C.ar    1  <O>11      -0.0442
  22 H1        2.9041   -10.6687    -2.7201  H       1  <O>11       0.2954
  23 H2       -2.1212    -9.0830    -6.8759  H       1  <O>11       0.0377
  24 H3       -1.1758    -7.7254    -6.2186  H       1  <O>11       0.0377
  25 H4       -4.1355    -9.5301    -2.2253  H       1  <O>11       0.1921
  26 H5        1.6693   -12.0865    -3.7596  H       1  <O>11       0.0626
  27 H6       -0.6655   -12.6936    -4.0704  H       1  <O>11       0.0618
  28 H7       -2.2113   -11.1153    -5.0861  H       1  <O>11       0.0620
  29 H8       -6.4543    -5.8462    -4.0254  H       1  <O>11       0.0625
  30 H9       -6.1194    -4.3832    -5.9231  H       1  <O>11       0.0618
  31 H10      -4.2381    -4.7372    -7.4106  H       1  <O>11       0.0618
  32 H11      -2.6968    -6.5591    -6.9995  H       1  <O>11       0.0624
  33 H12       0.9141    -8.3127    -5.4733  H       1  <O>11       0.0628
@<TRIPOS>BOND
     1     1     2    2
     2     2     3    1
     3     2     4    1
     4     4     5   ar
     5     5     6   ar
     6     6     7   ar
     7     7     8   ar
     8     8     9    1
     9     9    10    1
    10    10    11   ar
    11    11    12   ar
    12    12    13   ar
    13    13    14    2
    14    13    15   ar
    15    15    16   ar
    16    16    17   ar
    17    17    18   ar
    18    18    19   ar
    19    19    20   ar
    20    10    20   ar
    21    15    20   ar
    22     8    21   ar
    23     4    21   ar
    24     3    22    1
    25     9    23    1
    26     9    24    1
    27    12    25    1
    28     5    26    1
    29     6    27    1
    30     7    28    1
    31    16    29    1
    32    17    30    1
    33    18    31    1
    34    19    32    1
    35    21    33    1
@<TRIPOS>MOLECULE
mol9_1_15
 33 35 0 0 0
SMALL
USER_CHARGES
****
VDW energy = 7.40
@<TRIPOS>ATOM
   1 O1        3.4420    -9.1855    -5.2979  O.2     1  <O>11      -0.2451
   2 C1        2.8552    -9.8129    -4.4288  C.2     1  <O>11       0.3368
   3 O2        3.5096   -10.1823    -3.3012  O.3     1  <O>11      -0.4771
   4 C2        1.4620   -10.1610    -4.6040  C.ar    1  <O>11       0.0591
   5 C3        0.8011    -9.7734    -5.7712  C.ar    1  <O>11      -0.0478
   6 C4       -0.5499   -10.0964    -5.9412  C.ar    1  <O>11      -0.0607
   7 C5       -1.2340   -10.8060    -4.9510  C.ar    1  <O>11      -0.0582
   8 C6       -0.5561   -11.1926    -3.7888  C.ar    1  <O>11      -0.0407
   9 C7       -1.2833   -11.9431    -2.7466  C.3     1  <O>11       0.0171
  10 C8       -1.7931   -13.2168    -3.3185  C.ar    1  <O>11       0.0736
  11 N1       -3.0621   -13.2584    -3.9047  N.ar    1  <O>11      -0.1750
  12 N2       -3.5826   -14.4314    -4.3352  N.ar    1  <O>11      -0.2425
  13 C9       -2.8520   -15.5645    -4.2021  C.ar    1  <O>11       0.2725
  14 O3       -3.4877   -16.7641    -4.5800  O.2     1  <O>11      -0.2658
  15 C10      -1.5359   -15.5915    -3.7207  C.ar    1  <O>11       0.0496
  16 C11      -0.7496   -16.7650    -3.6345  C.ar    1  <O>11      -0.0487
  17 C12       0.5440   -16.7265    -3.1145  C.ar    1  <O>11      -0.0610
  18 C13       1.0756   -15.5226    -2.6661  C.ar    1  <O>11      -0.0611
  19 C14       0.3112   -14.3561    -2.7371  C.ar    1  <O>11      -0.0521
  20 C15      -0.9982   -14.3743    -3.2675  C.ar    1  <O>11       0.0106
  21 C16       0.7909   -10.8776    -3.6108  C.ar    1  <O>11      -0.0442
  22 H1        2.9041   -10.6687    -2.7201  H       1  <O>11       0.2954
  23 H2       -2.1206   -11.3459    -2.3849  H       1  <O>11       0.0377
  24 H3       -0.6083   -12.1610    -1.9187  H       1  <O>11       0.0377
  25 H4       -4.5025   -14.4606    -4.7509  H       1  <O>11       0.1921
  26 H5        1.3061    -9.2516    -6.5046  H       1  <O>11       0.0626
  27 H6       -1.0427    -9.8094    -6.8013  H       1  <O>11       0.0618
  28 H7       -2.2307   -11.0431    -5.0753  H       1  <O>11       0.0620
  29 H8       -1.1393   -17.6629    -3.9615  H       1  <O>11       0.0625
  30 H9        1.1058   -17.5906    -3.0625  H       1  <O>11       0.0618
  31 H10       2.0329   -15.4911    -2.2817  H       1  <O>11       0.0618
  32 H11       0.7090   -13.4667    -2.3969  H       1  <O>11       0.0624
  33 H12       1.2863   -11.1709    -2.7543  H       1  <O>11       0.0628
@<TRIPOS>BOND
     1     1     2    2
     2     2     3    1
     3     2     4    1
     4     4     5   ar
     5     5     6   ar
     6     6     7   ar
     7     7     8   ar
     8     8     9    1
     9     9    10    1
    10    10    11   ar
    11    11    12   ar
    12    12    13   ar
    13    13    14    2
    14    13    15   ar
    15    15    16   ar
    16    16    17   ar
    17    17    18   ar
    18    18    19   ar
    19    19    20   ar
    20    10    20   ar
    21    15    20   ar
    22     8    21   ar
    23     4    21   ar
    24     3    22    1
    25     9    23    1
    26     9    24    1
    27    12    25    1
    28     5    26    1
    29     6    27    1
    30     7    28    1
    31    16    29    1
    32    17    30    1
    33    18    31    1
    34    19    32    1
    35    21    33    1
@<TRIPOS>MOLECULE
mol9_1_16
 33 35 0 0 0
SMALL
USER_CHARGES
****
VDW energy = 7.41
@<TRIPOS>ATOM
   1 O1        3.4420    -9.1855    -5.2979  O.2     1  <O>11      -0.2451
   2 C1        2.8552    -9.8129    -4.4288  C.2     1  <O>11       0.3368
   3 O2        3.5096   -10.1823    -3.3012  O.3     1  <O>11      -0.4771
   4 C2        1.4620   -10.1610    -4.6040  C.ar    1  <O>11       0.0591
   5 C3        1.0134   -11.4175    -4.1926  C.ar    1  <O>11      -0.0478
   6 C4       -0.3305   -11.7649    -4.3706  C.ar    1  <O>11      -0.0607
   7 C5       -1.2205   -10.8590    -4.9532  C.ar    1  <O>11      -0.0582
   8 C6       -0.7568    -9.6008    -5.3553  C.ar    1  <O>11      -0.0407
   9 C7       -1.7015    -8.6473    -5.9690  C.3     1  <O>11       0.0171
  10 C8       -0.9848    -7.3906    -6.3102  C.ar    1  <O>11       0.0736
  11 N1       -0.9108    -6.3548    -5.3735  N.ar    1  <O>11      -0.1750
  12 N2       -0.3537    -5.1665    -5.7049  N.ar    1  <O>11      -0.2425
  13 C9        0.1433    -4.9975    -6.9538  C.ar    1  <O>11       0.2725
  14 O3        0.6211    -3.7090    -7.2656  O.2     1  <O>11      -0.2658
  15 C10       0.1998    -6.0163    -7.9149  C.ar    1  <O>11       0.0496
  16 C11       0.7707    -5.8597    -9.2003  C.ar    1  <O>11      -0.0487
  17 C12       0.7646    -6.9068   -10.1216  C.ar    1  <O>11      -0.0610
  18 C13       0.1862    -8.1250    -9.7831  C.ar    1  <O>11      -0.0611
  19 C14      -0.3880    -8.2949    -8.5215  C.ar    1  <O>11      -0.0521
  20 C15      -0.3849    -7.2480    -7.5726  C.ar    1  <O>11       0.0106
  21 C16       0.5801    -9.2441    -5.1802  C.ar    1  <O>11      -0.0442
  22 H1        2.9041   -10.6687    -2.7201  H       1  <O>11       0.2954
  23 H2       -2.5057    -8.4281    -5.2663  H       1  <O>11       0.0377
  24 H3       -2.1206    -9.0842    -6.8756  H       1  <O>11       0.0377
  25 H4       -0.3084    -4.4169    -5.0296  H       1  <O>11       0.1921
  26 H5        1.6693   -12.0865    -3.7596  H       1  <O>11       0.0626
  27 H6       -0.6655   -12.6936    -4.0704  H       1  <O>11       0.0618
  28 H7       -2.2113   -11.1153    -5.0861  H       1  <O>11       0.0620
  29 H8        1.1980    -4.9569    -9.4599  H       1  <O>11       0.0625
  30 H9        1.1890    -6.7775   -11.0534  H       1  <O>11       0.0618
  31 H10       0.1813    -8.9018   -10.4625  H       1  <O>11       0.0618
  32 H11      -0.8214    -9.1994    -8.2784  H       1  <O>11       0.0624
  33 H12       0.9141    -8.3127    -5.4733  H       1  <O>11       0.0628
@<TRIPOS>BOND
     1     1     2    2
     2     2     3    1
     3     2     4    1
     4     4     5   ar
     5     5     6   ar
     6     6     7   ar
     7     7     8   ar
     8     8     9    1
     9     9    10    1
    10    10    11   ar
    11    11    12   ar
    12    12    13   ar
    13    13    14    2
    14    13    15   ar
    15    15    16   ar
    16    16    17   ar
    17    17    18   ar
    18    18    19   ar
    19    19    20   ar
    20    10    20   ar
    21    15    20   ar
    22     8    21   ar
    23     4    21   ar
    24     3    22    1
    25     9    23    1
    26     9    24    1
    27    12    25    1
    28     5    26    1
    29     6    27    1
    30     7    28    1
    31    16    29    1
    32    17    30    1
    33    18    31    1
    34    19    32    1
    35    21    33    1
@<TRIPOS>MOLECULE
mol9_1_17
 33 35 0 0 0
SMALL
USER_CHARGES
****
VDW energy = 7.87
@<TRIPOS>ATOM
   1 O1        3.4420    -9.1855    -5.2979  O.2     1  <O>11      -0.2451
   2 C1        2.8552    -9.8129    -4.4288  C.2     1  <O>11       0.3368
   3 O2        3.5096   -10.1823    -3.3012  O.3     1  <O>11      -0.4771
   4 C2        1.4620   -10.1610    -4.6040  C.ar    1  <O>11       0.0591
   5 C3        1.1306   -11.3698    -5.2192  C.ar    1  <O>11      -0.0478
   6 C4       -0.2153   -11.7066    -5.4026  C.ar    1  <O>11      -0.0607
   7 C5       -1.2229   -10.8409    -4.9699  C.ar    1  <O>11      -0.0582
   8 C6       -0.8747    -9.6351    -4.3496  C.ar    1  <O>11      -0.0407
   9 C7       -1.9432    -8.7250    -3.8932  C.3     1  <O>11       0.0171
  10 C8       -2.7945    -9.4225    -2.8942  C.ar    1  <O>11       0.0736
  11 N1       -4.1597    -9.5966    -3.1429  N.ar    1  <O>11      -0.1750
  12 N2       -4.9672   -10.1353    -2.1996  N.ar    1  <O>11      -0.2425
  13 C9       -4.4328   -10.5159    -1.0143  C.ar    1  <O>11       0.2725
  14 O3       -5.3407   -10.9787    -0.0410  O.2     1  <O>11      -0.2658
  15 C10      -3.0617   -10.4698    -0.7265  C.ar    1  <O>11       0.0496
  16 C11      -2.4934   -10.9204     0.4887  C.ar    1  <O>11      -0.0487
  17 C12      -1.1226   -10.8154     0.7233  C.ar    1  <O>11      -0.0610
  18 C13      -0.2945   -10.2558    -0.2432  C.ar    1  <O>11      -0.0611
  19 C14      -0.8393    -9.7994    -1.4454  C.ar    1  <O>11      -0.0521
  20 C15      -2.2244    -9.9041    -1.7037  C.ar    1  <O>11       0.0106
  21 C16       0.4636    -9.2913    -4.1600  C.ar    1  <O>11      -0.0442
  22 H1        2.9041   -10.6687    -2.7201  H       1  <O>11       0.2954
  23 H2       -2.5538    -8.4242    -4.7448  H       1  <O>11       0.0377
  24 H3       -1.4967    -7.8415    -3.4364  H       1  <O>11       0.0377
  25 H4       -5.9543   -10.2526    -2.3779  H       1  <O>11       0.1921
  26 H5        1.8739   -12.0113    -5.5368  H       1  <O>11       0.0626
  27 H6       -0.4644   -12.5978    -5.8593  H       1  <O>11       0.0618
  28 H7       -2.2155   -11.0882    -5.1063  H       1  <O>11       0.0620
  29 H8       -3.1027   -11.3330     1.2123  H       1  <O>11       0.0625
  30 H9       -0.7235   -11.1528     1.6132  H       1  <O>11       0.0618
  31 H10       0.7203   -10.1778    -0.0726  H       1  <O>11       0.0618
  32 H11      -0.2204    -9.3792    -2.1563  H       1  <O>11       0.0624
  33 H12       0.7134    -8.4037    -3.6966  H       1  <O>11       0.0628
@<TRIPOS>BOND
     1     1     2    2
     2     2     3    1
     3     2     4    1
     4     4     5   ar
     5     5     6   ar
     6     6     7   ar
     7     7     8   ar
     8     8     9    1
     9     9    10    1
    10    10    11   ar
    11    11    12   ar
    12    12    13   ar
    13    13    14    2
    14    13    15   ar
    15    15    16   ar
    16    16    17   ar
    17    17    18   ar
    18    18    19   ar
    19    19    20   ar
    20    10    20   ar
    21    15    20   ar
    22     8    21   ar
    23     4    21   ar
    24     3    22    1
    25     9    23    1
    26     9    24    1
    27    12    25    1
    28     5    26    1
    29     6    27    1
    30     7    28    1
    31    16    29    1
    32    17    30    1
    33    18    31    1
    34    19    32    1
    35    21    33    1
@<TRIPOS>MOLECULE
mol9_1_18
 33 35 0 0 0
SMALL
USER_CHARGES
****
VDW energy = 8.34
@<TRIPOS>ATOM
   1 O1        3.4420    -9.1855    -5.2979  O.2     1  <O>11      -0.2451
   2 C1        2.8552    -9.8129    -4.4288  C.2     1  <O>11       0.3368
   3 O2        3.5096   -10.1823    -3.3012  O.3     1  <O>11      -0.4771
   4 C2        1.4620   -10.1610    -4.6040  C.ar    1  <O>11       0.0591
   5 C3        0.4750    -9.2817    -4.1546  C.ar    1  <O>11      -0.0478
   6 C4       -0.8745    -9.6183    -4.3101  C.ar    1  <O>11      -0.0607
   7 C5       -1.2337   -10.8255    -4.9148  C.ar    1  <O>11      -0.0582
   8 C6       -0.2326   -11.6941    -5.3653  C.ar    1  <O>11      -0.0407
   9 C7       -0.6176   -12.9674    -6.0045  C.3     1  <O>11       0.0171
  10 C8       -1.4357   -12.6870    -7.2134  C.ar    1  <O>11       0.0736
  11 N1       -2.7414   -13.1803    -7.3007  N.ar    1  <O>11      -0.1750
  12 N2       -3.4614   -13.0232    -8.4361  N.ar    1  <O>11      -0.2425
  13 C9       -2.9044   -12.3699    -9.4841  C.ar    1  <O>11       0.2725
  14 O3       -3.6681   -12.3248   -10.6676  O.2     1  <O>11      -0.2658
  15 C10      -1.6439   -11.7585    -9.4409  C.ar    1  <O>11       0.0496
  16 C11      -1.0834   -11.0259   -10.5142  C.ar    1  <O>11      -0.0487
  17 C12       0.1918   -10.4697   -10.4160  C.ar    1  <O>11      -0.0610
  18 C13       0.9337   -10.6371    -9.2521  C.ar    1  <O>11      -0.0611
  19 C14       0.3990   -11.3631    -8.1857  C.ar    1  <O>11      -0.0521
  20 C15      -0.8938   -11.9276    -8.2641  C.ar    1  <O>11       0.0106
  21 C16       1.1151   -11.3668    -5.2172  C.ar    1  <O>11      -0.0442
  22 H1        2.9041   -10.6687    -2.7201  H       1  <O>11       0.2954
  23 H2       -1.1989   -13.5660    -5.3028  H       1  <O>11       0.0377
  24 H3        0.2800   -13.5151    -6.2923  H       1  <O>11       0.0377
  25 H4       -4.4012   -13.3873    -8.5000  H       1  <O>11       0.1921
  26 H5        0.7391    -8.3884    -3.7103  H       1  <O>11       0.0626
  27 H6       -1.6070    -8.9723    -3.9769  H       1  <O>11       0.0618
  28 H7       -2.2287   -11.0748    -5.0282  H       1  <O>11       0.0620
  29 H8       -1.6267   -10.9012   -11.3827  H       1  <O>11       0.0625
  30 H9        0.5843    -9.9346   -11.2064  H       1  <O>11       0.0618
  31 H10       1.8771   -10.2258    -9.1764  H       1  <O>11       0.0618
  32 H11       0.9571   -11.4893    -7.3268  H       1  <O>11       0.0624
  33 H12       1.8481   -12.0089    -5.5570  H       1  <O>11       0.0628
@<TRIPOS>BOND
     1     1     2    2
     2     2     3    1
     3     2     4    1
     4     4     5   ar
     5     5     6   ar
     6     6     7   ar
     7     7     8   ar
     8     8     9    1
     9     9    10    1
    10    10    11   ar
    11    11    12   ar
    12    12    13   ar
    13    13    14    2
    14    13    15   ar
    15    15    16   ar
    16    16    17   ar
    17    17    18   ar
    18    18    19   ar
    19    19    20   ar
    20    10    20   ar
    21    15    20   ar
    22     8    21   ar
    23     4    21   ar
    24     3    22    1
    25     9    23    1
    26     9    24    1
    27    12    25    1
    28     5    26    1
    29     6    27    1
    30     7    28    1
    31    16    29    1
    32    17    30    1
    33    18    31    1
    34    19    32    1
    35    21    33    1
@<TRIPOS>MOLECULE
mol9_1_19
 33 35 0 0 0
SMALL
USER_CHARGES
****
VDW energy = 8.46
@<TRIPOS>ATOM
   1 O1        3.4420    -9.1855    -5.2979  O.2     1  <O>11      -0.2451
   2 C1        2.8552    -9.8129    -4.4288  C.2     1  <O>11       0.3368
   3 O2        3.5096   -10.1823    -3.3012  O.3     1  <O>11      -0.4771
   4 C2        1.4620   -10.1610    -4.6040  C.ar    1  <O>11       0.0591
   5 C3        1.1306   -11.3698    -5.2192  C.ar    1  <O>11      -0.0478
   6 C4       -0.2153   -11.7066    -5.4026  C.ar    1  <O>11      -0.0607
   7 C5       -1.2229   -10.8409    -4.9699  C.ar    1  <O>11      -0.0582
   8 C6       -0.8747    -9.6351    -4.3496  C.ar    1  <O>11      -0.0407
   9 C7       -1.9432    -8.7250    -3.8932  C.3     1  <O>11       0.0171
  10 C8       -2.7754    -8.3165    -5.0550  C.ar    1  <O>11       0.0736
  11 N1       -2.4363    -7.1744    -5.7874  N.ar    1  <O>11      -0.1750
  12 N2       -3.2412    -6.7307    -6.7812  N.ar    1  <O>11      -0.2425
  13 C9       -4.3749    -7.4155    -7.0659  C.ar    1  <O>11       0.2725
  14 O3       -5.2165    -6.8488    -8.0438  O.2     1  <O>11      -0.2658
  15 C10      -4.7324    -8.6224    -6.4492  C.ar    1  <O>11       0.0496
  16 C11      -5.8860    -9.3702    -6.7847  C.ar    1  <O>11      -0.0487
  17 C12      -6.2005   -10.5485    -6.1078  C.ar    1  <O>11      -0.0610
  18 C13      -5.3771   -11.0002    -5.0826  C.ar    1  <O>11      -0.0611
  19 C14      -4.2384   -10.2711    -4.7336  C.ar    1  <O>11      -0.0521
  20 C15      -3.8999    -9.0793    -5.4127  C.ar    1  <O>11       0.0106
  21 C16       0.4636    -9.2913    -4.1600  C.ar    1  <O>11      -0.0442
  22 H1        2.9041   -10.6687    -2.7201  H       1  <O>11       0.2954
  23 H2       -1.4979    -7.8410    -3.4360  H       1  <O>11       0.0377
  24 H3       -2.5678    -9.2370    -3.1609  H       1  <O>11       0.0377
  25 H4       -2.9987    -5.9011    -7.3035  H       1  <O>11       0.1921
  26 H5        1.8739   -12.0113    -5.5368  H       1  <O>11       0.0626
  27 H6       -0.4644   -12.5978    -5.8593  H       1  <O>11       0.0618
  28 H7       -2.2155   -11.0882    -5.1063  H       1  <O>11       0.0620
  29 H8       -6.5041    -9.0387    -7.5418  H       1  <O>11       0.0625
  30 H9       -7.0434   -11.0843    -6.3677  H       1  <O>11       0.0618
  31 H10      -5.6070   -11.8722    -4.5808  H       1  <O>11       0.0618
  32 H11      -3.6346   -10.6081    -3.9675  H       1  <O>11       0.0624
  33 H12       0.7134    -8.4037    -3.6966  H       1  <O>11       0.0628
@<TRIPOS>BOND
     1     1     2    2
     2     2     3    1
     3     2     4    1
     4     4     5   ar
     5     5     6   ar
     6     6     7   ar
     7     7     8   ar
     8     8     9    1
     9     9    10    1
    10    10    11   ar
    11    11    12   ar
    12    12    13   ar
    13    13    14    2
    14    13    15   ar
    15    15    16   ar
    16    16    17   ar
    17    17    18   ar
    18    18    19   ar
    19    19    20   ar
    20    10    20   ar
    21    15    20   ar
    22     8    21   ar
    23     4    21   ar
    24     3    22    1
    25     9    23    1
    26     9    24    1
    27    12    25    1
    28     5    26    1
    29     6    27    1
    30     7    28    1
    31    16    29    1
    32    17    30    1
    33    18    31    1
    34    19    32    1
    35    21    33    1
@<TRIPOS>MOLECULE
mol9_1_20
 33 35 0 0 0
SMALL
USER_CHARGES
****
VDW energy = 10.88
@<TRIPOS>ATOM
   1 O1        3.4420    -9.1855    -5.2979  O.2     1  <O>11      -0.2451
   2 C1        2.8552    -9.8129    -4.4288  C.2     1  <O>11       0.3368
   3 O2        3.5096   -10.1823    -3.3012  O.3     1  <O>11      -0.4771
   4 C2        1.4620   -10.1610    -4.6040  C.ar    1  <O>11       0.0591
   5 C3        1.0134   -11.4175    -4.1926  C.ar    1  <O>11      -0.0478
   6 C4       -0.3305   -11.7649    -4.3706  C.ar    1  <O>11      -0.0607
   7 C5       -1.2205   -10.8590    -4.9532  C.ar    1  <O>11      -0.0582
   8 C6       -0.7568    -9.6008    -5.3553  C.ar    1  <O>11      -0.0407
   9 C7       -1.7015    -8.6473    -5.9690  C.3     1  <O>11       0.0171
  10 C8       -2.7968    -8.3487    -5.0095  C.ar    1  <O>11       0.0736
  11 N1       -4.1214    -8.6374    -5.3528  N.ar    1  <O>11      -0.1750
  12 N2       -5.1380    -8.2762    -4.5353  N.ar    1  <O>11      -0.2425
  13 C9       -4.8544    -7.6417    -3.3724  C.ar    1  <O>11       0.2725
  14 O3       -5.9596    -7.2070    -2.6138  O.2     1  <O>11      -0.2658
  15 C10      -3.5523    -7.4080    -2.9091  C.ar    1  <O>11       0.0496
  16 C11      -3.2524    -6.7974    -1.6682  C.ar    1  <O>11      -0.0487
  17 C12      -1.9324    -6.5649    -1.2822  C.ar    1  <O>11      -0.0610
  18 C13      -0.8888    -6.9298    -2.1253  C.ar    1  <O>11      -0.0611
  19 C14      -1.1667    -7.5270    -3.3567  C.ar    1  <O>11      -0.0521
  20 C15      -2.4971    -7.7771    -3.7615  C.ar    1  <O>11       0.0106
  21 C16       0.5801    -9.2441    -5.1802  C.ar    1  <O>11      -0.0442
  22 H1        2.9041   -10.6687    -2.7201  H       1  <O>11       0.2954
  23 H2       -2.1212    -9.0830    -6.8759  H       1  <O>11       0.0377
  24 H3       -1.1758    -7.7254    -6.2186  H       1  <O>11       0.0377
  25 H4       -6.0944    -8.4784    -4.7888  H       1  <O>11       0.1921
  26 H5        1.6693   -12.0865    -3.7596  H       1  <O>11       0.0626
  27 H6       -0.6655   -12.6936    -4.0704  H       1  <O>11       0.0618
  28 H7       -2.2113   -11.1153    -5.0861  H       1  <O>11       0.0620
  29 H8       -4.0221    -6.5200    -1.0392  H       1  <O>11       0.0625
  30 H9       -1.7307    -6.1224    -0.3720  H       1  <O>11       0.0618
  31 H10       0.0888    -6.7598    -1.8418  H       1  <O>11       0.0618
  32 H11      -0.3880    -7.7899    -3.9809  H       1  <O>11       0.0624
  33 H12       0.9141    -8.3127    -5.4733  H       1  <O>11       0.0628
@<TRIPOS>BOND
     1     1     2    2
     2     2     3    1
     3     2     4    1
     4     4     5   ar
     5     5     6   ar
     6     6     7   ar
     7     7     8   ar
     8     8     9    1
     9     9    10    1
    10    10    11   ar
    11    11    12   ar
    12    12    13   ar
    13    13    14    2
    14    13    15   ar
    15    15    16   ar
    16    16    17   ar
    17    17    18   ar
    18    18    19   ar
    19    19    20   ar
    20    10    20   ar
    21    15    20   ar
    22     8    21   ar
    23     4    21   ar
    24     3    22    1
    25     9    23    1
    26     9    24    1
    27    12    25    1
    28     5    26    1
    29     6    27    1
    30     7    28    1
    31    16    29    1
    32    17    30    1
    33    18    31    1
    34    19    32    1
    35    21    33    1
@<TRIPOS>MOLECULE
mol9_1_21
 33 35 0 0 0
SMALL
USER_CHARGES
****
VDW energy = 11.07
@<TRIPOS>ATOM
   1 O1        3.4420    -9.1855    -5.2979  O.2     1  <O>11      -0.2451
   2 C1        2.8552    -9.8129    -4.4288  C.2     1  <O>11       0.3368
   3 O2        3.5096   -10.1823    -3.3012  O.3     1  <O>11      -0.4771
   4 C2        1.4620   -10.1610    -4.6040  C.ar    1  <O>11       0.0591
   5 C3        0.5946   -10.0837    -3.5126  C.ar    1  <O>11      -0.0478
   6 C4       -0.7516   -10.4309    -3.6727  C.ar    1  <O>11      -0.0607
   7 C5       -1.2274   -10.8492    -4.9180  C.ar    1  <O>11      -0.0582
   8 C6       -0.3466   -10.9160    -6.0041  C.ar    1  <O>11      -0.0407
   9 C7       -0.8548   -11.3572    -7.3177  C.3     1  <O>11       0.0171
  10 C8       -1.9288   -10.4339    -7.7685  C.ar    1  <O>11       0.0736
  11 N1       -3.2155   -10.9265    -8.0087  N.ar    1  <O>11      -0.1750
  12 N2       -4.1761   -10.1210    -8.5190  N.ar    1  <O>11      -0.2425
  13 C9       -3.8781    -8.8260    -8.7827  C.ar    1  <O>11       0.2725
  14 O3       -4.8912    -8.0668    -9.4018  O.2     1  <O>11      -0.2658
  15 C10      -2.6466    -8.2312    -8.4756  C.ar    1  <O>11       0.0496
  16 C11      -2.3517    -6.8648    -8.6965  C.ar    1  <O>11      -0.0487
  17 C12      -1.0928    -6.3440    -8.3977  C.ar    1  <O>11      -0.0610
  18 C13      -0.1043    -7.1734    -7.8799  C.ar    1  <O>11      -0.0611
  19 C14      -0.3757    -8.5259    -7.6622  C.ar    1  <O>11      -0.0521
  20 C15      -1.6471    -9.0697    -7.9521  C.ar    1  <O>11       0.0106
  21 C16       0.9963   -10.5699    -5.8555  C.ar    1  <O>11      -0.0442
  22 H1        2.9041   -10.6687    -2.7201  H       1  <O>11       0.2954
  23 H2       -1.2557   -12.3674    -7.2324  H       1  <O>11       0.0377
  24 H3       -0.0409   -11.3495    -8.0429  H       1  <O>11       0.0377
  25 H4       -5.1024   -10.4807    -8.6994  H       1  <O>11       0.1921
  26 H5        0.9443    -9.7723    -2.5929  H       1  <O>11       0.0626
  27 H6       -1.3953   -10.3778    -2.8679  H       1  <O>11       0.0618
  28 H7       -2.2197   -11.1068    -5.0362  H       1  <O>11       0.0620
  29 H8       -3.0793    -6.2442    -9.0845  H       1  <O>11       0.0625
  30 H9       -0.8953    -5.3443    -8.5607  H       1  <O>11       0.0618
  31 H10       0.8277    -6.7905    -7.6570  H       1  <O>11       0.0618
  32 H11       0.3641    -9.1378    -7.2837  H       1  <O>11       0.0624
  33 H12       1.6389   -10.6156    -6.6617  H       1  <O>11       0.0628
@<TRIPOS>BOND
     1     1     2    2
     2     2     3    1
     3     2     4    1
     4     4     5   ar
     5     5     6   ar
     6     6     7   ar
     7     7     8   ar
     8     8     9    1
     9     9    10    1
    10    10    11   ar
    11    11    12   ar
    12    12    13   ar
    13    13    14    2
    14    13    15   ar
    15    15    16   ar
    16    16    17   ar
    17    17    18   ar
    18    18    19   ar
    19    19    20   ar
    20    10    20   ar
    21    15    20   ar
    22     8    21   ar
    23     4    21   ar
    24     3    22    1
    25     9    23    1
    26     9    24    1
    27    12    25    1
    28     5    26    1
    29     6    27    1
    30     7    28    1
    31    16    29    1
    32    17    30    1
    33    18    31    1
    34    19    32    1
    35    21    33    1
@<TRIPOS>MOLECULE
mol9_1_22
 33 35 0 0 0
SMALL
USER_CHARGES
****
VDW energy = 11.23
@<TRIPOS>ATOM
   1 O1        3.4420    -9.1855    -5.2979  O.2     1  <O>11      -0.2451
   2 C1        2.8552    -9.8129    -4.4288  C.2     1  <O>11       0.3368
   3 O2        3.5096   -10.1823    -3.3012  O.3     1  <O>11      -0.4771
   4 C2        1.4620   -10.1610    -4.6040  C.ar    1  <O>11       0.0591
   5 C3        1.1306   -11.3698    -5.2192  C.ar    1  <O>11      -0.0478
   6 C4       -0.2153   -11.7066    -5.4026  C.ar    1  <O>11      -0.0607
   7 C5       -1.2229   -10.8409    -4.9699  C.ar    1  <O>11      -0.0582
   8 C6       -0.8747    -9.6351    -4.3496  C.ar    1  <O>11      -0.0407
   9 C7       -1.9432    -8.7250    -3.8932  C.3     1  <O>11       0.0171
  10 C8       -1.3546    -7.6584    -3.0416  C.ar    1  <O>11       0.0736
  11 N1       -1.4824    -6.3173    -3.4172  N.ar    1  <O>11      -0.1750
  12 N2       -0.8637    -5.3431    -2.7099  N.ar    1  <O>11      -0.2425
  13 C9       -0.1282    -5.6833    -1.6242  C.ar    1  <O>11       0.2725
  14 O3        0.5680    -4.6353    -0.9895  O.2     1  <O>11      -0.2658
  15 C10      -0.0346    -6.9893    -1.1239  C.ar    1  <O>11       0.0496
  16 C11       0.6855    -7.3392     0.0430  C.ar    1  <O>11      -0.0487
  17 C12       0.7648    -8.6653     0.4678  C.ar    1  <O>11      -0.0610
  18 C13       0.1349    -9.6664    -0.2629  C.ar    1  <O>11      -0.0611
  19 C14      -0.5742    -9.3401    -1.4209  C.ar    1  <O>11      -0.0521
  20 C15      -0.6716    -8.0016    -1.8627  C.ar    1  <O>11       0.0106
  21 C16       0.4636    -9.2913    -4.1600  C.ar    1  <O>11      -0.0442
  22 H1        2.9041   -10.6687    -2.7201  H       1  <O>11       0.2954
  23 H2       -2.6783    -9.2866    -3.3165  H       1  <O>11       0.0377
  24 H3       -2.4287    -8.2727    -4.7582  H       1  <O>11       0.0377
  25 H4       -0.9506    -4.3760    -2.9875  H       1  <O>11       0.1921
  26 H5        1.8739   -12.0113    -5.5368  H       1  <O>11       0.0626
  27 H6       -0.4644   -12.5978    -5.8593  H       1  <O>11       0.0618
  28 H7       -2.2155   -11.0882    -5.1063  H       1  <O>11       0.0620
  29 H8        1.1591    -6.6018     0.5879  H       1  <O>11       0.0625
  30 H9        1.2905    -8.9030     1.3235  H       1  <O>11       0.0618
  31 H10       0.1912   -10.6483     0.0497  H       1  <O>11       0.0618
  32 H11      -1.0344   -10.0884    -1.9624  H       1  <O>11       0.0624
  33 H12       0.7134    -8.4037    -3.6966  H       1  <O>11       0.0628
@<TRIPOS>BOND
     1     1     2    2
     2     2     3    1
     3     2     4    1
     4     4     5   ar
     5     5     6   ar
     6     6     7   ar
     7     7     8   ar
     8     8     9    1
     9     9    10    1
    10    10    11   ar
    11    11    12   ar
    12    12    13   ar
    13    13    14    2
    14    13    15   ar
    15    15    16   ar
    16    16    17   ar
    17    17    18   ar
    18    18    19   ar
    19    19    20   ar
    20    10    20   ar
    21    15    20   ar
    22     8    21   ar
    23     4    21   ar
    24     3    22    1
    25     9    23    1
    26     9    24    1
    27    12    25    1
    28     5    26    1
    29     6    27    1
    30     7    28    1
    31    16    29    1
    32    17    30    1
    33    18    31    1
    34    19    32    1
    35    21    33    1
@<TRIPOS>MOLECULE
mol9_1_23
 33 35 0 0 0
SMALL
USER_CHARGES
****
VDW energy = 11.57
@<TRIPOS>ATOM
   1 O1        3.4420    -9.1855    -5.2979  O.2     1  <O>11      -0.2451
   2 C1        2.8552    -9.8129    -4.4288  C.2     1  <O>11       0.3368
   3 O2        3.5096   -10.1823    -3.3012  O.3     1  <O>11      -0.4771
   4 C2        1.4620   -10.1610    -4.6040  C.ar    1  <O>11       0.0591
   5 C3        0.8523    -9.9431    -5.8410  C.ar    1  <O>11      -0.0478
   6 C4       -0.4984   -10.2663    -6.0132  C.ar    1  <O>11      -0.0607
   7 C5       -1.2331   -10.8075    -4.9552  C.ar    1  <O>11      -0.0582
   8 C6       -0.6062   -11.0255    -3.7226  C.ar    1  <O>11      -0.0407
   9 C7       -1.3866   -11.5987    -2.6088  C.3     1  <O>11       0.0171
  10 C8       -0.4669   -11.9838    -1.5066  C.ar    1  <O>11       0.0736
  11 N1       -0.1545   -11.0591    -0.5050  N.ar    1  <O>11      -0.1750
  12 N2        0.7609   -11.3584     0.4461  N.ar    1  <O>11      -0.2425
  13 C9        1.3625   -12.5720     0.4224  C.ar    1  <O>11       0.2725
  14 O3        2.3742   -12.7851     1.3800  O.2     1  <O>11      -0.2658
  15 C10       1.0314   -13.5889    -0.4838  C.ar    1  <O>11       0.0496
  16 C11       1.6167   -14.8773    -0.4747  C.ar    1  <O>11      -0.0487
  17 C12       1.2643   -15.8333    -1.4271  C.ar    1  <O>11      -0.0610
  18 C13       0.3289   -15.5230    -2.4079  C.ar    1  <O>11      -0.0611
  19 C14      -0.2535   -14.2541    -2.4362  C.ar    1  <O>11      -0.0521
  20 C15       0.0856   -13.2753    -1.4754  C.ar    1  <O>11       0.0106
  21 C16       0.7400   -10.7089    -3.5415  C.ar    1  <O>11      -0.0442
  22 H1        2.9041   -10.6687    -2.7201  H       1  <O>11       0.2954
  23 H2       -1.9256   -12.4799    -2.9574  H       1  <O>11       0.0377
  24 H3       -2.0988   -10.8576    -2.2456  H       1  <O>11       0.0377
  25 H4        0.9911   -10.6862     1.1638  H       1  <O>11       0.1921
  26 H5        1.3947    -9.5459    -6.6240  H       1  <O>11       0.0626
  27 H6       -0.9534   -10.1042    -6.9251  H       1  <O>11       0.0618
  28 H7       -2.2296   -11.0446    -5.0813  H       1  <O>11       0.0620
  29 H8        2.3148   -15.1132     0.2478  H       1  <O>11       0.0625
  30 H9        1.6973   -16.7697    -1.4039  H       1  <O>11       0.0618
  31 H10       0.0656   -16.2288    -3.1133  H       1  <O>11       0.0618
  32 H11      -0.9425   -14.0277    -3.1704  H       1  <O>11       0.0624
  33 H12       1.1977   -10.8778    -2.6321  H       1  <O>11       0.0628
@<TRIPOS>BOND
     1     1     2    2
     2     2     3    1
     3     2     4    1
     4     4     5   ar
     5     5     6   ar
     6     6     7   ar
     7     7     8   ar
     8     8     9    1
     9     9    10    1
    10    10    11   ar
    11    11    12   ar
    12    12    13   ar
    13    13    14    2
    14    13    15   ar
    15    15    16   ar
    16    16    17   ar
    17    17    18   ar
    18    18    19   ar
    19    19    20   ar
    20    10    20   ar
    21    15    20   ar
    22     8    21   ar
    23     4    21   ar
    24     3    22    1
    25     9    23    1
    26     9    24    1
    27    12    25    1
    28     5    26    1
    29     6    27    1
    30     7    28    1
    31    16    29    1
    32    17    30    1
    33    18    31    1
    34    19    32    1
    35    21    33    1
@<TRIPOS>MOLECULE
mol9_1_24
 33 35 0 0 0
SMALL
USER_CHARGES
****
VDW energy = 11.71
@<TRIPOS>ATOM
   1 O1        3.4420    -9.1855    -5.2979  O.2     1  <O>11      -0.2451
   2 C1        2.8552    -9.8129    -4.4288  C.2     1  <O>11       0.3368
   3 O2        3.5096   -10.1823    -3.3012  O.3     1  <O>11      -0.4771
   4 C2        1.4620   -10.1610    -4.6040  C.ar    1  <O>11       0.0591
   5 C3        0.4750    -9.2817    -4.1546  C.ar    1  <O>11      -0.0478
   6 C4       -0.8745    -9.6183    -4.3101  C.ar    1  <O>11      -0.0607
   7 C5       -1.2337   -10.8255    -4.9148  C.ar    1  <O>11      -0.0582
   8 C6       -0.2326   -11.6941    -5.3653  C.ar    1  <O>11      -0.0407
   9 C7       -0.6176   -12.9674    -6.0045  C.3     1  <O>11       0.0171
  10 C8        0.5785   -13.5881    -6.6317  C.ar    1  <O>11       0.0736
  11 N1        1.0031   -14.8550    -6.2188  N.ar    1  <O>11      -0.1750
  12 N2        2.1485   -15.3885    -6.7043  N.ar    1  <O>11      -0.2425
  13 C9        2.8728   -14.6835    -7.6063  C.ar    1  <O>11       0.2725
  14 O3        4.1017   -15.2506    -7.9989  O.2     1  <O>11      -0.2658
  15 C10       2.4642   -13.4562    -8.1462  C.ar    1  <O>11       0.0496
  16 C11       3.1899   -12.7451    -9.1314  C.ar    1  <O>11      -0.0487
  17 C12       2.7423   -11.5110    -9.6025  C.ar    1  <O>11      -0.0610
  18 C13       1.5693   -10.9604    -9.0985  C.ar    1  <O>11      -0.0611
  19 C14       0.8442   -11.6450    -8.1209  C.ar    1  <O>11      -0.0521
  20 C15       1.2782   -12.8994    -7.6368  C.ar    1  <O>11       0.0106
  21 C16       1.1151   -11.3668    -5.2172  C.ar    1  <O>11      -0.0442
  22 H1        2.9041   -10.6687    -2.7201  H       1  <O>11       0.2954
  23 H2       -1.3719   -12.7779    -6.7686  H       1  <O>11       0.0377
  24 H3       -1.0249   -13.6428    -5.2518  H       1  <O>11       0.0377
  25 H4        2.4577   -16.3000    -6.3987  H       1  <O>11       0.1921
  26 H5        0.7391    -8.3884    -3.7103  H       1  <O>11       0.0626
  27 H6       -1.6070    -8.9723    -3.9769  H       1  <O>11       0.0618
  28 H7       -2.2287   -11.0748    -5.0282  H       1  <O>11       0.0620
  29 H8        4.0637   -13.1458    -9.5069  H       1  <O>11       0.0625
  30 H9        3.2810   -11.0073   -10.3243  H       1  <O>11       0.0618
  31 H10       1.2353   -10.0479    -9.4461  H       1  <O>11       0.0618
  32 H11      -0.0223   -11.2281    -7.7461  H       1  <O>11       0.0624
  33 H12       1.8481   -12.0089    -5.5570  H       1  <O>11       0.0628
@<TRIPOS>BOND
     1     1     2    2
     2     2     3    1
     3     2     4    1
     4     4     5   ar
     5     5     6   ar
     6     6     7   ar
     7     7     8   ar
     8     8     9    1
     9     9    10    1
    10    10    11   ar
    11    11    12   ar
    12    12    13   ar
    13    13    14    2
    14    13    15   ar
    15    15    16   ar
    16    16    17   ar
    17    17    18   ar
    18    18    19   ar
    19    19    20   ar
    20    10    20   ar
    21    15    20   ar
    22     8    21   ar
    23     4    21   ar
    24     3    22    1
    25     9    23    1
    26     9    24    1
    27    12    25    1
    28     5    26    1
    29     6    27    1
    30     7    28    1
    31    16    29    1
    32    17    30    1
    33    18    31    1
    34    19    32    1
    35    21    33    1
@<TRIPOS>MOLECULE
mol9_1_25
 33 35 0 0 0
SMALL
USER_CHARGES
****
VDW energy = 11.81
@<TRIPOS>ATOM
   1 O1        3.4420    -9.1855    -5.2979  O.2     1  <O>11      -0.2451
   2 C1        2.8552    -9.8129    -4.4288  C.2     1  <O>11       0.3368
   3 O2        3.5096   -10.1823    -3.3012  O.3     1  <O>11      -0.4771
   4 C2        1.4620   -10.1610    -4.6040  C.ar    1  <O>11       0.0591
   5 C3        0.8523    -9.9431    -5.8410  C.ar    1  <O>11      -0.0478
   6 C4       -0.4984   -10.2663    -6.0132  C.ar    1  <O>11      -0.0607
   7 C5       -1.2331   -10.8075    -4.9552  C.ar    1  <O>11      -0.0582
   8 C6       -0.6062   -11.0255    -3.7226  C.ar    1  <O>11      -0.0407
   9 C7       -1.3866   -11.5987    -2.6088  C.3     1  <O>11       0.0171
  10 C8       -2.5274   -10.7008    -2.2900  C.ar    1  <O>11       0.0736
  11 N1       -3.8382   -11.1778    -2.3895  N.ar    1  <O>11      -0.1750
  12 N2       -4.8891   -10.3449    -2.2046  N.ar    1  <O>11      -0.2425
  13 C9       -4.6542    -9.0438    -1.9091  C.ar    1  <O>11       0.2725
  14 O3       -5.7867    -8.2095    -1.8245  O.2     1  <O>11      -0.2658
  15 C10      -3.3756    -8.5122    -1.6916  C.ar    1  <O>11       0.0496
  16 C11      -3.1303    -7.1673    -1.3259  C.ar    1  <O>11      -0.0487
  17 C12      -1.8291    -6.6946    -1.1566  C.ar    1  <O>11      -0.0610
  18 C13      -0.7498    -7.5488    -1.3533  C.ar    1  <O>11      -0.0611
  19 C14      -0.9732    -8.8773    -1.7212  C.ar    1  <O>11      -0.0521
  20 C15      -2.2843    -9.3759    -1.8903  C.ar    1  <O>11       0.0106
  21 C16       0.7400   -10.7089    -3.5415  C.ar    1  <O>11      -0.0442
  22 H1        2.9041   -10.6687    -2.7201  H       1  <O>11       0.2954
  23 H2       -0.7479   -11.7009    -1.7313  H       1  <O>11       0.0377
  24 H3       -1.7658   -12.5791    -2.8982  H       1  <O>11       0.0377
  25 H4       -5.8349   -10.6895    -2.2849  H       1  <O>11       0.1921
  26 H5        1.3947    -9.5459    -6.6240  H       1  <O>11       0.0626
  27 H6       -0.9534   -10.1042    -6.9251  H       1  <O>11       0.0618
  28 H7       -2.2296   -11.0446    -5.0813  H       1  <O>11       0.0620
  29 H8       -3.9264    -6.5265    -1.1824  H       1  <O>11       0.0625
  30 H9       -1.6676    -5.7120    -0.8856  H       1  <O>11       0.0618
  31 H10       0.2139    -7.2019    -1.2277  H       1  <O>11       0.0618
  32 H11      -0.1679    -9.5048    -1.8719  H       1  <O>11       0.0624
  33 H12       1.1977   -10.8778    -2.6321  H       1  <O>11       0.0628
@<TRIPOS>BOND
     1     1     2    2
     2     2     3    1
     3     2     4    1
     4     4     5   ar
     5     5     6   ar
     6     6     7   ar
     7     7     8   ar
     8     8     9    1
     9     9    10    1
    10    10    11   ar
    11    11    12   ar
    12    12    13   ar
    13    13    14    2
    14    13    15   ar
    15    15    16   ar
    16    16    17   ar
    17    17    18   ar
    18    18    19   ar
    19    19    20   ar
    20    10    20   ar
    21    15    20   ar
    22     8    21   ar
    23     4    21   ar
    24     3    22    1
    25     9    23    1
    26     9    24    1
    27    12    25    1
    28     5    26    1
    29     6    27    1
    30     7    28    1
    31    16    29    1
    32    17    30    1
    33    18    31    1
    34    19    32    1
    35    21    33    1
@<TRIPOS>MOLECULE
mol9_1_26
 33 35 0 0 0
SMALL
USER_CHARGES
****
VDW energy = 12.53
@<TRIPOS>ATOM
   1 O1        3.4420    -9.1855    -5.2979  O.2     1  <O>11      -0.2451
   2 C1        2.8552    -9.8129    -4.4288  C.2     1  <O>11       0.3368
   3 O2        3.5096   -10.1823    -3.3012  O.3     1  <O>11      -0.4771
   4 C2        1.4620   -10.1610    -4.6040  C.ar    1  <O>11       0.0591
   5 C3        0.8011    -9.7734    -5.7712  C.ar    1  <O>11      -0.0478
   6 C4       -0.5499   -10.0964    -5.9412  C.ar    1  <O>11      -0.0607
   7 C5       -1.2340   -10.8060    -4.9510  C.ar    1  <O>11      -0.0582
   8 C6       -0.5561   -11.1926    -3.7888  C.ar    1  <O>11      -0.0407
   9 C7       -1.2833   -11.9431    -2.7466  C.3     1  <O>11       0.0171
  10 C8       -1.7931   -13.2168    -3.3185  C.ar    1  <O>11       0.0736
  11 N1       -1.7902   -13.4088    -4.7037  N.ar    1  <O>11      -0.1750
  12 N2       -2.3463   -14.5175    -5.2455  N.ar    1  <O>11      -0.2425
  13 C9       -2.8954   -15.4464    -4.4264  C.ar    1  <O>11       0.2725
  14 O3       -3.5426   -16.5283    -5.0561  O.2     1  <O>11      -0.2658
  15 C10      -2.8480   -15.3778    -3.0272  C.ar    1  <O>11       0.0496
  16 C11      -3.3694   -16.3746    -2.1686  C.ar    1  <O>11      -0.0487
  17 C12      -3.3180   -16.2277    -0.7826  C.ar    1  <O>11      -0.0610
  18 C13      -2.7528   -15.0855    -0.2267  C.ar    1  <O>11      -0.0611
  19 C14      -2.2397   -14.0885    -1.0591  C.ar    1  <O>11      -0.0521
  20 C15      -2.2764   -14.2229    -2.4651  C.ar    1  <O>11       0.0106
  21 C16       0.7909   -10.8776    -3.6108  C.ar    1  <O>11      -0.0442
  22 H1        2.9041   -10.6687    -2.7201  H       1  <O>11       0.2954
  23 H2       -2.1206   -11.3459    -2.3849  H       1  <O>11       0.0377
  24 H3       -0.6083   -12.1610    -1.9187  H       1  <O>11       0.0377
  25 H4       -2.3504   -14.6505    -6.2466  H       1  <O>11       0.1921
  26 H5        1.3061    -9.2516    -6.5046  H       1  <O>11       0.0626
  27 H6       -1.0427    -9.8094    -6.8013  H       1  <O>11       0.0618
  28 H7       -2.2307   -11.0431    -5.0753  H       1  <O>11       0.0620
  29 H8       -3.7942   -17.2231    -2.5743  H       1  <O>11       0.0625
  30 H9       -3.6990   -16.9660    -0.1704  H       1  <O>11       0.0618
  31 H10      -2.7125   -14.9748     0.7985  H       1  <O>11       0.0618
  32 H11      -1.8271   -13.2401    -0.6407  H       1  <O>11       0.0624
  33 H12       1.2863   -11.1709    -2.7543  H       1  <O>11       0.0628
@<TRIPOS>BOND
     1     1     2    2
     2     2     3    1
     3     2     4    1
     4     4     5   ar
     5     5     6   ar
     6     6     7   ar
     7     7     8   ar
     8     8     9    1
     9     9    10    1
    10    10    11   ar
    11    11    12   ar
    12    12    13   ar
    13    13    14    2
    14    13    15   ar
    15    15    16   ar
    16    16    17   ar
    17    17    18   ar
    18    18    19   ar
    19    19    20   ar
    20    10    20   ar
    21    15    20   ar
    22     8    21   ar
    23     4    21   ar
    24     3    22    1
    25     9    23    1
    26     9    24    1
    27    12    25    1
    28     5    26    1
    29     6    27    1
    30     7    28    1
    31    16    29    1
    32    17    30    1
    33    18    31    1
    34    19    32    1
    35    21    33    1
@<TRIPOS>MOLECULE
mol9_1_27
 33 35 0 0 0
SMALL
USER_CHARGES
****
VDW energy = 13.98
@<TRIPOS>ATOM
   1 O1        3.4420    -9.1855    -5.2979  O.2     1  <O>11      -0.2451
   2 C1        2.8552    -9.8129    -4.4288  C.2     1  <O>11       0.3368
   3 O2        3.5096   -10.1823    -3.3012  O.3     1  <O>11      -0.4771
   4 C2        1.4620   -10.1610    -4.6040  C.ar    1  <O>11       0.0591
   5 C3        0.8011    -9.7734    -5.7712  C.ar    1  <O>11      -0.0478
   6 C4       -0.5499   -10.0964    -5.9412  C.ar    1  <O>11      -0.0607
   7 C5       -1.2340   -10.8060    -4.9510  C.ar    1  <O>11      -0.0582
   8 C6       -0.5561   -11.1926    -3.7888  C.ar    1  <O>11      -0.0407
   9 C7       -1.2833   -11.9431    -2.7466  C.3     1  <O>11       0.0171
  10 C8       -1.7931   -13.2168    -3.3185  C.ar    1  <O>11       0.0736
  11 N1       -1.0019   -14.3689    -3.2682  N.ar    1  <O>11      -0.1750
  12 N2       -1.4070   -15.5084    -3.8760  N.ar    1  <O>11      -0.2425
  13 C9       -2.5966   -15.5222    -4.5241  C.ar    1  <O>11       0.2725
  14 O3       -2.9154   -16.7071    -5.2169  O.2     1  <O>11      -0.2658
  15 C10      -3.4919   -14.4437    -4.5334  C.ar    1  <O>11       0.0496
  16 C11      -4.7603   -14.4746    -5.1603  C.ar    1  <O>11      -0.0487
  17 C12      -5.5896   -13.3532    -5.1596  C.ar    1  <O>11      -0.0610
  18 C13      -5.1701   -12.1808    -4.5410  C.ar    1  <O>11      -0.0611
  19 C14      -3.9185   -12.1304    -3.9235  C.ar    1  <O>11      -0.0521
  20 C15      -3.0679   -13.2584    -3.9078  C.ar    1  <O>11       0.0106
  21 C16       0.7909   -10.8776    -3.6108  C.ar    1  <O>11      -0.0442
  22 H1        2.9041   -10.6687    -2.7201  H       1  <O>11       0.2954
  23 H2       -2.1206   -11.3459    -2.3849  H       1  <O>11       0.0377
  24 H3       -0.6083   -12.1610    -1.9187  H       1  <O>11       0.0377
  25 H4       -0.8304   -16.3370    -3.8455  H       1  <O>11       0.1921
  26 H5        1.3061    -9.2516    -6.5046  H       1  <O>11       0.0626
  27 H6       -1.0427    -9.8094    -6.8013  H       1  <O>11       0.0618
  28 H7       -2.2307   -11.0431    -5.0753  H       1  <O>11       0.0620
  29 H8       -5.0764   -15.3400    -5.6251  H       1  <O>11       0.0625
  30 H9       -6.5134   -13.3936    -5.6177  H       1  <O>11       0.0618
  31 H10      -5.7821   -11.3499    -4.5381  H       1  <O>11       0.0618
  32 H11      -3.6101   -11.2554    -3.4715  H       1  <O>11       0.0624
  33 H12       1.2863   -11.1709    -2.7543  H       1  <O>11       0.0628
@<TRIPOS>BOND
     1     1     2    2
     2     2     3    1
     3     2     4    1
     4     4     5   ar
     5     5     6   ar
     6     6     7   ar
     7     7     8   ar
     8     8     9    1
     9     9    10    1
    10    10    11   ar
    11    11    12   ar
    12    12    13   ar
    13    13    14    2
    14    13    15   ar
    15    15    16   ar
    16    16    17   ar
    17    17    18   ar
    18    18    19   ar
    19    19    20   ar
    20    10    20   ar
    21    15    20   ar
    22     8    21   ar
    23     4    21   ar
    24     3    22    1
    25     9    23    1
    26     9    24    1
    27    12    25    1
    28     5    26    1
    29     6    27    1
    30     7    28    1
    31    16    29    1
    32    17    30    1
    33    18    31    1
    34    19    32    1
    35    21    33    1
@<TRIPOS>MOLECULE
mol9_1_28
 33 35 0 0 0
SMALL
USER_CHARGES
****
VDW energy = 16.25
@<TRIPOS>ATOM
   1 O1        3.4420    -9.1855    -5.2979  O.2     1  <O>11      -0.2451
   2 C1        2.8552    -9.8129    -4.4288  C.2     1  <O>11       0.3368
   3 O2        3.5096   -10.1823    -3.3012  O.3     1  <O>11      -0.4771
   4 C2        1.4620   -10.1610    -4.6040  C.ar    1  <O>11       0.0591
   5 C3        0.8011    -9.7734    -5.7712  C.ar    1  <O>11      -0.0478
   6 C4       -0.5499   -10.0964    -5.9412  C.ar    1  <O>11      -0.0607
   7 C5       -1.2340   -10.8060    -4.9510  C.ar    1  <O>11      -0.0582
   8 C6       -0.5561   -11.1926    -3.7888  C.ar    1  <O>11      -0.0407
   9 C7       -1.2833   -11.9431    -2.7466  C.3     1  <O>11       0.0171
  10 C8       -1.7931   -13.2168    -3.3185  C.ar    1  <O>11       0.0736
  11 N1       -3.1673   -13.4764    -3.3255  N.ar    1  <O>11      -0.1750
  12 N2       -3.6389   -14.6734    -3.7460  N.ar    1  <O>11      -0.2425
  13 C9       -2.7619   -15.6138    -4.1726  C.ar    1  <O>11       0.2725
  14 O3       -3.3074   -16.8699    -4.5049  O.2     1  <O>11      -0.2658
  15 C10      -1.3824   -15.3962    -4.2926  C.ar    1  <O>11       0.0496
  16 C11      -0.4711   -16.3566    -4.7923  C.ar    1  <O>11      -0.0487
  17 C12       0.8957   -16.0859    -4.8547  C.ar    1  <O>11      -0.0610
  18 C13       1.3804   -14.8587    -4.4163  C.ar    1  <O>11      -0.0611
  19 C14       0.4961   -13.9019    -3.9136  C.ar    1  <O>11      -0.0521
  20 C15      -0.8924   -14.1553    -3.8494  C.ar    1  <O>11       0.0106
  21 C16       0.7909   -10.8776    -3.6108  C.ar    1  <O>11      -0.0442
  22 H1        2.9041   -10.6687    -2.7201  H       1  <O>11       0.2954
  23 H2       -2.1206   -11.3459    -2.3849  H       1  <O>11       0.0377
  24 H3       -0.6083   -12.1610    -1.9187  H       1  <O>11       0.0377
  25 H4       -4.6310   -14.8619    -3.7427  H       1  <O>11       0.1921
  26 H5        1.3061    -9.2516    -6.5046  H       1  <O>11       0.0626
  27 H6       -1.0427    -9.8094    -6.8013  H       1  <O>11       0.0618
  28 H7       -2.2307   -11.0431    -5.0753  H       1  <O>11       0.0620
  29 H8       -0.8232   -17.2712    -5.1156  H       1  <O>11       0.0625
  30 H9        1.5465   -16.7957    -5.2258  H       1  <O>11       0.0618
  31 H10       2.3911   -14.6555    -4.4622  H       1  <O>11       0.0618
  32 H11       0.8626   -12.9952    -3.5838  H       1  <O>11       0.0624
  33 H12       1.2863   -11.1709    -2.7543  H       1  <O>11       0.0628
@<TRIPOS>BOND
     1     1     2    2
     2     2     3    1
     3     2     4    1
     4     4     5   ar
     5     5     6   ar
     6     6     7   ar
     7     7     8   ar
     8     8     9    1
     9     9    10    1
    10    10    11   ar
    11    11    12   ar
    12    12    13   ar
    13    13    14    2
    14    13    15   ar
    15    15    16   ar
    16    16    17   ar
    17    17    18   ar
    18    18    19   ar
    19    19    20   ar
    20    10    20   ar
    21    15    20   ar
    22     8    21   ar
    23     4    21   ar
    24     3    22    1
    25     9    23    1
    26     9    24    1
    27    12    25    1
    28     5    26    1
    29     6    27    1
    30     7    28    1
    31    16    29    1
    32    17    30    1
    33    18    31    1
    34    19    32    1
    35    21    33    1
@<TRIPOS>MOLECULE
mol9_1_29
 33 35 0 0 0
SMALL
USER_CHARGES
****
VDW energy = 18.79
@<TRIPOS>ATOM
   1 O1        3.4420    -9.1855    -5.2979  O.2     1  <O>11      -0.2451
   2 C1        2.8552    -9.8129    -4.4288  C.2     1  <O>11       0.3368
   3 O2        3.5096   -10.1823    -3.3012  O.3     1  <O>11      -0.4771
   4 C2        1.4620   -10.1610    -4.6040  C.ar    1  <O>11       0.0591
   5 C3        0.8523    -9.9431    -5.8410  C.ar    1  <O>11      -0.0478
   6 C4       -0.4984   -10.2663    -6.0132  C.ar    1  <O>11      -0.0607
   7 C5       -1.2331   -10.8075    -4.9552  C.ar    1  <O>11      -0.0582
   8 C6       -0.6062   -11.0255    -3.7226  C.ar    1  <O>11      -0.0407
   9 C7       -1.3866   -11.5987    -2.6088  C.3     1  <O>11       0.0171
  10 C8       -0.4669   -11.9838    -1.5066  C.ar    1  <O>11       0.0736
  11 N1       -0.6113   -11.4012    -0.2434  N.ar    1  <O>11      -0.1750
  12 N2        0.2812   -11.6621     0.7403  N.ar    1  <O>11      -0.2425
  13 C9        1.3108   -12.5060     0.4887  C.ar    1  <O>11       0.2725
  14 O3        2.2572   -12.6599     1.5214  O.2     1  <O>11      -0.2658
  15 C10       1.4676   -13.2077    -0.7145  C.ar    1  <O>11       0.0496
  16 C11       2.5092   -14.1337    -0.9597  C.ar    1  <O>11      -0.0487
  17 C12       2.6258   -14.7741    -2.1932  C.ar    1  <O>11      -0.0610
  18 C13       1.7128   -14.5006    -3.2055  C.ar    1  <O>11      -0.0611
  19 C14       0.6827   -13.5843    -2.9834  C.ar    1  <O>11      -0.0521
  20 C15       0.5444   -12.9313    -1.7381  C.ar    1  <O>11       0.0106
  21 C16       0.7400   -10.7089    -3.5415  C.ar    1  <O>11      -0.0442
  22 H1        2.9041   -10.6687    -2.7201  H       1  <O>11       0.2954
  23 H2       -1.9256   -12.4799    -2.9574  H       1  <O>11       0.0377
  24 H3       -2.0988   -10.8576    -2.2456  H       1  <O>11       0.0377
  25 H4        0.1798   -11.2341     1.6493  H       1  <O>11       0.1921
  26 H5        1.3947    -9.5459    -6.6240  H       1  <O>11       0.0626
  27 H6       -0.9534   -10.1042    -6.9251  H       1  <O>11       0.0618
  28 H7       -2.2296   -11.0446    -5.0813  H       1  <O>11       0.0620
  29 H8        3.1930   -14.3383    -0.2143  H       1  <O>11       0.0625
  30 H9        3.3888   -15.4500    -2.3543  H       1  <O>11       0.0618
  31 H10       1.7961   -14.9738    -4.1189  H       1  <O>11       0.0618
  32 H11       0.0119   -13.3808    -3.7408  H       1  <O>11       0.0624
  33 H12       1.1977   -10.8778    -2.6321  H       1  <O>11       0.0628
@<TRIPOS>BOND
     1     1     2    2
     2     2     3    1
     3     2     4    1
     4     4     5   ar
     5     5     6   ar
     6     6     7   ar
     7     7     8   ar
     8     8     9    1
     9     9    10    1
    10    10    11   ar
    11    11    12   ar
    12    12    13   ar
    13    13    14    2
    14    13    15   ar
    15    15    16   ar
    16    16    17   ar
    17    17    18   ar
    18    18    19   ar
    19    19    20   ar
    20    10    20   ar
    21    15    20   ar
    22     8    21   ar
    23     4    21   ar
    24     3    22    1
    25     9    23    1
    26     9    24    1
    27    12    25    1
    28     5    26    1
    29     6    27    1
    30     7    28    1
    31    16    29    1
    32    17    30    1
    33    18    31    1
    34    19    32    1
    35    21    33    1
@<TRIPOS>MOLECULE
mol9_1_30
 33 35 0 0 0
SMALL
USER_CHARGES
****
VDW energy = 29.57
@<TRIPOS>ATOM
   1 O1        3.4420    -9.1855    -5.2979  O.2     1  <O>11      -0.2451
   2 C1        2.8552    -9.8129    -4.4288  C.2     1  <O>11       0.3368
   3 O2        3.5096   -10.1823    -3.3012  O.3     1  <O>11      -0.4771
   4 C2        1.4620   -10.1610    -4.6040  C.ar    1  <O>11       0.0591
   5 C3        1.0134   -11.4175    -4.1926  C.ar    1  <O>11      -0.0478
   6 C4       -0.3305   -11.7649    -4.3706  C.ar    1  <O>11      -0.0607
   7 C5       -1.2205   -10.8590    -4.9532  C.ar    1  <O>11      -0.0582
   8 C6       -0.7568    -9.6008    -5.3553  C.ar    1  <O>11      -0.0407
   9 C7       -1.7015    -8.6473    -5.9690  C.3     1  <O>11       0.0171
  10 C8       -0.9848    -7.3906    -6.3102  C.ar    1  <O>11       0.0736
  11 N1       -1.3906    -6.1803    -5.7388  N.ar    1  <O>11      -0.1750
  12 N2       -0.8172    -5.0144    -6.1183  N.ar    1  <O>11      -0.2425
  13 C9        0.1650    -5.0363    -7.0511  C.ar    1  <O>11       0.2725
  14 O3        0.6526    -3.7831    -7.4726  O.2     1  <O>11      -0.2658
  15 C10       0.6975    -6.2133    -7.5950  C.ar    1  <O>11       0.0496
  16 C11       1.7627    -6.2425    -8.5263  C.ar    1  <O>11      -0.0487
  17 C12       2.2234    -7.4488    -9.0534  C.ar    1  <O>11      -0.0610
  18 C13       1.6296    -8.6456    -8.6685  C.ar    1  <O>11      -0.0611
  19 C14       0.5726    -8.6349    -7.7558  C.ar    1  <O>11      -0.0521
  20 C15       0.0972    -7.4234    -7.2058  C.ar    1  <O>11       0.0106
  21 C16       0.5801    -9.2441    -5.1802  C.ar    1  <O>11      -0.0442
  22 H1        2.9041   -10.6687    -2.7201  H       1  <O>11       0.2954
  23 H2       -2.5057    -8.4281    -5.2663  H       1  <O>11       0.0377
  24 H3       -2.1206    -9.0842    -6.8756  H       1  <O>11       0.0377
  25 H4       -1.1172    -4.1405    -5.7104  H       1  <O>11       0.1921
  26 H5        1.6693   -12.0865    -3.7596  H       1  <O>11       0.0626
  27 H6       -0.6655   -12.6936    -4.0704  H       1  <O>11       0.0618
  28 H7       -2.2113   -11.1153    -5.0861  H       1  <O>11       0.0620
  29 H8        2.2054    -5.3576    -8.8198  H       1  <O>11       0.0625
  30 H9        3.0040    -7.4530    -9.7284  H       1  <O>11       0.0618
  31 H10       1.9691    -9.5396    -9.0562  H       1  <O>11       0.0618
  32 H11       0.1318    -9.5259    -7.4788  H       1  <O>11       0.0624
  33 H12       0.9141    -8.3127    -5.4733  H       1  <O>11       0.0628
@<TRIPOS>BOND
     1     1     2    2
     2     2     3    1
     3     2     4    1
     4     4     5   ar
     5     5     6   ar
     6     6     7   ar
     7     7     8   ar
     8     8     9    1
     9     9    10    1
    10    10    11   ar
    11    11    12   ar
    12    12    13   ar
    13    13    14    2
    14    13    15   ar
    15    15    16   ar
    16    16    17   ar
    17    17    18   ar
    18    18    19   ar
    19    19    20   ar
    20    10    20   ar
    21    15    20   ar
    22     8    21   ar
    23     4    21   ar
    24     3    22    1
    25     9    23    1
    26     9    24    1
    27    12    25    1
    28     5    26    1
    29     6    27    1
    30     7    28    1
    31    16    29    1
    32    17    30    1
    33    18    31    1
    34    19    32    1
    35    21    33    1
