@<TRIPOS>MOLECULE
mol94_1_1
 51 53 0 0 0
SMALL
USER_CHARGES
****
VDW energy = 106.34
@<TRIPOS>ATOM
   1 O1        2.8275    -7.9910    -5.9239  O.2     1  <O>11      -0.2739
   2 C1        3.3598    -9.0478    -5.6186  C.2     1  <O>11       0.2334
   3 C2        2.8830    -9.8060    -4.4250  C.3     1  <O>11       0.0505
   4 C3        1.7378   -10.6559    -4.8073  C.ar    1  <O>11      -0.0386
   5 C4        1.9723   -11.9577    -5.2559  C.ar    1  <O>11      -0.0581
   6 C5        0.8928   -12.7637    -5.6316  C.ar    1  <O>11      -0.0615
   7 C6       -0.4127   -12.2724    -5.5551  C.ar    1  <O>11      -0.0617
   8 C7       -0.6319   -10.9682    -5.0984  C.ar    1  <O>11      -0.0615
   9 C8        0.4377   -10.1556    -4.7189  C.ar    1  <O>11      -0.0581
  10 N1        4.3940    -9.5360    -6.3720  N.am    1  <O>11      -0.2339
  11 N2        4.8330    -8.8380    -7.4710  N.am    1  <O>11      -0.2304
  12 C9        5.8254    -9.3565    -8.2594  C.2     1  <O>11       0.2602
  13 O2        6.3203   -10.4399    -7.9840  O.2     1  <O>11      -0.2687
  14 C10       6.2913    -8.6176    -9.4254  C.ar    1  <O>11       0.0400
  15 C11       5.6709    -8.7965   -10.6730  C.ar    1  <O>11      -0.0495
  16 C12       6.1276    -8.0964   -11.7954  C.ar    1  <O>11      -0.0592
  17 C13       7.2019    -7.2102   -11.6815  C.ar    1  <O>11      -0.0353
  18 C14       7.8158    -7.0264   -10.4369  C.ar    1  <O>11       0.1062
  19 S1        9.1678    -5.9081   -10.2997  S.O2    1  <O>11       0.0609
  20 O3        8.8413    -4.7880    -9.1188  O.2     1  <O>11      -0.1528
  21 O4        9.3933    -5.1324   -11.7518  O.2     1  <O>11      -0.1528
  22 N3       10.5361    -6.7438    -9.9028  N.3     1  <O>11      -0.1766
  23 C15      11.6361    -5.7705    -9.6482  C.3     1  <O>11       0.0205
  24 C16      11.9955    -4.9904   -10.9056  C.3     1  <O>11      -0.0385
  25 C17      12.3676    -5.9337   -12.0450  C.3     1  <O>11      -0.0506
  26 C18      11.2600    -6.9517   -12.2924  C.3     1  <O>11      -0.0385
  27 C19      10.8651    -7.6822   -11.0130  C.3     1  <O>11       0.0205
  28 C20       7.3659    -7.7188    -9.3125  C.ar    1  <O>11      -0.0232
  29 H1        3.6906   -10.4324    -4.0463  H       1  <O>11       0.0407
  30 H2        2.5727    -9.1051    -3.6495  H       1  <O>11       0.0407
  31 H3        4.8380   -10.4180    -6.1170  H       1  <O>11       0.1728
  32 H4        4.4200    -7.9340    -7.6997  H       1  <O>11       0.1731
  33 H5       11.3183    -5.0704    -8.8762  H       1  <O>11       0.0444
  34 H6       12.5169    -6.3136    -9.3052  H       1  <O>11       0.0444
  35 H7       11.1381    -4.3882   -11.2082  H       1  <O>11       0.0278
  36 H8       12.8411    -4.3380   -10.6914  H       1  <O>11       0.0278
  37 H9       12.5263    -5.3513   -12.9511  H       1  <O>11       0.0266
  38 H10      13.2849    -6.4606   -11.7844  H       1  <O>11       0.0266
  39 H11      10.3861    -6.4338   -12.6867  H       1  <O>11       0.0278
  40 H12      11.6092    -7.6822   -13.0224  H       1  <O>11       0.0278
  41 H13       9.9922    -8.3007   -11.2188  H       1  <O>11       0.0444
  42 H14      11.6947    -8.3157   -10.7014  H       1  <O>11       0.0444
  43 H15       2.9361   -12.3226    -5.3096  H       1  <O>11       0.0620
  44 H16       1.0613   -13.7251    -5.9666  H       1  <O>11       0.0618
  45 H17      -1.2091   -12.8667    -5.8333  H       1  <O>11       0.0618
  46 H18      -1.5953   -10.6028    -5.0415  H       1  <O>11       0.0618
  47 H19       0.2693    -9.1966    -4.3771  H       1  <O>11       0.0620
  48 H20       4.8748    -9.4471   -10.7622  H       1  <O>11       0.0625
  49 H21       5.6697    -8.2351   -12.7098  H       1  <O>11       0.0618
  50 H22       7.5403    -6.6948   -12.5090  H       1  <O>11       0.0637
  51 H23       7.8218    -7.5711    -8.3985  H       1  <O>11       0.0644
@<TRIPOS>BOND
     1     1     2    2
     2     2     3    1
     3     3     4    1
     4     4     5   ar
     5     5     6   ar
     6     6     7   ar
     7     7     8   ar
     8     8     9   ar
     9     4     9   ar
    10     2    10   am
    11    10    11    1
    12    11    12   am
    13    12    13    2
    14    12    14    1
    15    14    15   ar
    16    15    16   ar
    17    16    17   ar
    18    17    18   ar
    19    18    19    1
    20    19    20    2
    21    19    21    2
    22    19    22    1
    23    22    23    1
    24    23    24    1
    25    24    25    1
    26    25    26    1
    27    26    27    1
    28    22    27    1
    29    18    28   ar
    30    14    28   ar
    31     3    29    1
    32     3    30    1
    33    10    31    1
    34    11    32    1
    35    23    33    1
    36    23    34    1
    37    24    35    1
    38    24    36    1
    39    25    37    1
    40    25    38    1
    41    26    39    1
    42    26    40    1
    43    27    41    1
    44    27    42    1
    45     5    43    1
    46     6    44    1
    47     7    45    1
    48     8    46    1
    49     9    47    1
    50    15    48    1
    51    16    49    1
    52    17    50    1
    53    28    51    1
@<TRIPOS>MOLECULE
mol94_1_2
 51 53 0 0 0
SMALL
USER_CHARGES
****
VDW energy = 106.35
@<TRIPOS>ATOM
   1 O1        2.8275    -7.9910    -5.9239  O.2     1  <O>11      -0.2739
   2 C1        3.3598    -9.0478    -5.6186  C.2     1  <O>11       0.2334
   3 C2        2.8830    -9.8060    -4.4250  C.3     1  <O>11       0.0505
   4 C3        1.7378   -10.6559    -4.8073  C.ar    1  <O>11      -0.0386
   5 C4        0.4397   -10.1638    -4.6530  C.ar    1  <O>11      -0.0581
   6 C5       -0.6499   -10.9684    -5.0014  C.ar    1  <O>11      -0.0615
   7 C6       -0.4425   -12.2549    -5.5047  C.ar    1  <O>11      -0.0617
   8 C7        0.8639   -12.7316    -5.6589  C.ar    1  <O>11      -0.0615
   9 C8        1.9588   -11.9366    -5.3164  C.ar    1  <O>11      -0.0581
  10 N1        4.3940    -9.5360    -6.3720  N.am    1  <O>11      -0.2339
  11 N2        4.8330    -8.8380    -7.4710  N.am    1  <O>11      -0.2304
  12 C9        5.8254    -9.3565    -8.2594  C.2     1  <O>11       0.2602
  13 O2        6.3203   -10.4399    -7.9840  O.2     1  <O>11      -0.2687
  14 C10       6.2913    -8.6176    -9.4254  C.ar    1  <O>11       0.0400
  15 C11       5.6709    -8.7965   -10.6730  C.ar    1  <O>11      -0.0495
  16 C12       6.1276    -8.0964   -11.7954  C.ar    1  <O>11      -0.0592
  17 C13       7.2019    -7.2102   -11.6815  C.ar    1  <O>11      -0.0353
  18 C14       7.8158    -7.0264   -10.4369  C.ar    1  <O>11       0.1062
  19 S1        9.1678    -5.9081   -10.2997  S.O2    1  <O>11       0.0609
  20 O3        8.8413    -4.7880    -9.1188  O.2     1  <O>11      -0.1528
  21 O4        9.3933    -5.1324   -11.7518  O.2     1  <O>11      -0.1528
  22 N3       10.5361    -6.7438    -9.9028  N.3     1  <O>11      -0.1766
  23 C15      11.6361    -5.7705    -9.6482  C.3     1  <O>11       0.0205
  24 C16      11.9955    -4.9904   -10.9056  C.3     1  <O>11      -0.0385
  25 C17      12.3676    -5.9337   -12.0450  C.3     1  <O>11      -0.0506
  26 C18      11.2600    -6.9517   -12.2924  C.3     1  <O>11      -0.0385
  27 C19      10.8651    -7.6822   -11.0130  C.3     1  <O>11       0.0205
  28 C20       7.3659    -7.7188    -9.3125  C.ar    1  <O>11      -0.0232
  29 H1        3.6906   -10.4324    -4.0463  H       1  <O>11       0.0407
  30 H2        2.5727    -9.1051    -3.6495  H       1  <O>11       0.0407
  31 H3        4.8380   -10.4180    -6.1170  H       1  <O>11       0.1728
  32 H4        4.4200    -7.9340    -7.6997  H       1  <O>11       0.1731
  33 H5       11.3183    -5.0704    -8.8762  H       1  <O>11       0.0444
  34 H6       12.5169    -6.3136    -9.3052  H       1  <O>11       0.0444
  35 H7       11.1381    -4.3882   -11.2082  H       1  <O>11       0.0278
  36 H8       12.8411    -4.3380   -10.6914  H       1  <O>11       0.0278
  37 H9       12.5263    -5.3513   -12.9511  H       1  <O>11       0.0266
  38 H10      13.2849    -6.4606   -11.7844  H       1  <O>11       0.0266
  39 H11      10.3861    -6.4338   -12.6867  H       1  <O>11       0.0278
  40 H12      11.6092    -7.6822   -13.0224  H       1  <O>11       0.0278
  41 H13       9.9922    -8.3007   -11.2188  H       1  <O>11       0.0444
  42 H14      11.6947    -8.3157   -10.7014  H       1  <O>11       0.0444
  43 H15       0.2856    -9.2123    -4.2842  H       1  <O>11       0.0620
  44 H16      -1.6109   -10.6103    -4.8861  H       1  <O>11       0.0618
  45 H17      -1.2465   -12.8490    -5.7608  H       1  <O>11       0.0618
  46 H18       1.0196   -13.6818    -6.0301  H       1  <O>11       0.0618
  47 H19       2.9202   -12.2915    -5.4381  H       1  <O>11       0.0620
  48 H20       4.8748    -9.4471   -10.7622  H       1  <O>11       0.0625
  49 H21       5.6697    -8.2351   -12.7098  H       1  <O>11       0.0618
  50 H22       7.5403    -6.6948   -12.5090  H       1  <O>11       0.0637
  51 H23       7.8218    -7.5711    -8.3985  H       1  <O>11       0.0644
@<TRIPOS>BOND
     1     1     2    2
     2     2     3    1
     3     3     4    1
     4     4     5   ar
     5     5     6   ar
     6     6     7   ar
     7     7     8   ar
     8     8     9   ar
     9     4     9   ar
    10     2    10   am
    11    10    11    1
    12    11    12   am
    13    12    13    2
    14    12    14    1
    15    14    15   ar
    16    15    16   ar
    17    16    17   ar
    18    17    18   ar
    19    18    19    1
    20    19    20    2
    21    19    21    2
    22    19    22    1
    23    22    23    1
    24    23    24    1
    25    24    25    1
    26    25    26    1
    27    26    27    1
    28    22    27    1
    29    18    28   ar
    30    14    28   ar
    31     3    29    1
    32     3    30    1
    33    10    31    1
    34    11    32    1
    35    23    33    1
    36    23    34    1
    37    24    35    1
    38    24    36    1
    39    25    37    1
    40    25    38    1
    41    26    39    1
    42    26    40    1
    43    27    41    1
    44    27    42    1
    45     5    43    1
    46     6    44    1
    47     7    45    1
    48     8    46    1
    49     9    47    1
    50    15    48    1
    51    16    49    1
    52    17    50    1
    53    28    51    1
@<TRIPOS>MOLECULE
mol94_1_3
 51 53 0 0 0
SMALL
USER_CHARGES
****
VDW energy = 107.07
@<TRIPOS>ATOM
   1 O1        2.8275    -7.9910    -5.9239  O.2     1  <O>11      -0.2739
   2 C1        3.3598    -9.0478    -5.6186  C.2     1  <O>11       0.2334
   3 C2        2.8830    -9.8060    -4.4250  C.3     1  <O>11       0.0505
   4 C3        1.7378   -10.6559    -4.8073  C.ar    1  <O>11      -0.0386
   5 C4        0.4397   -10.1638    -4.6530  C.ar    1  <O>11      -0.0581
   6 C5       -0.6499   -10.9684    -5.0014  C.ar    1  <O>11      -0.0615
   7 C6       -0.4425   -12.2549    -5.5047  C.ar    1  <O>11      -0.0617
   8 C7        0.8639   -12.7316    -5.6589  C.ar    1  <O>11      -0.0615
   9 C8        1.9588   -11.9366    -5.3164  C.ar    1  <O>11      -0.0581
  10 N1        4.3940    -9.5360    -6.3720  N.am    1  <O>11      -0.2339
  11 N2        4.8330    -8.8380    -7.4710  N.am    1  <O>11      -0.2304
  12 C9        5.8254    -9.3565    -8.2594  C.2     1  <O>11       0.2602
  13 O2        6.3200   -10.4402    -7.9842  O.2     1  <O>11      -0.2687
  14 C10       6.2918    -8.6172    -9.4250  C.ar    1  <O>11       0.0400
  15 C11       5.6716    -8.7954   -10.6728  C.ar    1  <O>11      -0.0495
  16 C12       6.1287    -8.0951   -11.7949  C.ar    1  <O>11      -0.0592
  17 C13       7.2032    -7.2092   -11.6803  C.ar    1  <O>11      -0.0353
  18 C14       7.8170    -7.0261   -10.4355  C.ar    1  <O>11       0.1062
  19 S1        9.1694    -5.9083   -10.2977  S.O2    1  <O>11       0.0609
  20 O3       10.4006    -6.4045   -11.2946  O.2     1  <O>11      -0.1528
  21 O4        9.7064    -5.8814    -8.7254  O.2     1  <O>11      -0.1528
  22 N3        8.6798    -4.3939   -10.7391  N.3     1  <O>11      -0.1766
  23 C15       9.8667    -3.4920   -10.7572  C.3     1  <O>11       0.0205
  24 C16      10.4665    -3.3283    -9.3671  C.3     1  <O>11      -0.0385
  25 C17       9.4220    -2.8198    -8.3787  C.3     1  <O>11      -0.0506
  26 C18       8.1918    -3.7204    -8.3756  C.3     1  <O>11      -0.0385
  27 C19       7.6374    -3.9277    -9.7814  C.3     1  <O>11       0.0205
  28 C20       7.3667    -7.7188    -9.3115  C.ar    1  <O>11      -0.0232
  29 H1        3.6906   -10.4324    -4.0463  H       1  <O>11       0.0407
  30 H2        2.5727    -9.1051    -3.6495  H       1  <O>11       0.0407
  31 H3        4.8380   -10.4180    -6.1170  H       1  <O>11       0.1728
  32 H4        4.4200    -7.9340    -7.6996  H       1  <O>11       0.1731
  33 H5       10.6214    -3.9127   -11.4209  H       1  <O>11       0.0444
  34 H6        9.5618    -2.5134   -11.1282  H       1  <O>11       0.0444
  35 H7       10.8398    -4.2940    -9.0244  H       1  <O>11       0.0278
  36 H8       11.2894    -2.6162    -9.4151  H       1  <O>11       0.0278
  37 H9        9.8555    -2.8041    -7.3801  H       1  <O>11       0.0266
  38 H10       9.1251    -1.8110    -8.6637  H       1  <O>11       0.0266
  39 H11       8.4644    -4.6891    -7.9578  H       1  <O>11       0.0278
  40 H12       7.4208    -3.2618    -7.7563  H       1  <O>11       0.0278
  41 H13       6.8437    -4.6728    -9.7378  H       1  <O>11       0.0444
  42 H14       7.2302    -2.9830   -10.1398  H       1  <O>11       0.0444
  43 H15       0.2856    -9.2123    -4.2842  H       1  <O>11       0.0620
  44 H16      -1.6109   -10.6103    -4.8861  H       1  <O>11       0.0618
  45 H17      -1.2465   -12.8490    -5.7608  H       1  <O>11       0.0618
  46 H18       1.0196   -13.6818    -6.0301  H       1  <O>11       0.0618
  47 H19       2.9202   -12.2915    -5.4381  H       1  <O>11       0.0620
  48 H20       4.8753    -9.4458   -10.7624  H       1  <O>11       0.0625
  49 H21       5.6709    -8.2333   -12.7094  H       1  <O>11       0.0618
  50 H22       7.5421    -6.6936   -12.5076  H       1  <O>11       0.0637
  51 H23       7.8224    -7.5717    -8.3973  H       1  <O>11       0.0644
@<TRIPOS>BOND
     1     1     2    2
     2     2     3    1
     3     3     4    1
     4     4     5   ar
     5     5     6   ar
     6     6     7   ar
     7     7     8   ar
     8     8     9   ar
     9     4     9   ar
    10     2    10   am
    11    10    11    1
    12    11    12   am
    13    12    13    2
    14    12    14    1
    15    14    15   ar
    16    15    16   ar
    17    16    17   ar
    18    17    18   ar
    19    18    19    1
    20    19    20    2
    21    19    21    2
    22    19    22    1
    23    22    23    1
    24    23    24    1
    25    24    25    1
    26    25    26    1
    27    26    27    1
    28    22    27    1
    29    18    28   ar
    30    14    28   ar
    31     3    29    1
    32     3    30    1
    33    10    31    1
    34    11    32    1
    35    23    33    1
    36    23    34    1
    37    24    35    1
    38    24    36    1
    39    25    37    1
    40    25    38    1
    41    26    39    1
    42    26    40    1
    43    27    41    1
    44    27    42    1
    45     5    43    1
    46     6    44    1
    47     7    45    1
    48     8    46    1
    49     9    47    1
    50    15    48    1
    51    16    49    1
    52    17    50    1
    53    28    51    1
@<TRIPOS>MOLECULE
mol94_1_4
 51 53 0 0 0
SMALL
USER_CHARGES
****
VDW energy = 107.56
@<TRIPOS>ATOM
   1 O1        2.8275    -7.9910    -5.9239  O.2     1  <O>11      -0.2739
   2 C1        3.3598    -9.0478    -5.6186  C.2     1  <O>11       0.2334
   3 C2        2.8830    -9.8060    -4.4250  C.3     1  <O>11       0.0505
   4 C3        1.7687    -9.0742    -3.7903  C.ar    1  <O>11      -0.0386
   5 C4        2.0413    -8.1796    -2.7528  C.ar    1  <O>11      -0.0581
   6 C5        0.9890    -7.4928    -2.1389  C.ar    1  <O>11      -0.0615
   7 C6       -0.3265    -7.6961    -2.5625  C.ar    1  <O>11      -0.0617
   8 C7       -0.5830    -8.5912    -3.6068  C.ar    1  <O>11      -0.0615
   9 C8        0.4595    -9.2806    -4.2282  C.ar    1  <O>11      -0.0581
  10 N1        4.3940    -9.5360    -6.3720  N.am    1  <O>11      -0.2339
  11 N2        4.8330    -8.8380    -7.4710  N.am    1  <O>11      -0.2304
  12 C9        5.8254    -9.3565    -8.2594  C.2     1  <O>11       0.2602
  13 O2        6.3203   -10.4399    -7.9840  O.2     1  <O>11      -0.2687
  14 C10       6.2913    -8.6176    -9.4254  C.ar    1  <O>11       0.0400
  15 C11       5.6709    -8.7965   -10.6730  C.ar    1  <O>11      -0.0495
  16 C12       6.1276    -8.0964   -11.7954  C.ar    1  <O>11      -0.0592
  17 C13       7.2019    -7.2102   -11.6815  C.ar    1  <O>11      -0.0353
  18 C14       7.8158    -7.0264   -10.4369  C.ar    1  <O>11       0.1062
  19 S1        9.1678    -5.9081   -10.2997  S.O2    1  <O>11       0.0609
  20 O3        8.8413    -4.7880    -9.1188  O.2     1  <O>11      -0.1528
  21 O4        9.3933    -5.1324   -11.7518  O.2     1  <O>11      -0.1528
  22 N3       10.5361    -6.7438    -9.9028  N.3     1  <O>11      -0.1766
  23 C15      11.6361    -5.7705    -9.6482  C.3     1  <O>11       0.0205
  24 C16      11.9955    -4.9904   -10.9056  C.3     1  <O>11      -0.0385
  25 C17      12.3676    -5.9337   -12.0450  C.3     1  <O>11      -0.0506
  26 C18      11.2600    -6.9517   -12.2924  C.3     1  <O>11      -0.0385
  27 C19      10.8651    -7.6822   -11.0130  C.3     1  <O>11       0.0205
  28 C20       7.3659    -7.7188    -9.3125  C.ar    1  <O>11      -0.0232
  29 H1        2.5403   -10.7931    -4.7349  H       1  <O>11       0.0407
  30 H2        3.7009    -9.9127    -3.7118  H       1  <O>11       0.0407
  31 H3        4.8380   -10.4180    -6.1170  H       1  <O>11       0.1728
  32 H4        4.4200    -7.9340    -7.6997  H       1  <O>11       0.1731
  33 H5       11.3183    -5.0704    -8.8762  H       1  <O>11       0.0444
  34 H6       12.5169    -6.3136    -9.3052  H       1  <O>11       0.0444
  35 H7       11.1381    -4.3882   -11.2082  H       1  <O>11       0.0278
  36 H8       12.8411    -4.3380   -10.6914  H       1  <O>11       0.0278
  37 H9       12.5263    -5.3513   -12.9511  H       1  <O>11       0.0266
  38 H10      13.2849    -6.4606   -11.7844  H       1  <O>11       0.0266
  39 H11      10.3861    -6.4338   -12.6867  H       1  <O>11       0.0278
  40 H12      11.6092    -7.6822   -13.0224  H       1  <O>11       0.0278
  41 H13       9.9922    -8.3007   -11.2188  H       1  <O>11       0.0444
  42 H14      11.6947    -8.3157   -10.7014  H       1  <O>11       0.0444
  43 H15       3.0131    -8.0264    -2.4414  H       1  <O>11       0.0620
  44 H16       1.1852    -6.8331    -1.3698  H       1  <O>11       0.0618
  45 H17      -1.1031    -7.1900    -2.1087  H       1  <O>11       0.0618
  46 H18      -1.5541    -8.7434    -3.9212  H       1  <O>11       0.0618
  47 H19       0.2647    -9.9350    -5.0020  H       1  <O>11       0.0620
  48 H20       4.8748    -9.4471   -10.7622  H       1  <O>11       0.0625
  49 H21       5.6697    -8.2351   -12.7098  H       1  <O>11       0.0618
  50 H22       7.5403    -6.6948   -12.5090  H       1  <O>11       0.0637
  51 H23       7.8218    -7.5711    -8.3985  H       1  <O>11       0.0644
@<TRIPOS>BOND
     1     1     2    2
     2     2     3    1
     3     3     4    1
     4     4     5   ar
     5     5     6   ar
     6     6     7   ar
     7     7     8   ar
     8     8     9   ar
     9     4     9   ar
    10     2    10   am
    11    10    11    1
    12    11    12   am
    13    12    13    2
    14    12    14    1
    15    14    15   ar
    16    15    16   ar
    17    16    17   ar
    18    17    18   ar
    19    18    19    1
    20    19    20    2
    21    19    21    2
    22    19    22    1
    23    22    23    1
    24    23    24    1
    25    24    25    1
    26    25    26    1
    27    26    27    1
    28    22    27    1
    29    18    28   ar
    30    14    28   ar
    31     3    29    1
    32     3    30    1
    33    10    31    1
    34    11    32    1
    35    23    33    1
    36    23    34    1
    37    24    35    1
    38    24    36    1
    39    25    37    1
    40    25    38    1
    41    26    39    1
    42    26    40    1
    43    27    41    1
    44    27    42    1
    45     5    43    1
    46     6    44    1
    47     7    45    1
    48     8    46    1
    49     9    47    1
    50    15    48    1
    51    16    49    1
    52    17    50    1
    53    28    51    1
@<TRIPOS>MOLECULE
mol94_1_5
 51 53 0 0 0
SMALL
USER_CHARGES
****
VDW energy = 108.23
@<TRIPOS>ATOM
   1 O1        2.8275    -7.9910    -5.9239  O.2     1  <O>11      -0.2739
   2 C1        3.3598    -9.0478    -5.6186  C.2     1  <O>11       0.2334
   3 C2        2.8830    -9.8060    -4.4250  C.3     1  <O>11       0.0505
   4 C3        1.7687    -9.0742    -3.7903  C.ar    1  <O>11      -0.0386
   5 C4        0.4585    -9.3379    -4.1964  C.ar    1  <O>11      -0.0581
   6 C5       -0.6006    -8.6391    -3.6081  C.ar    1  <O>11      -0.0615
   7 C6       -0.3514    -7.6863    -2.6175  C.ar    1  <O>11      -0.0617
   8 C7        0.9660    -7.4375    -2.2173  C.ar    1  <O>11      -0.0615
   9 C8        2.0306    -8.1303    -2.7961  C.ar    1  <O>11      -0.0581
  10 N1        4.3940    -9.5360    -6.3720  N.am    1  <O>11      -0.2339
  11 N2        4.8330    -8.8380    -7.4710  N.am    1  <O>11      -0.2304
  12 C9        5.8254    -9.3565    -8.2594  C.2     1  <O>11       0.2602
  13 O2        6.3203   -10.4399    -7.9840  O.2     1  <O>11      -0.2687
  14 C10       6.2913    -8.6176    -9.4254  C.ar    1  <O>11       0.0400
  15 C11       7.3515    -7.7034    -9.3087  C.ar    1  <O>11      -0.0495
  16 C12       7.7897    -6.9840   -10.4262  C.ar    1  <O>11      -0.0592
  17 C13       7.1780    -7.1741   -11.6681  C.ar    1  <O>11      -0.0353
  18 C14       6.1262    -8.0902   -11.7862  C.ar    1  <O>11       0.1062
  19 S1        5.3604    -8.3256   -13.3533  S.O2    1  <O>11       0.0609
  20 O3        5.4055    -9.9359   -13.7543  O.2     1  <O>11      -0.1528
  21 O4        6.1739    -7.4452   -14.5040  O.2     1  <O>11      -0.1528
  22 N3        3.7897    -7.8200   -13.2807  N.3     1  <O>11      -0.1766
  23 C15       3.1163    -8.1594   -14.5666  C.3     1  <O>11       0.0205
  24 C16       3.7268    -7.3986   -15.7359  C.3     1  <O>11      -0.0385
  25 C17       3.6845    -5.8940   -15.4895  C.3     1  <O>11      -0.0506
  26 C18       4.3452    -5.5412   -14.1616  C.3     1  <O>11      -0.0385
  27 C19       3.7686    -6.3550   -13.0076  C.3     1  <O>11       0.0205
  28 C20       5.6842    -8.8128   -10.6778  C.ar    1  <O>11      -0.0232
  29 H1        2.5403   -10.7931    -4.7349  H       1  <O>11       0.0407
  30 H2        3.7009    -9.9127    -3.7118  H       1  <O>11       0.0407
  31 H3        4.8380   -10.4180    -6.1170  H       1  <O>11       0.1728
  32 H4        4.4200    -7.9340    -7.6997  H       1  <O>11       0.1731
  33 H5        3.2179    -9.2288   -14.7485  H       1  <O>11       0.0444
  34 H6        2.0595    -7.9028   -14.4911  H       1  <O>11       0.0444
  35 H7        4.7648    -7.7095   -15.8599  H       1  <O>11       0.0278
  36 H8        3.1675    -7.6281   -16.6420  H       1  <O>11       0.0278
  37 H9        4.2111    -5.3867   -16.2962  H       1  <O>11       0.0266
  38 H10       2.6455    -5.5667   -15.4693  H       1  <O>11       0.0266
  39 H11       5.4139    -5.7414   -14.2347  H       1  <O>11       0.0278
  40 H12       4.1872    -4.4817   -13.9597  H       1  <O>11       0.0278
  41 H13       4.3570    -6.1573   -12.1122  H       1  <O>11       0.0444
  42 H14       2.7377    -6.0448   -12.8414  H       1  <O>11       0.0444
  43 H15       0.2732   -10.0439    -4.9259  H       1  <O>11       0.0620
  44 H16      -1.5701    -8.8282    -3.9071  H       1  <O>11       0.0618
  45 H17      -1.1329    -7.1700    -2.1842  H       1  <O>11       0.0618
  46 H18       1.1527    -6.7337    -1.4860  H       1  <O>11       0.0618
  47 H19       2.9997    -7.9467    -2.4924  H       1  <O>11       0.0620
  48 H20       7.8093    -7.5616    -8.3947  H       1  <O>11       0.0625
  49 H21       8.5667    -6.3113   -10.3329  H       1  <O>11       0.0618
  50 H22       7.4995    -6.6428   -12.4924  H       1  <O>11       0.0637
  51 H23       4.9119    -9.4901   -10.7774  H       1  <O>11       0.0644
@<TRIPOS>BOND
     1     1     2    2
     2     2     3    1
     3     3     4    1
     4     4     5   ar
     5     5     6   ar
     6     6     7   ar
     7     7     8   ar
     8     8     9   ar
     9     4     9   ar
    10     2    10   am
    11    10    11    1
    12    11    12   am
    13    12    13    2
    14    12    14    1
    15    14    15   ar
    16    15    16   ar
    17    16    17   ar
    18    17    18   ar
    19    18    19    1
    20    19    20    2
    21    19    21    2
    22    19    22    1
    23    22    23    1
    24    23    24    1
    25    24    25    1
    26    25    26    1
    27    26    27    1
    28    22    27    1
    29    18    28   ar
    30    14    28   ar
    31     3    29    1
    32     3    30    1
    33    10    31    1
    34    11    32    1
    35    23    33    1
    36    23    34    1
    37    24    35    1
    38    24    36    1
    39    25    37    1
    40    25    38    1
    41    26    39    1
    42    26    40    1
    43    27    41    1
    44    27    42    1
    45     5    43    1
    46     6    44    1
    47     7    45    1
    48     8    46    1
    49     9    47    1
    50    15    48    1
    51    16    49    1
    52    17    50    1
    53    28    51    1
@<TRIPOS>MOLECULE
mol94_1_6
 51 53 0 0 0
SMALL
USER_CHARGES
****
VDW energy = 108.25
@<TRIPOS>ATOM
   1 O1        2.8275    -7.9910    -5.9239  O.2     1  <O>11      -0.2739
   2 C1        3.3598    -9.0478    -5.6186  C.2     1  <O>11       0.2334
   3 C2        2.8830    -9.8060    -4.4250  C.3     1  <O>11       0.0505
   4 C3        1.7687    -9.0742    -3.7903  C.ar    1  <O>11      -0.0386
   5 C4        2.0413    -8.1796    -2.7528  C.ar    1  <O>11      -0.0581
   6 C5        0.9890    -7.4928    -2.1389  C.ar    1  <O>11      -0.0615
   7 C6       -0.3265    -7.6961    -2.5625  C.ar    1  <O>11      -0.0617
   8 C7       -0.5830    -8.5912    -3.6068  C.ar    1  <O>11      -0.0615
   9 C8        0.4595    -9.2806    -4.2282  C.ar    1  <O>11      -0.0581
  10 N1        4.3940    -9.5360    -6.3720  N.am    1  <O>11      -0.2339
  11 N2        4.8330    -8.8380    -7.4710  N.am    1  <O>11      -0.2304
  12 C9        5.8254    -9.3565    -8.2594  C.2     1  <O>11       0.2602
  13 O2        6.3203   -10.4399    -7.9840  O.2     1  <O>11      -0.2687
  14 C10       6.2913    -8.6176    -9.4254  C.ar    1  <O>11       0.0400
  15 C11       7.3515    -7.7034    -9.3087  C.ar    1  <O>11      -0.0495
  16 C12       7.7897    -6.9840   -10.4262  C.ar    1  <O>11      -0.0592
  17 C13       7.1780    -7.1741   -11.6681  C.ar    1  <O>11      -0.0353
  18 C14       6.1262    -8.0902   -11.7862  C.ar    1  <O>11       0.1062
  19 S1        5.3604    -8.3256   -13.3533  S.O2    1  <O>11       0.0609
  20 O3        5.4055    -9.9359   -13.7543  O.2     1  <O>11      -0.1528
  21 O4        6.1739    -7.4452   -14.5040  O.2     1  <O>11      -0.1528
  22 N3        3.7897    -7.8200   -13.2807  N.3     1  <O>11      -0.1766
  23 C15       3.1163    -8.1594   -14.5666  C.3     1  <O>11       0.0205
  24 C16       3.7268    -7.3986   -15.7359  C.3     1  <O>11      -0.0385
  25 C17       3.6845    -5.8940   -15.4895  C.3     1  <O>11      -0.0506
  26 C18       4.3452    -5.5412   -14.1616  C.3     1  <O>11      -0.0385
  27 C19       3.7686    -6.3550   -13.0076  C.3     1  <O>11       0.0205
  28 C20       5.6842    -8.8128   -10.6778  C.ar    1  <O>11      -0.0232
  29 H1        2.5403   -10.7931    -4.7349  H       1  <O>11       0.0407
  30 H2        3.7009    -9.9127    -3.7118  H       1  <O>11       0.0407
  31 H3        4.8380   -10.4180    -6.1170  H       1  <O>11       0.1728
  32 H4        4.4200    -7.9340    -7.6997  H       1  <O>11       0.1731
  33 H5        3.2179    -9.2288   -14.7485  H       1  <O>11       0.0444
  34 H6        2.0595    -7.9028   -14.4911  H       1  <O>11       0.0444
  35 H7        4.7648    -7.7095   -15.8599  H       1  <O>11       0.0278
  36 H8        3.1675    -7.6281   -16.6420  H       1  <O>11       0.0278
  37 H9        4.2111    -5.3867   -16.2962  H       1  <O>11       0.0266
  38 H10       2.6455    -5.5667   -15.4693  H       1  <O>11       0.0266
  39 H11       5.4139    -5.7414   -14.2347  H       1  <O>11       0.0278
  40 H12       4.1872    -4.4817   -13.9597  H       1  <O>11       0.0278
  41 H13       4.3570    -6.1573   -12.1122  H       1  <O>11       0.0444
  42 H14       2.7377    -6.0448   -12.8414  H       1  <O>11       0.0444
  43 H15       3.0131    -8.0264    -2.4414  H       1  <O>11       0.0620
  44 H16       1.1852    -6.8331    -1.3698  H       1  <O>11       0.0618
  45 H17      -1.1031    -7.1900    -2.1087  H       1  <O>11       0.0618
  46 H18      -1.5541    -8.7434    -3.9212  H       1  <O>11       0.0618
  47 H19       0.2647    -9.9350    -5.0020  H       1  <O>11       0.0620
  48 H20       7.8093    -7.5616    -8.3947  H       1  <O>11       0.0625
  49 H21       8.5667    -6.3113   -10.3329  H       1  <O>11       0.0618
  50 H22       7.4995    -6.6428   -12.4924  H       1  <O>11       0.0637
  51 H23       4.9119    -9.4901   -10.7774  H       1  <O>11       0.0644
@<TRIPOS>BOND
     1     1     2    2
     2     2     3    1
     3     3     4    1
     4     4     5   ar
     5     5     6   ar
     6     6     7   ar
     7     7     8   ar
     8     8     9   ar
     9     4     9   ar
    10     2    10   am
    11    10    11    1
    12    11    12   am
    13    12    13    2
    14    12    14    1
    15    14    15   ar
    16    15    16   ar
    17    16    17   ar
    18    17    18   ar
    19    18    19    1
    20    19    20    2
    21    19    21    2
    22    19    22    1
    23    22    23    1
    24    23    24    1
    25    24    25    1
    26    25    26    1
    27    26    27    1
    28    22    27    1
    29    18    28   ar
    30    14    28   ar
    31     3    29    1
    32     3    30    1
    33    10    31    1
    34    11    32    1
    35    23    33    1
    36    23    34    1
    37    24    35    1
    38    24    36    1
    39    25    37    1
    40    25    38    1
    41    26    39    1
    42    26    40    1
    43    27    41    1
    44    27    42    1
    45     5    43    1
    46     6    44    1
    47     7    45    1
    48     8    46    1
    49     9    47    1
    50    15    48    1
    51    16    49    1
    52    17    50    1
    53    28    51    1
@<TRIPOS>MOLECULE
mol94_1_7
 51 53 0 0 0
SMALL
USER_CHARGES
****
VDW energy = 108.27
@<TRIPOS>ATOM
   1 O1        2.8275    -7.9910    -5.9239  O.2     1  <O>11      -0.2739
   2 C1        3.3598    -9.0478    -5.6186  C.2     1  <O>11       0.2334
   3 C2        2.8830    -9.8060    -4.4250  C.3     1  <O>11       0.0505
   4 C3        1.7378   -10.6559    -4.8073  C.ar    1  <O>11      -0.0386
   5 C4        0.4397   -10.1638    -4.6530  C.ar    1  <O>11      -0.0581
   6 C5       -0.6499   -10.9684    -5.0014  C.ar    1  <O>11      -0.0615
   7 C6       -0.4425   -12.2549    -5.5047  C.ar    1  <O>11      -0.0617
   8 C7        0.8639   -12.7316    -5.6589  C.ar    1  <O>11      -0.0615
   9 C8        1.9588   -11.9366    -5.3164  C.ar    1  <O>11      -0.0581
  10 N1        4.3940    -9.5360    -6.3720  N.am    1  <O>11      -0.2339
  11 N2        4.8330    -8.8380    -7.4710  N.am    1  <O>11      -0.2304
  12 C9        5.8254    -9.3565    -8.2594  C.2     1  <O>11       0.2602
  13 O2        6.2155    -8.7351    -9.2372  O.2     1  <O>11      -0.2687
  14 C10       6.4158   -10.6480    -7.9332  C.ar    1  <O>11       0.0400
  15 C11       7.5236   -10.7245    -7.0728  C.ar    1  <O>11      -0.0495
  16 C12       8.0985   -11.9641    -6.7706  C.ar    1  <O>11      -0.0592
  17 C13       7.5708   -13.1358    -7.3196  C.ar    1  <O>11      -0.0353
  18 C14       6.4625   -13.0604    -8.1715  C.ar    1  <O>11       0.1062
  19 S1        5.8021   -14.5398    -8.8591  S.O2    1  <O>11       0.0609
  20 O3        4.1854   -14.6443    -8.4967  O.2     1  <O>11      -0.1528
  21 O4        6.5989   -15.8504    -8.2198  O.2     1  <O>11      -0.1528
  22 N3        5.9988   -14.5211   -10.4989  N.3     1  <O>11      -0.1766
  23 C15       5.3072   -15.7075   -11.0788  C.3     1  <O>11       0.0205
  24 C16       5.9460   -17.0097   -10.6151  C.3     1  <O>11      -0.0385
  25 C17       7.4332   -17.0383   -10.9525  C.3     1  <O>11      -0.0506
  26 C18       8.1429   -15.8126   -10.3881  C.3     1  <O>11      -0.0385
  27 C19       7.4567   -14.5168   -10.8080  C.3     1  <O>11       0.0205
  28 C20       5.8821   -11.8292    -8.4767  C.ar    1  <O>11      -0.0232
  29 H1        3.6906   -10.4324    -4.0463  H       1  <O>11       0.0407
  30 H2        2.5727    -9.1051    -3.6495  H       1  <O>11       0.0407
  31 H3        4.8380   -10.4180    -6.1170  H       1  <O>11       0.1728
  32 H4        4.4200    -7.9340    -7.6996  H       1  <O>11       0.1731
  33 H5        4.2628   -15.6956   -10.7688  H       1  <O>11       0.0444
  34 H6        5.3637   -15.6536   -12.1661  H       1  <O>11       0.0444
  35 H7        5.8245   -17.1010    -9.5351  H       1  <O>11       0.0278
  36 H8        5.4515   -17.8454   -11.1088  H       1  <O>11       0.0278
  37 H9        7.8773   -17.9361   -10.5257  H       1  <O>11       0.0266
  38 H10       7.5513   -17.0520   -12.0355  H       1  <O>11       0.0266
  39 H11       8.1434   -15.8748    -9.3001  H       1  <O>11       0.0278
  40 H12       9.1705   -15.8018   -10.7516  H       1  <O>11       0.0278
  41 H13       7.9242   -13.6866   -10.2795  H       1  <O>11       0.0444
  42 H14       7.5865   -14.3840   -11.8813  H       1  <O>11       0.0444
  43 H15       0.2856    -9.2123    -4.2842  H       1  <O>11       0.0620
  44 H16      -1.6109   -10.6103    -4.8861  H       1  <O>11       0.0618
  45 H17      -1.2465   -12.8490    -5.7608  H       1  <O>11       0.0618
  46 H18       1.0196   -13.6818    -6.0301  H       1  <O>11       0.0618
  47 H19       2.9202   -12.2915    -5.4381  H       1  <O>11       0.0620
  48 H20       7.9152    -9.8628    -6.6617  H       1  <O>11       0.0625
  49 H21       8.9144   -12.0130    -6.1406  H       1  <O>11       0.0618
  50 H22       7.9952   -14.0502    -7.0986  H       1  <O>11       0.0637
  51 H23       5.0615   -11.7857    -9.1010  H       1  <O>11       0.0644
@<TRIPOS>BOND
     1     1     2    2
     2     2     3    1
     3     3     4    1
     4     4     5   ar
     5     5     6   ar
     6     6     7   ar
     7     7     8   ar
     8     8     9   ar
     9     4     9   ar
    10     2    10   am
    11    10    11    1
    12    11    12   am
    13    12    13    2
    14    12    14    1
    15    14    15   ar
    16    15    16   ar
    17    16    17   ar
    18    17    18   ar
    19    18    19    1
    20    19    20    2
    21    19    21    2
    22    19    22    1
    23    22    23    1
    24    23    24    1
    25    24    25    1
    26    25    26    1
    27    26    27    1
    28    22    27    1
    29    18    28   ar
    30    14    28   ar
    31     3    29    1
    32     3    30    1
    33    10    31    1
    34    11    32    1
    35    23    33    1
    36    23    34    1
    37    24    35    1
    38    24    36    1
    39    25    37    1
    40    25    38    1
    41    26    39    1
    42    26    40    1
    43    27    41    1
    44    27    42    1
    45     5    43    1
    46     6    44    1
    47     7    45    1
    48     8    46    1
    49     9    47    1
    50    15    48    1
    51    16    49    1
    52    17    50    1
    53    28    51    1
@<TRIPOS>MOLECULE
mol94_1_8
 51 53 0 0 0
SMALL
USER_CHARGES
****
VDW energy = 108.45
@<TRIPOS>ATOM
   1 O1        2.8275    -7.9910    -5.9239  O.2     1  <O>11      -0.2739
   2 C1        3.3598    -9.0478    -5.6186  C.2     1  <O>11       0.2334
   3 C2        2.8830    -9.8060    -4.4250  C.3     1  <O>11       0.0505
   4 C3        1.7687    -9.0742    -3.7903  C.ar    1  <O>11      -0.0386
   5 C4        2.0413    -8.1796    -2.7528  C.ar    1  <O>11      -0.0581
   6 C5        0.9890    -7.4928    -2.1389  C.ar    1  <O>11      -0.0615
   7 C6       -0.3265    -7.6961    -2.5625  C.ar    1  <O>11      -0.0617
   8 C7       -0.5830    -8.5912    -3.6068  C.ar    1  <O>11      -0.0615
   9 C8        0.4595    -9.2806    -4.2282  C.ar    1  <O>11      -0.0581
  10 N1        4.3940    -9.5360    -6.3720  N.am    1  <O>11      -0.2339
  11 N2        4.8330    -8.8380    -7.4710  N.am    1  <O>11      -0.2304
  12 C9        5.8254    -9.3565    -8.2594  C.2     1  <O>11       0.2602
  13 O2        6.3203   -10.4399    -7.9840  O.2     1  <O>11      -0.2687
  14 C10       6.2913    -8.6176    -9.4254  C.ar    1  <O>11       0.0400
  15 C11       7.3515    -7.7034    -9.3087  C.ar    1  <O>11      -0.0495
  16 C12       7.7897    -6.9840   -10.4262  C.ar    1  <O>11      -0.0592
  17 C13       7.1780    -7.1741   -11.6681  C.ar    1  <O>11      -0.0353
  18 C14       6.1262    -8.0902   -11.7862  C.ar    1  <O>11       0.1062
  19 S1        5.3604    -8.3256   -13.3533  S.O2    1  <O>11       0.0609
  20 O3        5.4438    -6.9163   -14.2267  O.2     1  <O>11      -0.1528
  21 O4        3.7683    -8.7473   -13.1329  O.2     1  <O>11      -0.1528
  22 N3        6.1410    -9.5285   -14.1729  N.3     1  <O>11      -0.1766
  23 C15       5.5759    -9.6161   -15.5497  C.3     1  <O>11       0.0205
  24 C16       4.1116   -10.0330   -15.5281  C.3     1  <O>11      -0.0385
  25 C17       3.9317   -11.3555   -14.7898  C.3     1  <O>11      -0.0506
  26 C18       4.5335   -11.2840   -13.3908  C.3     1  <O>11      -0.0385
  27 C19       5.9813   -10.8049   -13.4203  C.3     1  <O>11       0.0205
  28 C20       5.6842    -8.8128   -10.6778  C.ar    1  <O>11      -0.0232
  29 H1        2.5403   -10.7931    -4.7349  H       1  <O>11       0.0407
  30 H2        3.7009    -9.9127    -3.7118  H       1  <O>11       0.0407
  31 H3        4.8380   -10.4180    -6.1170  H       1  <O>11       0.1728
  32 H4        4.4200    -7.9340    -7.6997  H       1  <O>11       0.1731
  33 H5        5.6594    -8.6416   -16.0297  H       1  <O>11       0.0444
  34 H6        6.1445   -10.3513   -16.1194  H       1  <O>11       0.0444
  35 H7        3.5291    -9.2617   -15.0229  H       1  <O>11       0.0278
  36 H8        3.7571   -10.1445   -16.5521  H       1  <O>11       0.0278
  37 H9        2.8686   -11.5765   -14.7103  H       1  <O>11       0.0266
  38 H10       4.4278   -12.1461   -15.3517  H       1  <O>11       0.0266
  39 H11       3.9454   -10.5921   -12.7884  H       1  <O>11       0.0278
  40 H12       4.4993   -12.2764   -12.9412  H       1  <O>11       0.0278
  41 H13       6.3198   -10.6520   -12.3960  H       1  <O>11       0.0444
  42 H14       6.5936   -11.5703   -13.8954  H       1  <O>11       0.0444
  43 H15       3.0131    -8.0264    -2.4414  H       1  <O>11       0.0620
  44 H16       1.1852    -6.8331    -1.3698  H       1  <O>11       0.0618
  45 H17      -1.1031    -7.1900    -2.1087  H       1  <O>11       0.0618
  46 H18      -1.5541    -8.7434    -3.9212  H       1  <O>11       0.0618
  47 H19       0.2647    -9.9350    -5.0020  H       1  <O>11       0.0620
  48 H20       7.8093    -7.5616    -8.3947  H       1  <O>11       0.0625
  49 H21       8.5667    -6.3113   -10.3329  H       1  <O>11       0.0618
  50 H22       7.4995    -6.6428   -12.4924  H       1  <O>11       0.0637
  51 H23       4.9119    -9.4901   -10.7774  H       1  <O>11       0.0644
@<TRIPOS>BOND
     1     1     2    2
     2     2     3    1
     3     3     4    1
     4     4     5   ar
     5     5     6   ar
     6     6     7   ar
     7     7     8   ar
     8     8     9   ar
     9     4     9   ar
    10     2    10   am
    11    10    11    1
    12    11    12   am
    13    12    13    2
    14    12    14    1
    15    14    15   ar
    16    15    16   ar
    17    16    17   ar
    18    17    18   ar
    19    18    19    1
    20    19    20    2
    21    19    21    2
    22    19    22    1
    23    22    23    1
    24    23    24    1
    25    24    25    1
    26    25    26    1
    27    26    27    1
    28    22    27    1
    29    18    28   ar
    30    14    28   ar
    31     3    29    1
    32     3    30    1
    33    10    31    1
    34    11    32    1
    35    23    33    1
    36    23    34    1
    37    24    35    1
    38    24    36    1
    39    25    37    1
    40    25    38    1
    41    26    39    1
    42    26    40    1
    43    27    41    1
    44    27    42    1
    45     5    43    1
    46     6    44    1
    47     7    45    1
    48     8    46    1
    49     9    47    1
    50    15    48    1
    51    16    49    1
    52    17    50    1
    53    28    51    1
@<TRIPOS>MOLECULE
mol94_1_9
 51 53 0 0 0
SMALL
USER_CHARGES
****
VDW energy = 109.23
@<TRIPOS>ATOM
   1 O1        2.8275    -7.9910    -5.9239  O.2     1  <O>11      -0.2739
   2 C1        3.3598    -9.0478    -5.6186  C.2     1  <O>11       0.2334
   3 C2        2.8830    -9.8060    -4.4250  C.3     1  <O>11       0.0505
   4 C3        1.7378   -10.6559    -4.8073  C.ar    1  <O>11      -0.0386
   5 C4        1.9723   -11.9577    -5.2559  C.ar    1  <O>11      -0.0581
   6 C5        0.8928   -12.7637    -5.6316  C.ar    1  <O>11      -0.0615
   7 C6       -0.4127   -12.2724    -5.5551  C.ar    1  <O>11      -0.0617
   8 C7       -0.6319   -10.9682    -5.0984  C.ar    1  <O>11      -0.0615
   9 C8        0.4377   -10.1556    -4.7189  C.ar    1  <O>11      -0.0581
  10 N1        4.3940    -9.5360    -6.3720  N.am    1  <O>11      -0.2339
  11 N2        4.8330    -8.8380    -7.4710  N.am    1  <O>11      -0.2304
  12 C9        5.8254    -9.3565    -8.2594  C.2     1  <O>11       0.2602
  13 O2        6.3203   -10.4399    -7.9840  O.2     1  <O>11      -0.2687
  14 C10       6.2913    -8.6176    -9.4254  C.ar    1  <O>11       0.0400
  15 C11       5.3773    -7.9304   -10.2414  C.ar    1  <O>11      -0.0495
  16 C12       5.8240    -7.2319   -11.3689  C.ar    1  <O>11      -0.0592
  17 C13       7.1842    -7.2094   -11.6880  C.ar    1  <O>11      -0.0353
  18 C14       8.0960    -7.8882   -10.8711  C.ar    1  <O>11       0.1062
  19 S1        9.8080    -7.8552   -11.2780  S.O2    1  <O>11       0.0609
  20 O3       10.6750    -7.2977    -9.9767  O.2     1  <O>11      -0.1528
  21 O4       10.0483    -6.8470   -12.5767  O.2     1  <O>11      -0.1528
  22 N3       10.3123    -9.3802   -11.6631  N.3     1  <O>11      -0.1766
  23 C15      11.7895    -9.3611   -11.8625  C.3     1  <O>11       0.0205
  24 C16      12.1824    -8.4980   -13.0539  C.3     1  <O>11      -0.0385
  25 C17      11.4763    -8.9654   -14.3226  C.3     1  <O>11      -0.0506
  26 C18       9.9663    -9.0162   -14.1177  C.3     1  <O>11      -0.0385
  27 C19       9.5885    -9.8314   -12.8852  C.3     1  <O>11       0.0205
  28 C20       7.6597    -8.5855    -9.7444  C.ar    1  <O>11      -0.0232
  29 H1        3.6906   -10.4324    -4.0463  H       1  <O>11       0.0407
  30 H2        2.5727    -9.1051    -3.6495  H       1  <O>11       0.0407
  31 H3        4.8380   -10.4180    -6.1170  H       1  <O>11       0.1728
  32 H4        4.4200    -7.9340    -7.6997  H       1  <O>11       0.1731
  33 H5       12.2631    -8.9630   -10.9657  H       1  <O>11       0.0444
  34 H6       12.1366   -10.3801   -12.0344  H       1  <O>11       0.0444
  35 H7       11.9025    -7.4635   -12.8518  H       1  <O>11       0.0278
  36 H8       13.2598    -8.5615   -13.2007  H       1  <O>11       0.0278
  37 H9       11.7038    -8.2732   -15.1316  H       1  <O>11       0.0266
  38 H10      11.8349    -9.9609   -14.5822  H       1  <O>11       0.0266
  39 H11       9.5921    -7.9999   -13.9966  H       1  <O>11       0.0278
  40 H12       9.5066    -9.4701   -14.9957  H       1  <O>11       0.0278
  41 H13       8.5171    -9.7310   -12.7147  H       1  <O>11       0.0444
  42 H14       9.8311   -10.8772   -13.0695  H       1  <O>11       0.0444
  43 H15       2.9361   -12.3226    -5.3096  H       1  <O>11       0.0620
  44 H16       1.0613   -13.7251    -5.9666  H       1  <O>11       0.0618
  45 H17      -1.2091   -12.8667    -5.8333  H       1  <O>11       0.0618
  46 H18      -1.5953   -10.6028    -5.0415  H       1  <O>11       0.0618
  47 H19       0.2693    -9.1966    -4.3771  H       1  <O>11       0.0620
  48 H20       4.3720    -7.9407   -10.0084  H       1  <O>11       0.0625
  49 H21       5.1469    -6.7322   -11.9662  H       1  <O>11       0.0618
  50 H22       7.5142    -6.6959   -12.5202  H       1  <O>11       0.0637
  51 H23       8.3413    -9.0774    -9.1455  H       1  <O>11       0.0644
@<TRIPOS>BOND
     1     1     2    2
     2     2     3    1
     3     3     4    1
     4     4     5   ar
     5     5     6   ar
     6     6     7   ar
     7     7     8   ar
     8     8     9   ar
     9     4     9   ar
    10     2    10   am
    11    10    11    1
    12    11    12   am
    13    12    13    2
    14    12    14    1
    15    14    15   ar
    16    15    16   ar
    17    16    17   ar
    18    17    18   ar
    19    18    19    1
    20    19    20    2
    21    19    21    2
    22    19    22    1
    23    22    23    1
    24    23    24    1
    25    24    25    1
    26    25    26    1
    27    26    27    1
    28    22    27    1
    29    18    28   ar
    30    14    28   ar
    31     3    29    1
    32     3    30    1
    33    10    31    1
    34    11    32    1
    35    23    33    1
    36    23    34    1
    37    24    35    1
    38    24    36    1
    39    25    37    1
    40    25    38    1
    41    26    39    1
    42    26    40    1
    43    27    41    1
    44    27    42    1
    45     5    43    1
    46     6    44    1
    47     7    45    1
    48     8    46    1
    49     9    47    1
    50    15    48    1
    51    16    49    1
    52    17    50    1
    53    28    51    1
@<TRIPOS>MOLECULE
mol94_1_10
 51 53 0 0 0
SMALL
USER_CHARGES
****
VDW energy = 109.27
@<TRIPOS>ATOM
   1 O1        2.8275    -7.9910    -5.9239  O.2     1  <O>11      -0.2739
   2 C1        3.3598    -9.0478    -5.6186  C.2     1  <O>11       0.2334
   3 C2        2.8830    -9.8060    -4.4250  C.3     1  <O>11       0.0505
   4 C3        1.7687    -9.0742    -3.7903  C.ar    1  <O>11      -0.0386
   5 C4        2.0413    -8.1796    -2.7528  C.ar    1  <O>11      -0.0581
   6 C5        0.9890    -7.4928    -2.1389  C.ar    1  <O>11      -0.0615
   7 C6       -0.3265    -7.6961    -2.5625  C.ar    1  <O>11      -0.0617
   8 C7       -0.5830    -8.5912    -3.6068  C.ar    1  <O>11      -0.0615
   9 C8        0.4595    -9.2806    -4.2282  C.ar    1  <O>11      -0.0581
  10 N1        4.3940    -9.5360    -6.3720  N.am    1  <O>11      -0.2339
  11 N2        4.8330    -8.8380    -7.4710  N.am    1  <O>11      -0.2304
  12 C9        5.8254    -9.3565    -8.2594  C.2     1  <O>11       0.2602
  13 O2        6.3203   -10.4399    -7.9840  O.2     1  <O>11      -0.2687
  14 C10       6.2913    -8.6176    -9.4254  C.ar    1  <O>11       0.0400
  15 C11       5.6709    -8.7965   -10.6730  C.ar    1  <O>11      -0.0495
  16 C12       6.1276    -8.0964   -11.7954  C.ar    1  <O>11      -0.0592
  17 C13       7.2019    -7.2102   -11.6815  C.ar    1  <O>11      -0.0353
  18 C14       7.8158    -7.0264   -10.4369  C.ar    1  <O>11       0.1062
  19 S1        9.1678    -5.9081   -10.2997  S.O2    1  <O>11       0.0609
  20 O3        9.9936    -5.8598   -11.7391  O.2     1  <O>11      -0.1528
  21 O4       10.1885    -6.4201    -9.0925  O.2     1  <O>11      -0.1528
  22 N3        8.6008    -4.3993    -9.9393  N.3     1  <O>11      -0.1766
  23 C15       9.7400    -3.4383    -9.9705  C.3     1  <O>11       0.0205
  24 C16      10.7641    -3.7490    -8.8872  C.3     1  <O>11      -0.0385
  25 C17      10.1124    -3.7632    -7.5083  C.3     1  <O>11      -0.0506
  26 C18       8.9273    -4.7219    -7.4763  C.3     1  <O>11      -0.0385
  27 C19       7.9398    -4.4406    -8.6042  C.3     1  <O>11       0.0205
  28 C20       7.3659    -7.7188    -9.3125  C.ar    1  <O>11      -0.0232
  29 H1        2.5403   -10.7931    -4.7349  H       1  <O>11       0.0407
  30 H2        3.7009    -9.9127    -3.7118  H       1  <O>11       0.0407
  31 H3        4.8380   -10.4180    -6.1170  H       1  <O>11       0.1728
  32 H4        4.4200    -7.9340    -7.6997  H       1  <O>11       0.1731
  33 H5       10.2259    -3.4960   -10.9439  H       1  <O>11       0.0444
  34 H6        9.3564    -2.4297    -9.8155  H       1  <O>11       0.0444
  35 H7       11.2035    -4.7278    -9.0829  H       1  <O>11       0.0278
  36 H8       11.5446    -2.9895    -8.9056  H       1  <O>11       0.0278
  37 H9       10.8479    -4.0799    -6.7707  H       1  <O>11       0.0266
  38 H10       9.7652    -2.7585    -7.2694  H       1  <O>11       0.0266
  39 H11       9.2960    -5.7424    -7.5768  H       1  <O>11       0.0278
  40 H12       8.4125    -4.6142    -6.5215  H       1  <O>11       0.0278
  41 H13       7.1847    -5.2258    -8.6115  H       1  <O>11       0.0444
  42 H14       7.4629    -3.4788    -8.4199  H       1  <O>11       0.0444
  43 H15       3.0131    -8.0264    -2.4414  H       1  <O>11       0.0620
  44 H16       1.1852    -6.8331    -1.3698  H       1  <O>11       0.0618
  45 H17      -1.1031    -7.1900    -2.1087  H       1  <O>11       0.0618
  46 H18      -1.5541    -8.7434    -3.9212  H       1  <O>11       0.0618
  47 H19       0.2647    -9.9350    -5.0020  H       1  <O>11       0.0620
  48 H20       4.8748    -9.4471   -10.7622  H       1  <O>11       0.0625
  49 H21       5.6697    -8.2351   -12.7098  H       1  <O>11       0.0618
  50 H22       7.5403    -6.6948   -12.5090  H       1  <O>11       0.0637
  51 H23       7.8218    -7.5711    -8.3985  H       1  <O>11       0.0644
@<TRIPOS>BOND
     1     1     2    2
     2     2     3    1
     3     3     4    1
     4     4     5   ar
     5     5     6   ar
     6     6     7   ar
     7     7     8   ar
     8     8     9   ar
     9     4     9   ar
    10     2    10   am
    11    10    11    1
    12    11    12   am
    13    12    13    2
    14    12    14    1
    15    14    15   ar
    16    15    16   ar
    17    16    17   ar
    18    17    18   ar
    19    18    19    1
    20    19    20    2
    21    19    21    2
    22    19    22    1
    23    22    23    1
    24    23    24    1
    25    24    25    1
    26    25    26    1
    27    26    27    1
    28    22    27    1
    29    18    28   ar
    30    14    28   ar
    31     3    29    1
    32     3    30    1
    33    10    31    1
    34    11    32    1
    35    23    33    1
    36    23    34    1
    37    24    35    1
    38    24    36    1
    39    25    37    1
    40    25    38    1
    41    26    39    1
    42    26    40    1
    43    27    41    1
    44    27    42    1
    45     5    43    1
    46     6    44    1
    47     7    45    1
    48     8    46    1
    49     9    47    1
    50    15    48    1
    51    16    49    1
    52    17    50    1
    53    28    51    1
@<TRIPOS>MOLECULE
mol94_1_11
 51 53 0 0 0
SMALL
USER_CHARGES
****
VDW energy = 109.32
@<TRIPOS>ATOM
   1 O1        2.8275    -7.9910    -5.9239  O.2     1  <O>11      -0.2739
   2 C1        3.3598    -9.0478    -5.6186  C.2     1  <O>11       0.2334
   3 C2        2.8830    -9.8060    -4.4250  C.3     1  <O>11       0.0505
   4 C3        1.7687    -9.0742    -3.7903  C.ar    1  <O>11      -0.0386
   5 C4        2.0413    -8.1796    -2.7528  C.ar    1  <O>11      -0.0581
   6 C5        0.9890    -7.4928    -2.1389  C.ar    1  <O>11      -0.0615
   7 C6       -0.3265    -7.6961    -2.5625  C.ar    1  <O>11      -0.0617
   8 C7       -0.5830    -8.5912    -3.6068  C.ar    1  <O>11      -0.0615
   9 C8        0.4595    -9.2806    -4.2282  C.ar    1  <O>11      -0.0581
  10 N1        4.3940    -9.5360    -6.3720  N.am    1  <O>11      -0.2339
  11 N2        4.9930   -10.7240    -6.0292  N.am    1  <O>11      -0.2304
  12 C9        6.0667   -11.1808    -6.7460  C.2     1  <O>11       0.2602
  13 O2        6.5995   -12.2379    -6.4404  O.2     1  <O>11      -0.2687
  14 C10       6.5741   -10.4075    -7.8718  C.ar    1  <O>11       0.0400
  15 C11       6.0561   -10.6094    -9.1618  C.ar    1  <O>11      -0.0495
  16 C12       6.5532    -9.8759   -10.2450  C.ar    1  <O>11      -0.0592
  17 C13       7.5660    -8.9332   -10.0494  C.ar    1  <O>11      -0.0353
  18 C14       8.0775    -8.7268    -8.7628  C.ar    1  <O>11       0.1062
  19 S1        9.3524    -7.5376    -8.5229  S.O2    1  <O>11       0.0609
  20 O3        8.8804    -6.4471    -7.3636  O.2     1  <O>11      -0.1528
  21 O4        9.6389    -6.7383    -9.9513  O.2     1  <O>11      -0.1528
  22 N3       10.7325    -8.3006    -8.0317  N.3     1  <O>11      -0.1766
  23 C15      11.7560    -7.2708    -7.6935  C.3     1  <O>11       0.0205
  24 C16      12.1615    -6.4616    -8.9180  C.3     1  <O>11      -0.0385
  25 C17      12.6663    -7.3733   -10.0318  C.3     1  <O>11      -0.0506
  26 C18      11.6372    -8.4482   -10.3635  C.3     1  <O>11      -0.0385
  27 C19      11.1920    -9.2100    -9.1194  C.3     1  <O>11       0.0205
  28 C20       7.5866    -9.4524    -7.6772  C.ar    1  <O>11      -0.0232
  29 H1        2.5403   -10.7931    -4.7349  H       1  <O>11       0.0407
  30 H2        3.7009    -9.9127    -3.7118  H       1  <O>11       0.0407
  31 H3        4.7194    -9.0172    -7.1875  H       1  <O>11       0.1728
  32 H4        4.6382   -11.2656    -5.2413  H       1  <O>11       0.1731
  33 H5       11.3452    -6.5958    -6.9434  H       1  <O>11       0.0444
  34 H6       12.6383    -7.7679    -7.2901  H       1  <O>11       0.0444
  35 H7       11.2963    -5.9045    -9.2793  H       1  <O>11       0.0278
  36 H8       12.9522    -5.7658    -8.6401  H       1  <O>11       0.0278
  37 H9       12.8575    -6.7754   -10.9213  H       1  <O>11       0.0266
  38 H10      13.5901    -7.8515    -9.7078  H       1  <O>11       0.0266
  39 H11      10.7668    -7.9755   -10.8177  H       1  <O>11       0.0278
  40 H12      12.0779    -9.1522   -11.0695  H       1  <O>11       0.0278
  41 H13      10.3716    -9.8736    -9.3908  H       1  <O>11       0.0444
  42 H14      12.0305    -9.7999    -8.7514  H       1  <O>11       0.0444
  43 H15       3.0131    -8.0264    -2.4414  H       1  <O>11       0.0620
  44 H16       1.1852    -6.8331    -1.3698  H       1  <O>11       0.0618
  45 H17      -1.1031    -7.1900    -2.1087  H       1  <O>11       0.0618
  46 H18      -1.5541    -8.7434    -3.9212  H       1  <O>11       0.0618
  47 H19       0.2647    -9.9350    -5.0020  H       1  <O>11       0.0620
  48 H20       5.3055   -11.3017    -9.3115  H       1  <O>11       0.0625
  49 H21       6.1708   -10.0316   -11.1908  H       1  <O>11       0.0618
  50 H22       7.9343    -8.3930   -10.8479  H       1  <O>11       0.0637
  51 H23       7.9665    -9.2879    -6.7318  H       1  <O>11       0.0644
@<TRIPOS>BOND
     1     1     2    2
     2     2     3    1
     3     3     4    1
     4     4     5   ar
     5     5     6   ar
     6     6     7   ar
     7     7     8   ar
     8     8     9   ar
     9     4     9   ar
    10     2    10   am
    11    10    11    1
    12    11    12   am
    13    12    13    2
    14    12    14    1
    15    14    15   ar
    16    15    16   ar
    17    16    17   ar
    18    17    18   ar
    19    18    19    1
    20    19    20    2
    21    19    21    2
    22    19    22    1
    23    22    23    1
    24    23    24    1
    25    24    25    1
    26    25    26    1
    27    26    27    1
    28    22    27    1
    29    18    28   ar
    30    14    28   ar
    31     3    29    1
    32     3    30    1
    33    10    31    1
    34    11    32    1
    35    23    33    1
    36    23    34    1
    37    24    35    1
    38    24    36    1
    39    25    37    1
    40    25    38    1
    41    26    39    1
    42    26    40    1
    43    27    41    1
    44    27    42    1
    45     5    43    1
    46     6    44    1
    47     7    45    1
    48     8    46    1
    49     9    47    1
    50    15    48    1
    51    16    49    1
    52    17    50    1
    53    28    51    1
@<TRIPOS>MOLECULE
mol94_1_12
 51 53 0 0 0
SMALL
USER_CHARGES
****
VDW energy = 109.76
@<TRIPOS>ATOM
   1 O1        2.8275    -7.9910    -5.9239  O.2     1  <O>11      -0.2739
   2 C1        3.3598    -9.0478    -5.6186  C.2     1  <O>11       0.2334
   3 C2        2.8830    -9.8060    -4.4250  C.3     1  <O>11       0.0505
   4 C3        1.7687    -9.0742    -3.7903  C.ar    1  <O>11      -0.0386
   5 C4        2.0413    -8.1796    -2.7528  C.ar    1  <O>11      -0.0581
   6 C5        0.9890    -7.4928    -2.1389  C.ar    1  <O>11      -0.0615
   7 C6       -0.3265    -7.6961    -2.5625  C.ar    1  <O>11      -0.0617
   8 C7       -0.5830    -8.5912    -3.6068  C.ar    1  <O>11      -0.0615
   9 C8        0.4595    -9.2806    -4.2282  C.ar    1  <O>11      -0.0581
  10 N1        4.3940    -9.5360    -6.3720  N.am    1  <O>11      -0.2339
  11 N2        4.8330    -8.8380    -7.4710  N.am    1  <O>11      -0.2304
  12 C9        5.8254    -9.3565    -8.2594  C.2     1  <O>11       0.2602
  13 O2        6.2155    -8.7351    -9.2372  O.2     1  <O>11      -0.2687
  14 C10       6.4158   -10.6480    -7.9332  C.ar    1  <O>11       0.0400
  15 C11       7.5236   -10.7245    -7.0728  C.ar    1  <O>11      -0.0495
  16 C12       8.0985   -11.9641    -6.7706  C.ar    1  <O>11      -0.0592
  17 C13       7.5708   -13.1358    -7.3196  C.ar    1  <O>11      -0.0353
  18 C14       6.4625   -13.0604    -8.1715  C.ar    1  <O>11       0.1062
  19 S1        5.8021   -14.5398    -8.8591  S.O2    1  <O>11       0.0609
  20 O3        4.1854   -14.6443    -8.4967  O.2     1  <O>11      -0.1528
  21 O4        6.5989   -15.8504    -8.2198  O.2     1  <O>11      -0.1528
  22 N3        5.9988   -14.5211   -10.4989  N.3     1  <O>11      -0.1766
  23 C15       5.3072   -15.7075   -11.0788  C.3     1  <O>11       0.0205
  24 C16       5.9460   -17.0097   -10.6151  C.3     1  <O>11      -0.0385
  25 C17       7.4332   -17.0383   -10.9525  C.3     1  <O>11      -0.0506
  26 C18       8.1429   -15.8126   -10.3881  C.3     1  <O>11      -0.0385
  27 C19       7.4567   -14.5168   -10.8080  C.3     1  <O>11       0.0205
  28 C20       5.8821   -11.8292    -8.4767  C.ar    1  <O>11      -0.0232
  29 H1        2.5403   -10.7931    -4.7349  H       1  <O>11       0.0407
  30 H2        3.7009    -9.9127    -3.7118  H       1  <O>11       0.0407
  31 H3        4.8380   -10.4180    -6.1170  H       1  <O>11       0.1728
  32 H4        4.4200    -7.9340    -7.6996  H       1  <O>11       0.1731
  33 H5        4.2628   -15.6956   -10.7688  H       1  <O>11       0.0444
  34 H6        5.3637   -15.6536   -12.1661  H       1  <O>11       0.0444
  35 H7        5.8245   -17.1010    -9.5351  H       1  <O>11       0.0278
  36 H8        5.4515   -17.8454   -11.1088  H       1  <O>11       0.0278
  37 H9        7.8773   -17.9361   -10.5257  H       1  <O>11       0.0266
  38 H10       7.5513   -17.0520   -12.0355  H       1  <O>11       0.0266
  39 H11       8.1434   -15.8748    -9.3001  H       1  <O>11       0.0278
  40 H12       9.1705   -15.8018   -10.7516  H       1  <O>11       0.0278
  41 H13       7.9242   -13.6866   -10.2795  H       1  <O>11       0.0444
  42 H14       7.5865   -14.3840   -11.8813  H       1  <O>11       0.0444
  43 H15       3.0131    -8.0264    -2.4414  H       1  <O>11       0.0620
  44 H16       1.1852    -6.8331    -1.3698  H       1  <O>11       0.0618
  45 H17      -1.1031    -7.1900    -2.1087  H       1  <O>11       0.0618
  46 H18      -1.5541    -8.7434    -3.9212  H       1  <O>11       0.0618
  47 H19       0.2647    -9.9350    -5.0020  H       1  <O>11       0.0620
  48 H20       7.9152    -9.8628    -6.6617  H       1  <O>11       0.0625
  49 H21       8.9144   -12.0130    -6.1406  H       1  <O>11       0.0618
  50 H22       7.9952   -14.0502    -7.0986  H       1  <O>11       0.0637
  51 H23       5.0615   -11.7857    -9.1010  H       1  <O>11       0.0644
@<TRIPOS>BOND
     1     1     2    2
     2     2     3    1
     3     3     4    1
     4     4     5   ar
     5     5     6   ar
     6     6     7   ar
     7     7     8   ar
     8     8     9   ar
     9     4     9   ar
    10     2    10   am
    11    10    11    1
    12    11    12   am
    13    12    13    2
    14    12    14    1
    15    14    15   ar
    16    15    16   ar
    17    16    17   ar
    18    17    18   ar
    19    18    19    1
    20    19    20    2
    21    19    21    2
    22    19    22    1
    23    22    23    1
    24    23    24    1
    25    24    25    1
    26    25    26    1
    27    26    27    1
    28    22    27    1
    29    18    28   ar
    30    14    28   ar
    31     3    29    1
    32     3    30    1
    33    10    31    1
    34    11    32    1
    35    23    33    1
    36    23    34    1
    37    24    35    1
    38    24    36    1
    39    25    37    1
    40    25    38    1
    41    26    39    1
    42    26    40    1
    43    27    41    1
    44    27    42    1
    45     5    43    1
    46     6    44    1
    47     7    45    1
    48     8    46    1
    49     9    47    1
    50    15    48    1
    51    16    49    1
    52    17    50    1
    53    28    51    1
@<TRIPOS>MOLECULE
mol94_1_13
 51 53 0 0 0
SMALL
USER_CHARGES
****
VDW energy = 109.80
@<TRIPOS>ATOM
   1 O1        2.8275    -7.9910    -5.9239  O.2     1  <O>11      -0.2739
   2 C1        3.3598    -9.0478    -5.6186  C.2     1  <O>11       0.2334
   3 C2        2.8830    -9.8060    -4.4250  C.3     1  <O>11       0.0505
   4 C3        1.7687    -9.0742    -3.7903  C.ar    1  <O>11      -0.0386
   5 C4        2.0413    -8.1796    -2.7528  C.ar    1  <O>11      -0.0581
   6 C5        0.9890    -7.4928    -2.1389  C.ar    1  <O>11      -0.0615
   7 C6       -0.3265    -7.6961    -2.5625  C.ar    1  <O>11      -0.0617
   8 C7       -0.5830    -8.5912    -3.6068  C.ar    1  <O>11      -0.0615
   9 C8        0.4595    -9.2806    -4.2282  C.ar    1  <O>11      -0.0581
  10 N1        4.3940    -9.5360    -6.3720  N.am    1  <O>11      -0.2339
  11 N2        4.9930   -10.7240    -6.0292  N.am    1  <O>11      -0.2304
  12 C9        6.0667   -11.1808    -6.7460  C.2     1  <O>11       0.2602
  13 O2        6.5995   -12.2379    -6.4404  O.2     1  <O>11      -0.2687
  14 C10       6.5741   -10.4075    -7.8718  C.ar    1  <O>11       0.0400
  15 C11       6.0561   -10.6094    -9.1618  C.ar    1  <O>11      -0.0495
  16 C12       6.5532    -9.8759   -10.2450  C.ar    1  <O>11      -0.0592
  17 C13       7.5660    -8.9332   -10.0494  C.ar    1  <O>11      -0.0353
  18 C14       8.0775    -8.7268    -8.7628  C.ar    1  <O>11       0.1062
  19 S1        9.3524    -7.5376    -8.5229  S.O2    1  <O>11       0.0609
  20 O3       10.6778    -7.9572    -9.4303  O.2     1  <O>11      -0.1528
  21 O4        9.7727    -7.4940    -6.9158  O.2     1  <O>11      -0.1528
  22 N3        8.8128    -6.0488    -8.9922  N.3     1  <O>11      -0.1766
  23 C15       9.9461    -5.0829    -8.9207  C.3     1  <O>11       0.0205
  24 C16      10.4343    -4.8979    -7.4903  C.3     1  <O>11      -0.0385
  25 C17       9.2949    -4.4556    -6.5779  C.3     1  <O>11      -0.0506
  26 C18       8.1194    -5.4224    -6.6675  C.3     1  <O>11      -0.0385
  27 C19       7.6799    -5.6484    -8.1105  C.3     1  <O>11       0.0205
  28 C20       7.5866    -9.4524    -7.6772  C.ar    1  <O>11      -0.0232
  29 H1        2.5403   -10.7931    -4.7349  H       1  <O>11       0.0407
  30 H2        3.7009    -9.9127    -3.7118  H       1  <O>11       0.0407
  31 H3        4.7194    -9.0172    -7.1875  H       1  <O>11       0.1728
  32 H4        4.6382   -11.2656    -5.2413  H       1  <O>11       0.1731
  33 H5       10.7687    -5.4561    -9.5300  H       1  <O>11       0.0444
  34 H6        9.6150    -4.1195    -9.3087  H       1  <O>11       0.0444
  35 H7       10.8350    -5.8443    -7.1255  H       1  <O>11       0.0278
  36 H8       11.2178    -4.1412    -7.4757  H       1  <O>11       0.0278
  37 H9        9.6539    -4.4242    -5.5505  H       1  <O>11       0.0266
  38 H10       8.9638    -3.4623    -6.8793  H       1  <O>11       0.0266
  39 H11       8.4146    -6.3781    -6.2351  H       1  <O>11       0.0278
  40 H12       7.2817    -5.0120    -6.1036  H       1  <O>11       0.0278
  41 H13       6.9277    -6.4363    -8.1274  H       1  <O>11       0.0444
  42 H14       7.2479    -4.7247    -8.4935  H       1  <O>11       0.0444
  43 H15       3.0131    -8.0264    -2.4414  H       1  <O>11       0.0620
  44 H16       1.1852    -6.8331    -1.3698  H       1  <O>11       0.0618
  45 H17      -1.1031    -7.1900    -2.1087  H       1  <O>11       0.0618
  46 H18      -1.5541    -8.7434    -3.9212  H       1  <O>11       0.0618
  47 H19       0.2647    -9.9350    -5.0020  H       1  <O>11       0.0620
  48 H20       5.3055   -11.3017    -9.3115  H       1  <O>11       0.0625
  49 H21       6.1708   -10.0316   -11.1908  H       1  <O>11       0.0618
  50 H22       7.9343    -8.3930   -10.8479  H       1  <O>11       0.0637
  51 H23       7.9665    -9.2879    -6.7318  H       1  <O>11       0.0644
@<TRIPOS>BOND
     1     1     2    2
     2     2     3    1
     3     3     4    1
     4     4     5   ar
     5     5     6   ar
     6     6     7   ar
     7     7     8   ar
     8     8     9   ar
     9     4     9   ar
    10     2    10   am
    11    10    11    1
    12    11    12   am
    13    12    13    2
    14    12    14    1
    15    14    15   ar
    16    15    16   ar
    17    16    17   ar
    18    17    18   ar
    19    18    19    1
    20    19    20    2
    21    19    21    2
    22    19    22    1
    23    22    23    1
    24    23    24    1
    25    24    25    1
    26    25    26    1
    27    26    27    1
    28    22    27    1
    29    18    28   ar
    30    14    28   ar
    31     3    29    1
    32     3    30    1
    33    10    31    1
    34    11    32    1
    35    23    33    1
    36    23    34    1
    37    24    35    1
    38    24    36    1
    39    25    37    1
    40    25    38    1
    41    26    39    1
    42    26    40    1
    43    27    41    1
    44    27    42    1
    45     5    43    1
    46     6    44    1
    47     7    45    1
    48     8    46    1
    49     9    47    1
    50    15    48    1
    51    16    49    1
    52    17    50    1
    53    28    51    1
@<TRIPOS>MOLECULE
mol94_1_14
 51 53 0 0 0
SMALL
USER_CHARGES
****
VDW energy = 110.55
@<TRIPOS>ATOM
   1 O1        2.8275    -7.9910    -5.9239  O.2     1  <O>11      -0.2739
   2 C1        3.3598    -9.0478    -5.6186  C.2     1  <O>11       0.2334
   3 C2        2.8830    -9.8060    -4.4250  C.3     1  <O>11       0.0505
   4 C3        1.7687    -9.0742    -3.7903  C.ar    1  <O>11      -0.0386
   5 C4        0.6089    -8.8223    -4.5267  C.ar    1  <O>11      -0.0581
   6 C5       -0.4453    -8.1186    -3.9355  C.ar    1  <O>11      -0.0615
   7 C6       -0.3420    -7.6737    -2.6154  C.ar    1  <O>11      -0.0617
   8 C7        0.8239    -7.9388    -1.8888  C.ar    1  <O>11      -0.0615
   9 C8        1.8815    -8.6419    -2.4680  C.ar    1  <O>11      -0.0581
  10 N1        4.3940    -9.5360    -6.3720  N.am    1  <O>11      -0.2339
  11 N2        4.8330    -8.8380    -7.4710  N.am    1  <O>11      -0.2304
  12 C9        5.8254    -9.3565    -8.2594  C.2     1  <O>11       0.2602
  13 O2        6.3203   -10.4399    -7.9840  O.2     1  <O>11      -0.2687
  14 C10       6.2913    -8.6176    -9.4254  C.ar    1  <O>11       0.0400
  15 C11       5.6709    -8.7965   -10.6730  C.ar    1  <O>11      -0.0495
  16 C12       6.1276    -8.0964   -11.7954  C.ar    1  <O>11      -0.0592
  17 C13       7.2019    -7.2102   -11.6815  C.ar    1  <O>11      -0.0353
  18 C14       7.8158    -7.0264   -10.4369  C.ar    1  <O>11       0.1062
  19 S1        9.1678    -5.9081   -10.2997  S.O2    1  <O>11       0.0609
  20 O3        8.8413    -4.7880    -9.1188  O.2     1  <O>11      -0.1528
  21 O4        9.3933    -5.1324   -11.7518  O.2     1  <O>11      -0.1528
  22 N3       10.5361    -6.7438    -9.9028  N.3     1  <O>11      -0.1766
  23 C15      11.6361    -5.7705    -9.6482  C.3     1  <O>11       0.0205
  24 C16      11.9955    -4.9904   -10.9056  C.3     1  <O>11      -0.0385
  25 C17      12.3676    -5.9337   -12.0450  C.3     1  <O>11      -0.0506
  26 C18      11.2600    -6.9517   -12.2924  C.3     1  <O>11      -0.0385
  27 C19      10.8651    -7.6822   -11.0130  C.3     1  <O>11       0.0205
  28 C20       7.3659    -7.7188    -9.3125  C.ar    1  <O>11      -0.0232
  29 H1        2.5403   -10.7931    -4.7349  H       1  <O>11       0.0407
  30 H2        3.7009    -9.9127    -3.7118  H       1  <O>11       0.0407
  31 H3        4.8380   -10.4180    -6.1170  H       1  <O>11       0.1728
  32 H4        4.4200    -7.9340    -7.6997  H       1  <O>11       0.1731
  33 H5       11.3183    -5.0704    -8.8762  H       1  <O>11       0.0444
  34 H6       12.5169    -6.3136    -9.3052  H       1  <O>11       0.0444
  35 H7       11.1381    -4.3882   -11.2082  H       1  <O>11       0.0278
  36 H8       12.8411    -4.3380   -10.6914  H       1  <O>11       0.0278
  37 H9       12.5263    -5.3513   -12.9511  H       1  <O>11       0.0266
  38 H10      13.2849    -6.4606   -11.7844  H       1  <O>11       0.0266
  39 H11      10.3861    -6.4338   -12.6867  H       1  <O>11       0.0278
  40 H12      11.6092    -7.6822   -13.0224  H       1  <O>11       0.0278
  41 H13       9.9922    -8.3007   -11.2188  H       1  <O>11       0.0444
  42 H14      11.6947    -8.3157   -10.7014  H       1  <O>11       0.0444
  43 H15       0.5303    -9.1534    -5.5010  H       1  <O>11       0.0620
  44 H16      -1.3030    -7.9274    -4.4767  H       1  <O>11       0.0618
  45 H17      -1.1195    -7.1536    -2.1795  H       1  <O>11       0.0618
  46 H18       0.9029    -7.6108    -0.9135  H       1  <O>11       0.0618
  47 H19       2.7366    -8.8397    -1.9250  H       1  <O>11       0.0620
  48 H20       4.8748    -9.4471   -10.7622  H       1  <O>11       0.0625
  49 H21       5.6697    -8.2351   -12.7098  H       1  <O>11       0.0618
  50 H22       7.5403    -6.6948   -12.5090  H       1  <O>11       0.0637
  51 H23       7.8218    -7.5711    -8.3985  H       1  <O>11       0.0644
@<TRIPOS>BOND
     1     1     2    2
     2     2     3    1
     3     3     4    1
     4     4     5   ar
     5     5     6   ar
     6     6     7   ar
     7     7     8   ar
     8     8     9   ar
     9     4     9   ar
    10     2    10   am
    11    10    11    1
    12    11    12   am
    13    12    13    2
    14    12    14    1
    15    14    15   ar
    16    15    16   ar
    17    16    17   ar
    18    17    18   ar
    19    18    19    1
    20    19    20    2
    21    19    21    2
    22    19    22    1
    23    22    23    1
    24    23    24    1
    25    24    25    1
    26    25    26    1
    27    26    27    1
    28    22    27    1
    29    18    28   ar
    30    14    28   ar
    31     3    29    1
    32     3    30    1
    33    10    31    1
    34    11    32    1
    35    23    33    1
    36    23    34    1
    37    24    35    1
    38    24    36    1
    39    25    37    1
    40    25    38    1
    41    26    39    1
    42    26    40    1
    43    27    41    1
    44    27    42    1
    45     5    43    1
    46     6    44    1
    47     7    45    1
    48     8    46    1
    49     9    47    1
    50    15    48    1
    51    16    49    1
    52    17    50    1
    53    28    51    1
@<TRIPOS>MOLECULE
mol94_1_15
 51 53 0 0 0
SMALL
USER_CHARGES
****
VDW energy = 110.69
@<TRIPOS>ATOM
   1 O1        2.8275    -7.9910    -5.9239  O.2     1  <O>11      -0.2739
   2 C1        3.3598    -9.0478    -5.6186  C.2     1  <O>11       0.2334
   3 C2        2.8830    -9.8060    -4.4250  C.3     1  <O>11       0.0505
   4 C3        1.7687    -9.0742    -3.7903  C.ar    1  <O>11      -0.0386
   5 C4        2.0413    -8.1796    -2.7528  C.ar    1  <O>11      -0.0581
   6 C5        0.9890    -7.4928    -2.1389  C.ar    1  <O>11      -0.0615
   7 C6       -0.3265    -7.6961    -2.5625  C.ar    1  <O>11      -0.0617
   8 C7       -0.5830    -8.5912    -3.6068  C.ar    1  <O>11      -0.0615
   9 C8        0.4595    -9.2806    -4.2282  C.ar    1  <O>11      -0.0581
  10 N1        4.3940    -9.5360    -6.3720  N.am    1  <O>11      -0.2339
  11 N2        4.9930   -10.7240    -6.0292  N.am    1  <O>11      -0.2304
  12 C9        6.0667   -11.1808    -6.7460  C.2     1  <O>11       0.2602
  13 O2        6.4908   -10.5312    -7.6908  O.2     1  <O>11      -0.2687
  14 C10       6.7031   -12.4402    -6.3831  C.ar    1  <O>11       0.0400
  15 C11       7.7488   -12.4621    -5.4453  C.ar    1  <O>11      -0.0495
  16 C12       8.3687   -13.6704    -5.1071  C.ar    1  <O>11      -0.0592
  17 C13       7.9478   -14.8651    -5.6972  C.ar    1  <O>11      -0.0353
  18 C14       6.9010   -14.8445    -6.6264  C.ar    1  <O>11       0.1062
  19 S1        6.3750   -16.3526    -7.3655  S.O2    1  <O>11       0.0609
  20 O3        4.7448   -16.5491    -7.1210  O.2     1  <O>11      -0.1528
  21 O4        7.1956   -17.6222    -6.6754  O.2     1  <O>11      -0.1528
  22 N3        6.6875   -16.3103    -8.9867  N.3     1  <O>11      -0.1766
  23 C15       6.1065   -17.5286    -9.6196  C.3     1  <O>11       0.0205
  24 C16       6.7818   -18.7971    -9.1159  C.3     1  <O>11      -0.0385
  25 C17       8.2886   -18.7409    -9.3453  C.3     1  <O>11      -0.0506
  26 C18       8.8867   -17.4823    -8.7265  C.3     1  <O>11      -0.0385
  27 C19       8.1614   -16.2231    -9.1899  C.3     1  <O>11       0.0205
  28 C20       6.2764   -13.6448    -6.9680  C.ar    1  <O>11      -0.0232
  29 H1        2.5403   -10.7931    -4.7349  H       1  <O>11       0.0407
  30 H2        3.7009    -9.9127    -3.7118  H       1  <O>11       0.0407
  31 H3        4.7194    -9.0172    -7.1875  H       1  <O>11       0.1728
  32 H4        4.6382   -11.2656    -5.2413  H       1  <O>11       0.1731
  33 H5        5.0434   -17.5768    -9.3856  H       1  <O>11       0.0444
  34 H6        6.2378   -17.4632   -10.6997  H       1  <O>11       0.0444
  35 H7        6.5884   -18.9034    -8.0478  H       1  <O>11       0.0278
  36 H8        6.3713   -19.6549    -9.6472  H       1  <O>11       0.0278
  37 H9        8.7502   -19.6161    -8.8911  H       1  <O>11       0.0266
  38 H10       8.4848   -18.7395   -10.4170  H       1  <O>11       0.0266
  39 H11       8.8126   -17.5528    -7.6417  H       1  <O>11       0.0278
  40 H12       9.9355   -17.4119    -9.0151  H       1  <O>11       0.0278
  41 H13       8.5428   -15.3725    -8.6260  H       1  <O>11       0.0444
  42 H14       8.3603   -16.0750   -10.2506  H       1  <O>11       0.0444
  43 H15       3.0131    -8.0264    -2.4414  H       1  <O>11       0.0620
  44 H16       1.1852    -6.8331    -1.3698  H       1  <O>11       0.0618
  45 H17      -1.1031    -7.1900    -2.1087  H       1  <O>11       0.0618
  46 H18      -1.5541    -8.7434    -3.9212  H       1  <O>11       0.0618
  47 H19       0.2647    -9.9350    -5.0020  H       1  <O>11       0.0620
  48 H20       8.0613   -11.5833    -5.0037  H       1  <O>11       0.0625
  49 H21       9.1387   -13.6791    -4.4201  H       1  <O>11       0.0618
  50 H22       8.4054   -15.7564    -5.4496  H       1  <O>11       0.0637
  51 H23       5.5016   -13.6418    -7.6497  H       1  <O>11       0.0644
@<TRIPOS>BOND
     1     1     2    2
     2     2     3    1
     3     3     4    1
     4     4     5   ar
     5     5     6   ar
     6     6     7   ar
     7     7     8   ar
     8     8     9   ar
     9     4     9   ar
    10     2    10   am
    11    10    11    1
    12    11    12   am
    13    12    13    2
    14    12    14    1
    15    14    15   ar
    16    15    16   ar
    17    16    17   ar
    18    17    18   ar
    19    18    19    1
    20    19    20    2
    21    19    21    2
    22    19    22    1
    23    22    23    1
    24    23    24    1
    25    24    25    1
    26    25    26    1
    27    26    27    1
    28    22    27    1
    29    18    28   ar
    30    14    28   ar
    31     3    29    1
    32     3    30    1
    33    10    31    1
    34    11    32    1
    35    23    33    1
    36    23    34    1
    37    24    35    1
    38    24    36    1
    39    25    37    1
    40    25    38    1
    41    26    39    1
    42    26    40    1
    43    27    41    1
    44    27    42    1
    45     5    43    1
    46     6    44    1
    47     7    45    1
    48     8    46    1
    49     9    47    1
    50    15    48    1
    51    16    49    1
    52    17    50    1
    53    28    51    1
@<TRIPOS>MOLECULE
mol94_1_16
 51 53 0 0 0
SMALL
USER_CHARGES
****
VDW energy = 112.50
@<TRIPOS>ATOM
   1 O1        2.8275    -7.9910    -5.9239  O.2     1  <O>11      -0.2739
   2 C1        3.3598    -9.0478    -5.6186  C.2     1  <O>11       0.2334
   3 C2        2.8830    -9.8060    -4.4250  C.3     1  <O>11       0.0505
   4 C3        1.7687    -9.0742    -3.7903  C.ar    1  <O>11      -0.0386
   5 C4        2.0413    -8.1796    -2.7528  C.ar    1  <O>11      -0.0581
   6 C5        0.9890    -7.4928    -2.1389  C.ar    1  <O>11      -0.0615
   7 C6       -0.3265    -7.6961    -2.5625  C.ar    1  <O>11      -0.0617
   8 C7       -0.5830    -8.5912    -3.6068  C.ar    1  <O>11      -0.0615
   9 C8        0.4595    -9.2806    -4.2282  C.ar    1  <O>11      -0.0581
  10 N1        4.3940    -9.5360    -6.3720  N.am    1  <O>11      -0.2339
  11 N2        4.9930   -10.7240    -6.0292  N.am    1  <O>11      -0.2304
  12 C9        6.0667   -11.1808    -6.7460  C.2     1  <O>11       0.2602
  13 O2        6.4908   -10.5312    -7.6908  O.2     1  <O>11      -0.2687
  14 C10       6.7031   -12.4402    -6.3831  C.ar    1  <O>11       0.0400
  15 C11       6.2629   -13.6470    -6.9515  C.ar    1  <O>11      -0.0495
  16 C12       6.8657   -14.8579    -6.5924  C.ar    1  <O>11      -0.0592
  17 C13       7.9139   -14.8740    -5.6685  C.ar    1  <O>11      -0.0353
  18 C14       8.3574   -13.6707    -5.1071  C.ar    1  <O>11       0.1062
  19 S1        9.6786   -13.6975    -3.9447  S.O2    1  <O>11       0.0609
  20 O3       10.8852   -12.6781    -4.4554  O.2     1  <O>11      -0.1528
  21 O4       10.2750   -15.2435    -3.8211  O.2     1  <O>11      -0.1528
  22 N3        9.1252   -13.2005    -2.4700  N.3     1  <O>11      -0.1766
  23 C15      10.2818   -13.0893    -1.5359  C.3     1  <O>11       0.0205
  24 C16      10.9295   -14.4441    -1.2833  C.3     1  <O>11      -0.0385
  25 C17       9.9087   -15.4469    -0.7553  C.3     1  <O>11      -0.0506
  26 C18       8.7082   -15.5448    -1.6901  C.3     1  <O>11      -0.0385
  27 C19       8.1066   -14.1747    -1.9857  C.3     1  <O>11       0.0205
  28 C20       7.7635   -12.4590    -5.4608  C.ar    1  <O>11      -0.0232
  29 H1        2.5403   -10.7931    -4.7349  H       1  <O>11       0.0407
  30 H2        3.7009    -9.9127    -3.7118  H       1  <O>11       0.0407
  31 H3        4.7194    -9.0172    -7.1875  H       1  <O>11       0.1728
  32 H4        4.6382   -11.2656    -5.2413  H       1  <O>11       0.1731
  33 H5       11.0230   -12.4177    -1.9680  H       1  <O>11       0.0444
  34 H6        9.9323   -12.6820    -0.5870  H       1  <O>11       0.0444
  35 H7       11.3458   -14.8196    -2.2188  H       1  <O>11       0.0278
  36 H8       11.7273   -14.3272    -0.5509  H       1  <O>11       0.0278
  37 H9       10.3798   -16.4251    -0.6755  H       1  <O>11       0.0266
  38 H10       9.5696   -15.1236     0.2284  H       1  <O>11       0.0266
  39 H11       9.0270   -15.9995    -2.6277  H       1  <O>11       0.0278
  40 H12       7.9479   -16.1708    -1.2230  H       1  <O>11       0.0278
  41 H13       7.3389   -14.2877    -2.7504  H       1  <O>11       0.0444
  42 H14       7.6566   -13.7858    -1.0731  H       1  <O>11       0.0444
  43 H15       3.0131    -8.0264    -2.4414  H       1  <O>11       0.0620
  44 H16       1.1852    -6.8331    -1.3698  H       1  <O>11       0.0618
  45 H17      -1.1031    -7.1900    -2.1087  H       1  <O>11       0.0618
  46 H18      -1.5541    -8.7434    -3.9212  H       1  <O>11       0.0618
  47 H19       0.2647    -9.9350    -5.0020  H       1  <O>11       0.0620
  48 H20       5.4916   -13.6407    -7.6371  H       1  <O>11       0.0625
  49 H21       6.5352   -15.7413    -7.0110  H       1  <O>11       0.0618
  50 H22       8.3579   -15.7666    -5.4018  H       1  <O>11       0.0637
  51 H23       8.1024   -11.5771    -5.0455  H       1  <O>11       0.0644
@<TRIPOS>BOND
     1     1     2    2
     2     2     3    1
     3     3     4    1
     4     4     5   ar
     5     5     6   ar
     6     6     7   ar
     7     7     8   ar
     8     8     9   ar
     9     4     9   ar
    10     2    10   am
    11    10    11    1
    12    11    12   am
    13    12    13    2
    14    12    14    1
    15    14    15   ar
    16    15    16   ar
    17    16    17   ar
    18    17    18   ar
    19    18    19    1
    20    19    20    2
    21    19    21    2
    22    19    22    1
    23    22    23    1
    24    23    24    1
    25    24    25    1
    26    25    26    1
    27    26    27    1
    28    22    27    1
    29    18    28   ar
    30    14    28   ar
    31     3    29    1
    32     3    30    1
    33    10    31    1
    34    11    32    1
    35    23    33    1
    36    23    34    1
    37    24    35    1
    38    24    36    1
    39    25    37    1
    40    25    38    1
    41    26    39    1
    42    26    40    1
    43    27    41    1
    44    27    42    1
    45     5    43    1
    46     6    44    1
    47     7    45    1
    48     8    46    1
    49     9    47    1
    50    15    48    1
    51    16    49    1
    52    17    50    1
    53    28    51    1
@<TRIPOS>MOLECULE
mol94_1_17
 51 53 0 0 0
SMALL
USER_CHARGES
****
VDW energy = 112.53
@<TRIPOS>ATOM
   1 O1        2.8275    -7.9910    -5.9239  O.2     1  <O>11      -0.2739
   2 C1        3.3598    -9.0478    -5.6186  C.2     1  <O>11       0.2334
   3 C2        2.8830    -9.8060    -4.4250  C.3     1  <O>11       0.0505
   4 C3        1.7687    -9.0742    -3.7903  C.ar    1  <O>11      -0.0386
   5 C4        2.0413    -8.1796    -2.7528  C.ar    1  <O>11      -0.0581
   6 C5        0.9890    -7.4928    -2.1389  C.ar    1  <O>11      -0.0615
   7 C6       -0.3265    -7.6961    -2.5625  C.ar    1  <O>11      -0.0617
   8 C7       -0.5830    -8.5912    -3.6068  C.ar    1  <O>11      -0.0615
   9 C8        0.4595    -9.2806    -4.2282  C.ar    1  <O>11      -0.0581
  10 N1        4.3940    -9.5360    -6.3720  N.am    1  <O>11      -0.2339
  11 N2        4.9930   -10.7240    -6.0292  N.am    1  <O>11      -0.2304
  12 C9        6.0667   -11.1808    -6.7460  C.2     1  <O>11       0.2602
  13 O2        6.4911   -10.5309    -7.6905  O.2     1  <O>11      -0.2687
  14 C10       6.7028   -12.4405    -6.3834  C.ar    1  <O>11       0.0400
  15 C11       7.7483   -12.4631    -5.4455  C.ar    1  <O>11      -0.0495
  16 C12       8.3678   -13.6716    -5.1077  C.ar    1  <O>11      -0.0592
  17 C13       7.9467   -14.8660    -5.6983  C.ar    1  <O>11      -0.0353
  18 C14       6.9001   -14.8447    -6.6277  C.ar    1  <O>11       0.1062
  19 S1        6.3738   -16.3525    -7.3674  S.O2    1  <O>11       0.0609
  20 O3        7.6424   -17.0363    -8.1915  O.2     1  <O>11      -0.1528
  21 O4        5.1285   -16.0450    -8.4237  O.2     1  <O>11      -0.1528
  22 N3        5.8564   -17.3916    -6.1924  N.3     1  <O>11      -0.1766
  23 C15       5.5527   -18.7104    -6.8177  C.3     1  <O>11       0.0205
  24 C16       4.3939   -18.6101    -7.8005  C.3     1  <O>11      -0.0385
  25 C17       3.1520   -18.0394    -7.1233  C.3     1  <O>11      -0.0506
  26 C18       3.4614   -16.7041    -6.4556  C.3     1  <O>11      -0.0385
  27 C19       4.6631   -16.8024    -5.5214  C.3     1  <O>11       0.0205
  28 C20       6.2758   -13.6448    -6.9689  C.ar    1  <O>11      -0.0232
  29 H1        2.5403   -10.7931    -4.7349  H       1  <O>11       0.0407
  30 H2        3.7009    -9.9127    -3.7118  H       1  <O>11       0.0407
  31 H3        4.7194    -9.0172    -7.1875  H       1  <O>11       0.1728
  32 H4        4.6382   -11.2656    -5.2413  H       1  <O>11       0.1731
  33 H5        6.4367   -19.0633    -7.3477  H       1  <O>11       0.0444
  34 H6        5.2912   -19.4216    -6.0341  H       1  <O>11       0.0444
  35 H7        4.6815   -17.9565    -8.6247  H       1  <O>11       0.0278
  36 H8        4.1660   -19.6031    -8.1860  H       1  <O>11       0.0278
  37 H9        2.3748   -17.8928    -7.8715  H       1  <O>11       0.0266
  38 H10       2.8039   -18.7437    -6.3685  H       1  <O>11       0.0266
  39 H11       3.6742   -15.9645    -7.2271  H       1  <O>11       0.0278
  40 H12       2.5916   -16.3881    -5.8796  H       1  <O>11       0.0278
  41 H13       4.9165   -15.8023    -5.1714  H       1  <O>11       0.0444
  42 H14       4.3951   -17.4284    -4.6711  H       1  <O>11       0.0444
  43 H15       3.0131    -8.0264    -2.4414  H       1  <O>11       0.0620
  44 H16       1.1852    -6.8331    -1.3698  H       1  <O>11       0.0618
  45 H17      -1.1031    -7.1900    -2.1087  H       1  <O>11       0.0618
  46 H18      -1.5541    -8.7434    -3.9212  H       1  <O>11       0.0618
  47 H19       0.2647    -9.9350    -5.0020  H       1  <O>11       0.0620
  48 H20       8.0610   -11.5845    -5.0036  H       1  <O>11       0.0625
  49 H21       9.1377   -13.6808    -4.4206  H       1  <O>11       0.0618
  50 H22       8.4041   -15.7574    -5.4510  H       1  <O>11       0.0637
  51 H23       5.5011   -13.6413    -7.6507  H       1  <O>11       0.0644
@<TRIPOS>BOND
     1     1     2    2
     2     2     3    1
     3     3     4    1
     4     4     5   ar
     5     5     6   ar
     6     6     7   ar
     7     7     8   ar
     8     8     9   ar
     9     4     9   ar
    10     2    10   am
    11    10    11    1
    12    11    12   am
    13    12    13    2
    14    12    14    1
    15    14    15   ar
    16    15    16   ar
    17    16    17   ar
    18    17    18   ar
    19    18    19    1
    20    19    20    2
    21    19    21    2
    22    19    22    1
    23    22    23    1
    24    23    24    1
    25    24    25    1
    26    25    26    1
    27    26    27    1
    28    22    27    1
    29    18    28   ar
    30    14    28   ar
    31     3    29    1
    32     3    30    1
    33    10    31    1
    34    11    32    1
    35    23    33    1
    36    23    34    1
    37    24    35    1
    38    24    36    1
    39    25    37    1
    40    25    38    1
    41    26    39    1
    42    26    40    1
    43    27    41    1
    44    27    42    1
    45     5    43    1
    46     6    44    1
    47     7    45    1
    48     8    46    1
    49     9    47    1
    50    15    48    1
    51    16    49    1
    52    17    50    1
    53    28    51    1
@<TRIPOS>MOLECULE
mol94_1_18
 51 53 0 0 0
SMALL
USER_CHARGES
****
VDW energy = 112.55
@<TRIPOS>ATOM
   1 O1        2.8275    -7.9910    -5.9239  O.2     1  <O>11      -0.2739
   2 C1        3.3598    -9.0478    -5.6186  C.2     1  <O>11       0.2334
   3 C2        2.8830    -9.8060    -4.4250  C.3     1  <O>11       0.0505
   4 C3        1.7378   -10.6559    -4.8073  C.ar    1  <O>11      -0.0386
   5 C4        0.4397   -10.1638    -4.6530  C.ar    1  <O>11      -0.0581
   6 C5       -0.6499   -10.9684    -5.0014  C.ar    1  <O>11      -0.0615
   7 C6       -0.4425   -12.2549    -5.5047  C.ar    1  <O>11      -0.0617
   8 C7        0.8639   -12.7316    -5.6589  C.ar    1  <O>11      -0.0615
   9 C8        1.9588   -11.9366    -5.3164  C.ar    1  <O>11      -0.0581
  10 N1        4.3940    -9.5360    -6.3720  N.am    1  <O>11      -0.2339
  11 N2        4.9930   -10.7240    -6.0292  N.am    1  <O>11      -0.2304
  12 C9        6.0667   -11.1808    -6.7460  C.2     1  <O>11       0.2602
  13 O2        6.5995   -12.2379    -6.4404  O.2     1  <O>11      -0.2687
  14 C10       6.5741   -10.4075    -7.8718  C.ar    1  <O>11       0.0400
  15 C11       6.0561   -10.6094    -9.1618  C.ar    1  <O>11      -0.0495
  16 C12       6.5532    -9.8759   -10.2450  C.ar    1  <O>11      -0.0592
  17 C13       7.5660    -8.9332   -10.0494  C.ar    1  <O>11      -0.0353
  18 C14       8.0775    -8.7268    -8.7628  C.ar    1  <O>11       0.1062
  19 S1        9.3524    -7.5376    -8.5229  S.O2    1  <O>11       0.0609
  20 O3        8.8804    -6.4471    -7.3636  O.2     1  <O>11      -0.1528
  21 O4        9.6389    -6.7383    -9.9513  O.2     1  <O>11      -0.1528
  22 N3       10.7325    -8.3006    -8.0317  N.3     1  <O>11      -0.1766
  23 C15      11.7560    -7.2708    -7.6935  C.3     1  <O>11       0.0205
  24 C16      12.1615    -6.4616    -8.9180  C.3     1  <O>11      -0.0385
  25 C17      12.6663    -7.3733   -10.0318  C.3     1  <O>11      -0.0506
  26 C18      11.6372    -8.4482   -10.3635  C.3     1  <O>11      -0.0385
  27 C19      11.1920    -9.2100    -9.1194  C.3     1  <O>11       0.0205
  28 C20       7.5866    -9.4524    -7.6772  C.ar    1  <O>11      -0.0232
  29 H1        3.6906   -10.4324    -4.0463  H       1  <O>11       0.0407
  30 H2        2.5727    -9.1051    -3.6495  H       1  <O>11       0.0407
  31 H3        4.7194    -9.0172    -7.1875  H       1  <O>11       0.1728
  32 H4        4.6382   -11.2656    -5.2413  H       1  <O>11       0.1731
  33 H5       11.3452    -6.5958    -6.9434  H       1  <O>11       0.0444
  34 H6       12.6383    -7.7679    -7.2901  H       1  <O>11       0.0444
  35 H7       11.2963    -5.9045    -9.2793  H       1  <O>11       0.0278
  36 H8       12.9522    -5.7658    -8.6401  H       1  <O>11       0.0278
  37 H9       12.8575    -6.7754   -10.9213  H       1  <O>11       0.0266
  38 H10      13.5901    -7.8515    -9.7078  H       1  <O>11       0.0266
  39 H11      10.7668    -7.9755   -10.8177  H       1  <O>11       0.0278
  40 H12      12.0779    -9.1522   -11.0695  H       1  <O>11       0.0278
  41 H13      10.3716    -9.8736    -9.3908  H       1  <O>11       0.0444
  42 H14      12.0305    -9.7999    -8.7514  H       1  <O>11       0.0444
  43 H15       0.2856    -9.2123    -4.2842  H       1  <O>11       0.0620
  44 H16      -1.6109   -10.6103    -4.8861  H       1  <O>11       0.0618
  45 H17      -1.2465   -12.8490    -5.7608  H       1  <O>11       0.0618
  46 H18       1.0196   -13.6818    -6.0301  H       1  <O>11       0.0618
  47 H19       2.9202   -12.2915    -5.4381  H       1  <O>11       0.0620
  48 H20       5.3055   -11.3017    -9.3115  H       1  <O>11       0.0625
  49 H21       6.1708   -10.0316   -11.1908  H       1  <O>11       0.0618
  50 H22       7.9343    -8.3930   -10.8479  H       1  <O>11       0.0637
  51 H23       7.9665    -9.2879    -6.7318  H       1  <O>11       0.0644
@<TRIPOS>BOND
     1     1     2    2
     2     2     3    1
     3     3     4    1
     4     4     5   ar
     5     5     6   ar
     6     6     7   ar
     7     7     8   ar
     8     8     9   ar
     9     4     9   ar
    10     2    10   am
    11    10    11    1
    12    11    12   am
    13    12    13    2
    14    12    14    1
    15    14    15   ar
    16    15    16   ar
    17    16    17   ar
    18    17    18   ar
    19    18    19    1
    20    19    20    2
    21    19    21    2
    22    19    22    1
    23    22    23    1
    24    23    24    1
    25    24    25    1
    26    25    26    1
    27    26    27    1
    28    22    27    1
    29    18    28   ar
    30    14    28   ar
    31     3    29    1
    32     3    30    1
    33    10    31    1
    34    11    32    1
    35    23    33    1
    36    23    34    1
    37    24    35    1
    38    24    36    1
    39    25    37    1
    40    25    38    1
    41    26    39    1
    42    26    40    1
    43    27    41    1
    44    27    42    1
    45     5    43    1
    46     6    44    1
    47     7    45    1
    48     8    46    1
    49     9    47    1
    50    15    48    1
    51    16    49    1
    52    17    50    1
    53    28    51    1
@<TRIPOS>MOLECULE
mol94_1_19
 51 53 0 0 0
SMALL
USER_CHARGES
****
VDW energy = 113.12
@<TRIPOS>ATOM
   1 O1        2.8275    -7.9910    -5.9239  O.2     1  <O>11      -0.2739
   2 C1        3.3598    -9.0478    -5.6186  C.2     1  <O>11       0.2334
   3 C2        2.8830    -9.8060    -4.4250  C.3     1  <O>11       0.0505
   4 C3        1.7378   -10.6559    -4.8073  C.ar    1  <O>11      -0.0386
   5 C4        0.4397   -10.1638    -4.6530  C.ar    1  <O>11      -0.0581
   6 C5       -0.6499   -10.9684    -5.0014  C.ar    1  <O>11      -0.0615
   7 C6       -0.4425   -12.2549    -5.5047  C.ar    1  <O>11      -0.0617
   8 C7        0.8639   -12.7316    -5.6589  C.ar    1  <O>11      -0.0615
   9 C8        1.9588   -11.9366    -5.3164  C.ar    1  <O>11      -0.0581
  10 N1        4.3940    -9.5360    -6.3720  N.am    1  <O>11      -0.2339
  11 N2        4.9930   -10.7240    -6.0292  N.am    1  <O>11      -0.2304
  12 C9        6.0667   -11.1808    -6.7460  C.2     1  <O>11       0.2602
  13 O2        6.5995   -12.2379    -6.4404  O.2     1  <O>11      -0.2687
  14 C10       6.5741   -10.4075    -7.8718  C.ar    1  <O>11       0.0400
  15 C11       6.0561   -10.6094    -9.1618  C.ar    1  <O>11      -0.0495
  16 C12       6.5532    -9.8759   -10.2450  C.ar    1  <O>11      -0.0592
  17 C13       7.5660    -8.9332   -10.0494  C.ar    1  <O>11      -0.0353
  18 C14       8.0775    -8.7268    -8.7628  C.ar    1  <O>11       0.1062
  19 S1        9.3524    -7.5376    -8.5229  S.O2    1  <O>11       0.0609
  20 O3       10.6778    -7.9572    -9.4303  O.2     1  <O>11      -0.1528
  21 O4        9.7727    -7.4940    -6.9158  O.2     1  <O>11      -0.1528
  22 N3        8.8128    -6.0488    -8.9922  N.3     1  <O>11      -0.1766
  23 C15       9.9461    -5.0829    -8.9207  C.3     1  <O>11       0.0205
  24 C16      10.4343    -4.8979    -7.4903  C.3     1  <O>11      -0.0385
  25 C17       9.2949    -4.4556    -6.5779  C.3     1  <O>11      -0.0506
  26 C18       8.1194    -5.4224    -6.6675  C.3     1  <O>11      -0.0385
  27 C19       7.6799    -5.6484    -8.1105  C.3     1  <O>11       0.0205
  28 C20       7.5866    -9.4524    -7.6772  C.ar    1  <O>11      -0.0232
  29 H1        3.6906   -10.4324    -4.0463  H       1  <O>11       0.0407
  30 H2        2.5727    -9.1051    -3.6495  H       1  <O>11       0.0407
  31 H3        4.7194    -9.0172    -7.1875  H       1  <O>11       0.1728
  32 H4        4.6382   -11.2656    -5.2413  H       1  <O>11       0.1731
  33 H5       10.7687    -5.4561    -9.5300  H       1  <O>11       0.0444
  34 H6        9.6150    -4.1195    -9.3087  H       1  <O>11       0.0444
  35 H7       10.8350    -5.8443    -7.1255  H       1  <O>11       0.0278
  36 H8       11.2178    -4.1412    -7.4757  H       1  <O>11       0.0278
  37 H9        9.6539    -4.4242    -5.5505  H       1  <O>11       0.0266
  38 H10       8.9638    -3.4623    -6.8793  H       1  <O>11       0.0266
  39 H11       8.4146    -6.3781    -6.2351  H       1  <O>11       0.0278
  40 H12       7.2817    -5.0120    -6.1036  H       1  <O>11       0.0278
  41 H13       6.9277    -6.4363    -8.1274  H       1  <O>11       0.0444
  42 H14       7.2479    -4.7247    -8.4935  H       1  <O>11       0.0444
  43 H15       0.2856    -9.2123    -4.2842  H       1  <O>11       0.0620
  44 H16      -1.6109   -10.6103    -4.8861  H       1  <O>11       0.0618
  45 H17      -1.2465   -12.8490    -5.7608  H       1  <O>11       0.0618
  46 H18       1.0196   -13.6818    -6.0301  H       1  <O>11       0.0618
  47 H19       2.9202   -12.2915    -5.4381  H       1  <O>11       0.0620
  48 H20       5.3055   -11.3017    -9.3115  H       1  <O>11       0.0625
  49 H21       6.1708   -10.0316   -11.1908  H       1  <O>11       0.0618
  50 H22       7.9343    -8.3930   -10.8479  H       1  <O>11       0.0637
  51 H23       7.9665    -9.2879    -6.7318  H       1  <O>11       0.0644
@<TRIPOS>BOND
     1     1     2    2
     2     2     3    1
     3     3     4    1
     4     4     5   ar
     5     5     6   ar
     6     6     7   ar
     7     7     8   ar
     8     8     9   ar
     9     4     9   ar
    10     2    10   am
    11    10    11    1
    12    11    12   am
    13    12    13    2
    14    12    14    1
    15    14    15   ar
    16    15    16   ar
    17    16    17   ar
    18    17    18   ar
    19    18    19    1
    20    19    20    2
    21    19    21    2
    22    19    22    1
    23    22    23    1
    24    23    24    1
    25    24    25    1
    26    25    26    1
    27    26    27    1
    28    22    27    1
    29    18    28   ar
    30    14    28   ar
    31     3    29    1
    32     3    30    1
    33    10    31    1
    34    11    32    1
    35    23    33    1
    36    23    34    1
    37    24    35    1
    38    24    36    1
    39    25    37    1
    40    25    38    1
    41    26    39    1
    42    26    40    1
    43    27    41    1
    44    27    42    1
    45     5    43    1
    46     6    44    1
    47     7    45    1
    48     8    46    1
    49     9    47    1
    50    15    48    1
    51    16    49    1
    52    17    50    1
    53    28    51    1
@<TRIPOS>MOLECULE
mol94_1_20
 51 53 0 0 0
SMALL
USER_CHARGES
****
VDW energy = 113.60
@<TRIPOS>ATOM
   1 O1        2.8275    -7.9910    -5.9239  O.2     1  <O>11      -0.2739
   2 C1        3.3598    -9.0478    -5.6186  C.2     1  <O>11       0.2334
   3 C2        2.8830    -9.8060    -4.4250  C.3     1  <O>11       0.0505
   4 C3        1.7378   -10.6559    -4.8073  C.ar    1  <O>11      -0.0386
   5 C4        0.4397   -10.1638    -4.6530  C.ar    1  <O>11      -0.0581
   6 C5       -0.6499   -10.9684    -5.0014  C.ar    1  <O>11      -0.0615
   7 C6       -0.4425   -12.2549    -5.5047  C.ar    1  <O>11      -0.0617
   8 C7        0.8639   -12.7316    -5.6589  C.ar    1  <O>11      -0.0615
   9 C8        1.9588   -11.9366    -5.3164  C.ar    1  <O>11      -0.0581
  10 N1        4.3940    -9.5360    -6.3720  N.am    1  <O>11      -0.2339
  11 N2        4.9930   -10.7240    -6.0292  N.am    1  <O>11      -0.2304
  12 C9        6.0667   -11.1808    -6.7460  C.2     1  <O>11       0.2602
  13 O2        6.4908   -10.5312    -7.6908  O.2     1  <O>11      -0.2687
  14 C10       6.7031   -12.4402    -6.3831  C.ar    1  <O>11       0.0400
  15 C11       7.7488   -12.4621    -5.4453  C.ar    1  <O>11      -0.0495
  16 C12       8.3687   -13.6704    -5.1071  C.ar    1  <O>11      -0.0592
  17 C13       7.9478   -14.8651    -5.6972  C.ar    1  <O>11      -0.0353
  18 C14       6.9010   -14.8445    -6.6264  C.ar    1  <O>11       0.1062
  19 S1        6.3750   -16.3526    -7.3655  S.O2    1  <O>11       0.0609
  20 O3        4.7448   -16.5491    -7.1210  O.2     1  <O>11      -0.1528
  21 O4        7.1956   -17.6222    -6.6754  O.2     1  <O>11      -0.1528
  22 N3        6.6875   -16.3103    -8.9867  N.3     1  <O>11      -0.1766
  23 C15       6.1065   -17.5286    -9.6196  C.3     1  <O>11       0.0205
  24 C16       6.7818   -18.7971    -9.1159  C.3     1  <O>11      -0.0385
  25 C17       8.2886   -18.7409    -9.3453  C.3     1  <O>11      -0.0506
  26 C18       8.8867   -17.4823    -8.7265  C.3     1  <O>11      -0.0385
  27 C19       8.1614   -16.2231    -9.1899  C.3     1  <O>11       0.0205
  28 C20       6.2764   -13.6448    -6.9680  C.ar    1  <O>11      -0.0232
  29 H1        3.6906   -10.4324    -4.0463  H       1  <O>11       0.0407
  30 H2        2.5727    -9.1051    -3.6495  H       1  <O>11       0.0407
  31 H3        4.7194    -9.0172    -7.1875  H       1  <O>11       0.1728
  32 H4        4.6382   -11.2656    -5.2413  H       1  <O>11       0.1731
  33 H5        5.0434   -17.5768    -9.3856  H       1  <O>11       0.0444
  34 H6        6.2378   -17.4632   -10.6997  H       1  <O>11       0.0444
  35 H7        6.5884   -18.9034    -8.0478  H       1  <O>11       0.0278
  36 H8        6.3713   -19.6549    -9.6472  H       1  <O>11       0.0278
  37 H9        8.7502   -19.6161    -8.8911  H       1  <O>11       0.0266
  38 H10       8.4848   -18.7395   -10.4170  H       1  <O>11       0.0266
  39 H11       8.8126   -17.5528    -7.6417  H       1  <O>11       0.0278
  40 H12       9.9355   -17.4119    -9.0151  H       1  <O>11       0.0278
  41 H13       8.5428   -15.3725    -8.6260  H       1  <O>11       0.0444
  42 H14       8.3603   -16.0750   -10.2506  H       1  <O>11       0.0444
  43 H15       0.2856    -9.2123    -4.2842  H       1  <O>11       0.0620
  44 H16      -1.6109   -10.6103    -4.8861  H       1  <O>11       0.0618
  45 H17      -1.2465   -12.8490    -5.7608  H       1  <O>11       0.0618
  46 H18       1.0196   -13.6818    -6.0301  H       1  <O>11       0.0618
  47 H19       2.9202   -12.2915    -5.4381  H       1  <O>11       0.0620
  48 H20       8.0613   -11.5833    -5.0037  H       1  <O>11       0.0625
  49 H21       9.1387   -13.6791    -4.4201  H       1  <O>11       0.0618
  50 H22       8.4054   -15.7564    -5.4496  H       1  <O>11       0.0637
  51 H23       5.5016   -13.6418    -7.6497  H       1  <O>11       0.0644
@<TRIPOS>BOND
     1     1     2    2
     2     2     3    1
     3     3     4    1
     4     4     5   ar
     5     5     6   ar
     6     6     7   ar
     7     7     8   ar
     8     8     9   ar
     9     4     9   ar
    10     2    10   am
    11    10    11    1
    12    11    12   am
    13    12    13    2
    14    12    14    1
    15    14    15   ar
    16    15    16   ar
    17    16    17   ar
    18    17    18   ar
    19    18    19    1
    20    19    20    2
    21    19    21    2
    22    19    22    1
    23    22    23    1
    24    23    24    1
    25    24    25    1
    26    25    26    1
    27    26    27    1
    28    22    27    1
    29    18    28   ar
    30    14    28   ar
    31     3    29    1
    32     3    30    1
    33    10    31    1
    34    11    32    1
    35    23    33    1
    36    23    34    1
    37    24    35    1
    38    24    36    1
    39    25    37    1
    40    25    38    1
    41    26    39    1
    42    26    40    1
    43    27    41    1
    44    27    42    1
    45     5    43    1
    46     6    44    1
    47     7    45    1
    48     8    46    1
    49     9    47    1
    50    15    48    1
    51    16    49    1
    52    17    50    1
    53    28    51    1
@<TRIPOS>MOLECULE
mol94_1_21
 51 53 0 0 0
SMALL
USER_CHARGES
****
VDW energy = 114.82
@<TRIPOS>ATOM
   1 O1        2.8275    -7.9910    -5.9239  O.2     1  <O>11      -0.2739
   2 C1        3.3598    -9.0478    -5.6186  C.2     1  <O>11       0.2334
   3 C2        2.8830    -9.8060    -4.4250  C.3     1  <O>11       0.0505
   4 C3        1.7378   -10.6559    -4.8073  C.ar    1  <O>11      -0.0386
   5 C4        0.4397   -10.1638    -4.6530  C.ar    1  <O>11      -0.0581
   6 C5       -0.6499   -10.9684    -5.0014  C.ar    1  <O>11      -0.0615
   7 C6       -0.4425   -12.2549    -5.5047  C.ar    1  <O>11      -0.0617
   8 C7        0.8639   -12.7316    -5.6589  C.ar    1  <O>11      -0.0615
   9 C8        1.9588   -11.9366    -5.3164  C.ar    1  <O>11      -0.0581
  10 N1        4.3940    -9.5360    -6.3720  N.am    1  <O>11      -0.2339
  11 N2        4.9930   -10.7240    -6.0292  N.am    1  <O>11      -0.2304
  12 C9        6.0667   -11.1808    -6.7460  C.2     1  <O>11       0.2602
  13 O2        6.4911   -10.5309    -7.6905  O.2     1  <O>11      -0.2687
  14 C10       6.7028   -12.4405    -6.3834  C.ar    1  <O>11       0.0400
  15 C11       7.7483   -12.4631    -5.4455  C.ar    1  <O>11      -0.0495
  16 C12       8.3678   -13.6716    -5.1077  C.ar    1  <O>11      -0.0592
  17 C13       7.9467   -14.8660    -5.6983  C.ar    1  <O>11      -0.0353
  18 C14       6.9001   -14.8447    -6.6277  C.ar    1  <O>11       0.1062
  19 S1        6.3738   -16.3525    -7.3674  S.O2    1  <O>11       0.0609
  20 O3        7.6424   -17.0363    -8.1915  O.2     1  <O>11      -0.1528
  21 O4        5.1285   -16.0450    -8.4237  O.2     1  <O>11      -0.1528
  22 N3        5.8564   -17.3916    -6.1924  N.3     1  <O>11      -0.1766
  23 C15       5.5527   -18.7104    -6.8177  C.3     1  <O>11       0.0205
  24 C16       4.3939   -18.6101    -7.8005  C.3     1  <O>11      -0.0385
  25 C17       3.1520   -18.0394    -7.1233  C.3     1  <O>11      -0.0506
  26 C18       3.4614   -16.7041    -6.4556  C.3     1  <O>11      -0.0385
  27 C19       4.6631   -16.8024    -5.5214  C.3     1  <O>11       0.0205
  28 C20       6.2758   -13.6448    -6.9689  C.ar    1  <O>11      -0.0232
  29 H1        3.6906   -10.4324    -4.0463  H       1  <O>11       0.0407
  30 H2        2.5727    -9.1051    -3.6495  H       1  <O>11       0.0407
  31 H3        4.7194    -9.0172    -7.1875  H       1  <O>11       0.1728
  32 H4        4.6382   -11.2656    -5.2413  H       1  <O>11       0.1731
  33 H5        6.4367   -19.0633    -7.3477  H       1  <O>11       0.0444
  34 H6        5.2912   -19.4216    -6.0341  H       1  <O>11       0.0444
  35 H7        4.6815   -17.9565    -8.6247  H       1  <O>11       0.0278
  36 H8        4.1660   -19.6031    -8.1860  H       1  <O>11       0.0278
  37 H9        2.3748   -17.8928    -7.8715  H       1  <O>11       0.0266
  38 H10       2.8039   -18.7437    -6.3685  H       1  <O>11       0.0266
  39 H11       3.6742   -15.9645    -7.2271  H       1  <O>11       0.0278
  40 H12       2.5916   -16.3881    -5.8796  H       1  <O>11       0.0278
  41 H13       4.9165   -15.8023    -5.1714  H       1  <O>11       0.0444
  42 H14       4.3951   -17.4284    -4.6711  H       1  <O>11       0.0444
  43 H15       0.2856    -9.2123    -4.2842  H       1  <O>11       0.0620
  44 H16      -1.6109   -10.6103    -4.8861  H       1  <O>11       0.0618
  45 H17      -1.2465   -12.8490    -5.7608  H       1  <O>11       0.0618
  46 H18       1.0196   -13.6818    -6.0301  H       1  <O>11       0.0618
  47 H19       2.9202   -12.2915    -5.4381  H       1  <O>11       0.0620
  48 H20       8.0610   -11.5845    -5.0036  H       1  <O>11       0.0625
  49 H21       9.1377   -13.6808    -4.4206  H       1  <O>11       0.0618
  50 H22       8.4041   -15.7574    -5.4510  H       1  <O>11       0.0637
  51 H23       5.5011   -13.6413    -7.6507  H       1  <O>11       0.0644
@<TRIPOS>BOND
     1     1     2    2
     2     2     3    1
     3     3     4    1
     4     4     5   ar
     5     5     6   ar
     6     6     7   ar
     7     7     8   ar
     8     8     9   ar
     9     4     9   ar
    10     2    10   am
    11    10    11    1
    12    11    12   am
    13    12    13    2
    14    12    14    1
    15    14    15   ar
    16    15    16   ar
    17    16    17   ar
    18    17    18   ar
    19    18    19    1
    20    19    20    2
    21    19    21    2
    22    19    22    1
    23    22    23    1
    24    23    24    1
    25    24    25    1
    26    25    26    1
    27    26    27    1
    28    22    27    1
    29    18    28   ar
    30    14    28   ar
    31     3    29    1
    32     3    30    1
    33    10    31    1
    34    11    32    1
    35    23    33    1
    36    23    34    1
    37    24    35    1
    38    24    36    1
    39    25    37    1
    40    25    38    1
    41    26    39    1
    42    26    40    1
    43    27    41    1
    44    27    42    1
    45     5    43    1
    46     6    44    1
    47     7    45    1
    48     8    46    1
    49     9    47    1
    50    15    48    1
    51    16    49    1
    52    17    50    1
    53    28    51    1
@<TRIPOS>MOLECULE
mol94_1_22
 51 53 0 0 0
SMALL
USER_CHARGES
****
VDW energy = 116.62
@<TRIPOS>ATOM
   1 O1        2.8275    -7.9910    -5.9239  O.2     1  <O>11      -0.2739
   2 C1        3.3598    -9.0478    -5.6186  C.2     1  <O>11       0.2334
   3 C2        2.8830    -9.8060    -4.4250  C.3     1  <O>11       0.0505
   4 C3        1.7378   -10.6559    -4.8073  C.ar    1  <O>11      -0.0386
   5 C4        0.4397   -10.1638    -4.6530  C.ar    1  <O>11      -0.0581
   6 C5       -0.6499   -10.9684    -5.0014  C.ar    1  <O>11      -0.0615
   7 C6       -0.4425   -12.2549    -5.5047  C.ar    1  <O>11      -0.0617
   8 C7        0.8639   -12.7316    -5.6589  C.ar    1  <O>11      -0.0615
   9 C8        1.9588   -11.9366    -5.3164  C.ar    1  <O>11      -0.0581
  10 N1        4.3940    -9.5360    -6.3720  N.am    1  <O>11      -0.2339
  11 N2        4.9930   -10.7240    -6.0292  N.am    1  <O>11      -0.2304
  12 C9        6.0667   -11.1808    -6.7460  C.2     1  <O>11       0.2602
  13 O2        6.4908   -10.5312    -7.6908  O.2     1  <O>11      -0.2687
  14 C10       6.7031   -12.4402    -6.3831  C.ar    1  <O>11       0.0400
  15 C11       6.8826   -12.7807    -5.0321  C.ar    1  <O>11      -0.0495
  16 C12       7.5061   -13.9844    -4.6842  C.ar    1  <O>11      -0.0592
  17 C13       7.9503   -14.8587    -5.6796  C.ar    1  <O>11      -0.0353
  18 C14       7.7652   -14.5229    -7.0259  C.ar    1  <O>11       0.1062
  19 S1        8.3262   -15.6287    -8.2748  S.O2    1  <O>11       0.0609
  20 O3        7.0666   -16.0010    -9.2902  O.2     1  <O>11      -0.1528
  21 O4        8.8962   -17.0196    -7.5664  O.2     1  <O>11      -0.1528
  22 N3        9.5381   -14.9140    -9.1399  N.3     1  <O>11      -0.1766
  23 C15       9.9012   -15.8017   -10.2812  C.3     1  <O>11       0.0205
  24 C16      10.4816   -17.1243    -9.7988  C.3     1  <O>11      -0.0385
  25 C17      11.6880   -16.8933    -8.8947  C.3     1  <O>11      -0.0506
  26 C18      11.3330   -15.9621    -7.7408  C.3     1  <O>11      -0.0385
  27 C19      10.6948   -14.6672    -8.2331  C.3     1  <O>11       0.0205
  28 C20       7.1432   -13.3260    -7.3816  C.ar    1  <O>11      -0.0232
  29 H1        3.6906   -10.4324    -4.0463  H       1  <O>11       0.0407
  30 H2        2.5727    -9.1051    -3.6495  H       1  <O>11       0.0407
  31 H3        4.7194    -9.0172    -7.1875  H       1  <O>11       0.1728
  32 H4        4.6382   -11.2656    -5.2413  H       1  <O>11       0.1731
  33 H5        9.0083   -16.0018   -10.8726  H       1  <O>11       0.0444
  34 H6       10.6415   -15.2960   -10.9013  H       1  <O>11       0.0444
  35 H7        9.7173   -17.6660    -9.2403  H       1  <O>11       0.0278
  36 H8       10.7892   -17.7147   -10.6610  H       1  <O>11       0.0278
  37 H9       12.0195   -17.8493    -8.4929  H       1  <O>11       0.0266
  38 H10      12.4902   -16.4457    -9.4806  H       1  <O>11       0.0266
  39 H11      10.6325   -16.4710    -7.0792  H       1  <O>11       0.0278
  40 H12      12.2422   -15.7204    -7.1903  H       1  <O>11       0.0278
  41 H13      10.3484   -14.0984    -7.3708  H       1  <O>11       0.0444
  42 H14      11.4451   -14.0901    -8.7721  H       1  <O>11       0.0444
  43 H15       0.2856    -9.2123    -4.2842  H       1  <O>11       0.0620
  44 H16      -1.6109   -10.6103    -4.8861  H       1  <O>11       0.0618
  45 H17      -1.2465   -12.8490    -5.7608  H       1  <O>11       0.0618
  46 H18       1.0196   -13.6818    -6.0301  H       1  <O>11       0.0618
  47 H19       2.9202   -12.2915    -5.4381  H       1  <O>11       0.0620
  48 H20       6.5533   -12.1404    -4.2928  H       1  <O>11       0.0625
  49 H21       7.6381   -14.2269    -3.6898  H       1  <O>11       0.0618
  50 H22       8.4117   -15.7458    -5.4239  H       1  <O>11       0.0637
  51 H23       7.0063   -13.0911    -8.3771  H       1  <O>11       0.0644
@<TRIPOS>BOND
     1     1     2    2
     2     2     3    1
     3     3     4    1
     4     4     5   ar
     5     5     6   ar
     6     6     7   ar
     7     7     8   ar
     8     8     9   ar
     9     4     9   ar
    10     2    10   am
    11    10    11    1
    12    11    12   am
    13    12    13    2
    14    12    14    1
    15    14    15   ar
    16    15    16   ar
    17    16    17   ar
    18    17    18   ar
    19    18    19    1
    20    19    20    2
    21    19    21    2
    22    19    22    1
    23    22    23    1
    24    23    24    1
    25    24    25    1
    26    25    26    1
    27    26    27    1
    28    22    27    1
    29    18    28   ar
    30    14    28   ar
    31     3    29    1
    32     3    30    1
    33    10    31    1
    34    11    32    1
    35    23    33    1
    36    23    34    1
    37    24    35    1
    38    24    36    1
    39    25    37    1
    40    25    38    1
    41    26    39    1
    42    26    40    1
    43    27    41    1
    44    27    42    1
    45     5    43    1
    46     6    44    1
    47     7    45    1
    48     8    46    1
    49     9    47    1
    50    15    48    1
    51    16    49    1
    52    17    50    1
    53    28    51    1
@<TRIPOS>MOLECULE
mol94_1_23
 51 53 0 0 0
SMALL
USER_CHARGES
****
VDW energy = 117.83
@<TRIPOS>ATOM
   1 O1        2.8275    -7.9910    -5.9239  O.2     1  <O>11      -0.2739
   2 C1        3.3598    -9.0478    -5.6186  C.2     1  <O>11       0.2334
   3 C2        2.8830    -9.8060    -4.4250  C.3     1  <O>11       0.0505
   4 C3        1.7378   -10.6559    -4.8073  C.ar    1  <O>11      -0.0386
   5 C4        0.4397   -10.1638    -4.6530  C.ar    1  <O>11      -0.0581
   6 C5       -0.6499   -10.9684    -5.0014  C.ar    1  <O>11      -0.0615
   7 C6       -0.4425   -12.2549    -5.5047  C.ar    1  <O>11      -0.0617
   8 C7        0.8639   -12.7316    -5.6589  C.ar    1  <O>11      -0.0615
   9 C8        1.9588   -11.9366    -5.3164  C.ar    1  <O>11      -0.0581
  10 N1        4.3940    -9.5360    -6.3720  N.am    1  <O>11      -0.2339
  11 N2        4.9930   -10.7240    -6.0292  N.am    1  <O>11      -0.2304
  12 C9        6.0667   -11.1808    -6.7460  C.2     1  <O>11       0.2602
  13 O2        6.4911   -10.5309    -7.6905  O.2     1  <O>11      -0.2687
  14 C10       6.7028   -12.4405    -6.3834  C.ar    1  <O>11       0.0400
  15 C11       5.9238   -13.5395    -5.9850  C.ar    1  <O>11      -0.0495
  16 C12       6.5361   -14.7450    -5.6239  C.ar    1  <O>11      -0.0592
  17 C13       7.9277   -14.8652    -5.6622  C.ar    1  <O>11      -0.0353
  18 C14       8.7038   -13.7724    -6.0660  C.ar    1  <O>11       0.1062
  19 S1       10.4560   -13.9303    -6.1128  S.O2    1  <O>11       0.0609
  20 O3       11.0069   -13.5313    -7.6271  O.2     1  <O>11      -0.1528
  21 O4       10.8793   -15.4991    -5.7650  O.2     1  <O>11      -0.1528
  22 N3       11.1307   -12.9169    -4.9966  N.3     1  <O>11      -0.1766
  23 C15      12.6132   -12.9542    -5.1486  C.3     1  <O>11       0.0205
  24 C16      13.1743   -14.3328    -4.8267  C.3     1  <O>11      -0.0385
  25 C17      12.7680   -14.7732    -3.4240  C.3     1  <O>11      -0.0506
  26 C18      11.2546   -14.7095    -3.2506  C.3     1  <O>11      -0.0385
  27 C19      10.6968   -13.3432    -3.6361  C.3     1  <O>11       0.0205
  28 C20       8.1017   -12.5676    -6.4292  C.ar    1  <O>11      -0.0232
  29 H1        3.6906   -10.4324    -4.0463  H       1  <O>11       0.0407
  30 H2        2.5727    -9.1051    -3.6495  H       1  <O>11       0.0407
  31 H3        4.7194    -9.0172    -7.1875  H       1  <O>11       0.1728
  32 H4        4.6382   -11.2656    -5.2413  H       1  <O>11       0.1731
  33 H5       12.8708   -12.6984    -6.1758  H       1  <O>11       0.0444
  34 H6       13.0569   -12.2248    -4.4707  H       1  <O>11       0.0444
  35 H7       12.7892   -15.0519    -5.5506  H       1  <O>11       0.0278
  36 H8       14.2612   -14.2994    -4.8898  H       1  <O>11       0.0278
  37 H9       13.1033   -15.7962    -3.2615  H       1  <O>11       0.0266
  38 H10      13.2388   -14.1146    -2.6949  H       1  <O>11       0.0266
  39 H11      10.7946   -15.4691    -3.8821  H       1  <O>11       0.0278
  40 H12      11.0107   -14.9086    -2.2070  H       1  <O>11       0.0278
  41 H13       9.6086   -13.3914    -3.6147  H       1  <O>11       0.0444
  42 H14      11.0427   -12.6069    -2.9117  H       1  <O>11       0.0444
  43 H15       0.2856    -9.2123    -4.2842  H       1  <O>11       0.0620
  44 H16      -1.6109   -10.6103    -4.8861  H       1  <O>11       0.0618
  45 H17      -1.2465   -12.8490    -5.7608  H       1  <O>11       0.0618
  46 H18       1.0196   -13.6818    -6.0301  H       1  <O>11       0.0618
  47 H19       2.9202   -12.2915    -5.4381  H       1  <O>11       0.0620
  48 H20       4.8954   -13.4575    -5.9583  H       1  <O>11       0.0625
  49 H21       5.9582   -15.5474    -5.3287  H       1  <O>11       0.0618
  50 H22       8.3801   -15.7533    -5.3945  H       1  <O>11       0.0637
  51 H23       8.6831   -11.7702    -6.7313  H       1  <O>11       0.0644
@<TRIPOS>BOND
     1     1     2    2
     2     2     3    1
     3     3     4    1
     4     4     5   ar
     5     5     6   ar
     6     6     7   ar
     7     7     8   ar
     8     8     9   ar
     9     4     9   ar
    10     2    10   am
    11    10    11    1
    12    11    12   am
    13    12    13    2
    14    12    14    1
    15    14    15   ar
    16    15    16   ar
    17    16    17   ar
    18    17    18   ar
    19    18    19    1
    20    19    20    2
    21    19    21    2
    22    19    22    1
    23    22    23    1
    24    23    24    1
    25    24    25    1
    26    25    26    1
    27    26    27    1
    28    22    27    1
    29    18    28   ar
    30    14    28   ar
    31     3    29    1
    32     3    30    1
    33    10    31    1
    34    11    32    1
    35    23    33    1
    36    23    34    1
    37    24    35    1
    38    24    36    1
    39    25    37    1
    40    25    38    1
    41    26    39    1
    42    26    40    1
    43    27    41    1
    44    27    42    1
    45     5    43    1
    46     6    44    1
    47     7    45    1
    48     8    46    1
    49     9    47    1
    50    15    48    1
    51    16    49    1
    52    17    50    1
    53    28    51    1
@<TRIPOS>MOLECULE
mol94_1_24
 51 53 0 0 0
SMALL
USER_CHARGES
****
VDW energy = 119.10
@<TRIPOS>ATOM
   1 O1        2.8275    -7.9910    -5.9239  O.2     1  <O>11      -0.2739
   2 C1        3.3598    -9.0478    -5.6186  C.2     1  <O>11       0.2334
   3 C2        2.8830    -9.8060    -4.4250  C.3     1  <O>11       0.0505
   4 C3        1.7378   -10.6559    -4.8073  C.ar    1  <O>11      -0.0386
   5 C4        0.4397   -10.1638    -4.6530  C.ar    1  <O>11      -0.0581
   6 C5       -0.6499   -10.9684    -5.0014  C.ar    1  <O>11      -0.0615
   7 C6       -0.4425   -12.2549    -5.5047  C.ar    1  <O>11      -0.0617
   8 C7        0.8639   -12.7316    -5.6589  C.ar    1  <O>11      -0.0615
   9 C8        1.9588   -11.9366    -5.3164  C.ar    1  <O>11      -0.0581
  10 N1        4.3940    -9.5360    -6.3720  N.am    1  <O>11      -0.2339
  11 N2        4.8330    -8.8380    -7.4710  N.am    1  <O>11      -0.2304
  12 C9        5.3138    -7.5640    -7.3252  C.2     1  <O>11       0.2602
  13 O2        5.7045    -6.9435    -8.3034  O.2     1  <O>11      -0.2687
  14 C10       5.3599    -6.9486    -6.0054  C.ar    1  <O>11       0.0400
  15 C11       5.7348    -7.7053    -4.8827  C.ar    1  <O>11      -0.0495
  16 C12       5.7658    -7.1170    -3.6132  C.ar    1  <O>11      -0.0592
  17 C13       5.4284    -5.7704    -3.4546  C.ar    1  <O>11      -0.0353
  18 C14       5.0617    -5.0143    -4.5742  C.ar    1  <O>11       0.1062
  19 S1        4.6386    -3.3185    -4.3678  S.O2    1  <O>11       0.0609
  20 O3        5.5833    -2.3875    -5.3663  O.2     1  <O>11      -0.1528
  21 O4        4.8958    -2.8728    -2.7879  O.2     1  <O>11      -0.1528
  22 N3        3.0474    -3.0968    -4.7511  N.3     1  <O>11      -0.1766
  23 C15       2.7430    -1.6380    -4.7124  C.3     1  <O>11       0.0205
  24 C16       2.8979    -1.0711    -3.3076  C.3     1  <O>11      -0.0385
  25 C17       2.0220    -1.8279    -2.3143  C.3     1  <O>11      -0.0506
  26 C18       2.3061    -3.3249    -2.3687  C.3     1  <O>11      -0.0385
  27 C19       2.2096    -3.8690    -3.7904  C.3     1  <O>11       0.0205
  28 C20       5.0297    -5.5922    -5.8435  C.ar    1  <O>11      -0.0232
  29 H1        3.6906   -10.4324    -4.0463  H       1  <O>11       0.0407
  30 H2        2.5727    -9.1051    -3.6495  H       1  <O>11       0.0407
  31 H3        4.8380   -10.4180    -6.1170  H       1  <O>11       0.1728
  32 H4        4.8010    -9.2684    -8.3950  H       1  <O>11       0.1731
  33 H5        3.4255    -1.1156    -5.3820  H       1  <O>11       0.0444
  34 H6        1.7169    -1.4816    -5.0456  H       1  <O>11       0.0444
  35 H7        3.9408    -1.1592    -3.0011  H       1  <O>11       0.0278
  36 H8        2.6074    -0.0213    -3.3124  H       1  <O>11       0.0278
  37 H9        2.2264    -1.4620    -1.3095  H       1  <O>11       0.0266
  38 H10       0.9749    -1.6542    -2.5602  H       1  <O>11       0.0266
  39 H11       3.3110    -3.5075    -1.9888  H       1  <O>11       0.0278
  40 H12       1.5810    -3.8443    -1.7421  H       1  <O>11       0.0278
  41 H13       2.5423    -4.9064    -3.7909  H       1  <O>11       0.0444
  42 H14       1.1707    -3.8199    -4.1141  H       1  <O>11       0.0444
  43 H15       0.2856    -9.2123    -4.2842  H       1  <O>11       0.0620
  44 H16      -1.6109   -10.6103    -4.8861  H       1  <O>11       0.0618
  45 H17      -1.2465   -12.8490    -5.7608  H       1  <O>11       0.0618
  46 H18       1.0196   -13.6818    -6.0301  H       1  <O>11       0.0618
  47 H19       2.9202   -12.2915    -5.4381  H       1  <O>11       0.0620
  48 H20       5.9884    -8.6993    -4.9946  H       1  <O>11       0.0625
  49 H21       6.0387    -7.6794    -2.7921  H       1  <O>11       0.0618
  50 H22       5.4495    -5.3362    -2.5186  H       1  <O>11       0.0637
  51 H23       4.7637    -5.0240    -6.6630  H       1  <O>11       0.0644
@<TRIPOS>BOND
     1     1     2    2
     2     2     3    1
     3     3     4    1
     4     4     5   ar
     5     5     6   ar
     6     6     7   ar
     7     7     8   ar
     8     8     9   ar
     9     4     9   ar
    10     2    10   am
    11    10    11    1
    12    11    12   am
    13    12    13    2
    14    12    14    1
    15    14    15   ar
    16    15    16   ar
    17    16    17   ar
    18    17    18   ar
    19    18    19    1
    20    19    20    2
    21    19    21    2
    22    19    22    1
    23    22    23    1
    24    23    24    1
    25    24    25    1
    26    25    26    1
    27    26    27    1
    28    22    27    1
    29    18    28   ar
    30    14    28   ar
    31     3    29    1
    32     3    30    1
    33    10    31    1
    34    11    32    1
    35    23    33    1
    36    23    34    1
    37    24    35    1
    38    24    36    1
    39    25    37    1
    40    25    38    1
    41    26    39    1
    42    26    40    1
    43    27    41    1
    44    27    42    1
    45     5    43    1
    46     6    44    1
    47     7    45    1
    48     8    46    1
    49     9    47    1
    50    15    48    1
    51    16    49    1
    52    17    50    1
    53    28    51    1
@<TRIPOS>MOLECULE
mol94_1_25
 51 53 0 0 0
SMALL
USER_CHARGES
****
VDW energy = 120.04
@<TRIPOS>ATOM
   1 O1        2.8275    -7.9910    -5.9239  O.2     1  <O>11      -0.2739
   2 C1        3.3598    -9.0478    -5.6186  C.2     1  <O>11       0.2334
   3 C2        2.8830    -9.8060    -4.4250  C.3     1  <O>11       0.0505
   4 C3        1.7687    -9.0742    -3.7903  C.ar    1  <O>11      -0.0386
   5 C4        2.0413    -8.1796    -2.7528  C.ar    1  <O>11      -0.0581
   6 C5        0.9890    -7.4928    -2.1389  C.ar    1  <O>11      -0.0615
   7 C6       -0.3265    -7.6961    -2.5625  C.ar    1  <O>11      -0.0617
   8 C7       -0.5830    -8.5912    -3.6068  C.ar    1  <O>11      -0.0615
   9 C8        0.4595    -9.2806    -4.2282  C.ar    1  <O>11      -0.0581
  10 N1        4.3940    -9.5360    -6.3720  N.am    1  <O>11      -0.2339
  11 N2        4.8330    -8.8380    -7.4710  N.am    1  <O>11      -0.2304
  12 C9        5.3137    -7.5640    -7.3253  C.2     1  <O>11       0.2602
  13 O2        5.3510    -7.0488    -6.2173  O.2     1  <O>11      -0.2687
  14 C10       5.7801    -6.8231    -8.4899  C.ar    1  <O>11       0.0400
  15 C11       4.8899    -6.0217    -9.2239  C.ar    1  <O>11      -0.0495
  16 C12       5.3355    -5.3209   -10.3504  C.ar    1  <O>11      -0.0592
  17 C13       6.6714    -5.4099   -10.7500  C.ar    1  <O>11      -0.0353
  18 C14       7.5604    -6.2028   -10.0146  C.ar    1  <O>11       0.1062
  19 S1        9.2419    -6.3102   -10.5227  S.O2    1  <O>11       0.0609
  20 O3        9.3348    -6.1250   -12.1699  O.2     1  <O>11      -0.1528
  21 O4        9.8545    -7.7950   -10.0969  O.2     1  <O>11      -0.1528
  22 N3       10.1177    -5.1201    -9.7846  N.3     1  <O>11      -0.1766
  23 C15      11.5033    -5.1326   -10.3344  C.3     1  <O>11       0.0205
  24 C16      12.2276    -6.4289    -9.9970  C.3     1  <O>11      -0.0385
  25 C17      12.2467    -6.6671    -8.4906  C.3     1  <O>11      -0.0506
  26 C18      10.8353    -6.6263    -7.9154  C.3     1  <O>11      -0.0385
  27 C19      10.0978    -5.3516    -8.3124  C.3     1  <O>11       0.0205
  28 C20       7.1251    -6.9034    -8.8895  C.ar    1  <O>11      -0.0232
  29 H1        2.5403   -10.7931    -4.7349  H       1  <O>11       0.0407
  30 H2        3.7009    -9.9127    -3.7118  H       1  <O>11       0.0407
  31 H3        4.8380   -10.4180    -6.1170  H       1  <O>11       0.1728
  32 H4        4.8009    -9.2684    -8.3950  H       1  <O>11       0.1731
  33 H5       11.4558    -5.0254   -11.4176  H       1  <O>11       0.0444
  34 H6       12.0596    -4.2962    -9.9109  H       1  <O>11       0.0444
  35 H7       11.7145    -7.2601   -10.4820  H       1  <O>11       0.0278
  36 H8       13.2522    -6.3707   -10.3624  H       1  <O>11       0.0278
  37 H9       12.6857    -7.6430    -8.2905  H       1  <O>11       0.0266
  38 H10      12.8479    -5.8921    -8.0162  H       1  <O>11       0.0266
  39 H11      10.2780    -7.4861    -8.2862  H       1  <O>11       0.0278
  40 H12      10.8963    -6.6746    -6.8281  H       1  <O>11       0.0278
  41 H13       9.0619    -5.4306    -7.9845  H       1  <O>11       0.0444
  42 H14      10.5722    -4.5046    -7.8185  H       1  <O>11       0.0444
  43 H15       3.0131    -8.0264    -2.4414  H       1  <O>11       0.0620
  44 H16       1.1852    -6.8331    -1.3698  H       1  <O>11       0.0618
  45 H17      -1.1031    -7.1900    -2.1087  H       1  <O>11       0.0618
  46 H18      -1.5541    -8.7434    -3.9212  H       1  <O>11       0.0618
  47 H19       0.2647    -9.9350    -5.0020  H       1  <O>11       0.0620
  48 H20       3.9029    -5.9495    -8.9312  H       1  <O>11       0.0625
  49 H21       4.6755    -4.7368   -10.8872  H       1  <O>11       0.0618
  50 H22       7.0005    -4.8948   -11.5815  H       1  <O>11       0.0637
  51 H23       7.7903    -7.4802    -8.3511  H       1  <O>11       0.0644
@<TRIPOS>BOND
     1     1     2    2
     2     2     3    1
     3     3     4    1
     4     4     5   ar
     5     5     6   ar
     6     6     7   ar
     7     7     8   ar
     8     8     9   ar
     9     4     9   ar
    10     2    10   am
    11    10    11    1
    12    11    12   am
    13    12    13    2
    14    12    14    1
    15    14    15   ar
    16    15    16   ar
    17    16    17   ar
    18    17    18   ar
    19    18    19    1
    20    19    20    2
    21    19    21    2
    22    19    22    1
    23    22    23    1
    24    23    24    1
    25    24    25    1
    26    25    26    1
    27    26    27    1
    28    22    27    1
    29    18    28   ar
    30    14    28   ar
    31     3    29    1
    32     3    30    1
    33    10    31    1
    34    11    32    1
    35    23    33    1
    36    23    34    1
    37    24    35    1
    38    24    36    1
    39    25    37    1
    40    25    38    1
    41    26    39    1
    42    26    40    1
    43    27    41    1
    44    27    42    1
    45     5    43    1
    46     6    44    1
    47     7    45    1
    48     8    46    1
    49     9    47    1
    50    15    48    1
    51    16    49    1
    52    17    50    1
    53    28    51    1
@<TRIPOS>MOLECULE
mol94_1_26
 51 53 0 0 0
SMALL
USER_CHARGES
****
VDW energy = 125.12
@<TRIPOS>ATOM
   1 O1        2.8275    -7.9910    -5.9239  O.2     1  <O>11      -0.2739
   2 C1        3.3598    -9.0478    -5.6186  C.2     1  <O>11       0.2334
   3 C2        2.8830    -9.8060    -4.4250  C.3     1  <O>11       0.0505
   4 C3        1.7378   -10.6559    -4.8073  C.ar    1  <O>11      -0.0386
   5 C4        0.4397   -10.1638    -4.6530  C.ar    1  <O>11      -0.0581
   6 C5       -0.6499   -10.9684    -5.0014  C.ar    1  <O>11      -0.0615
   7 C6       -0.4425   -12.2549    -5.5047  C.ar    1  <O>11      -0.0617
   8 C7        0.8639   -12.7316    -5.6589  C.ar    1  <O>11      -0.0615
   9 C8        1.9588   -11.9366    -5.3164  C.ar    1  <O>11      -0.0581
  10 N1        4.3940    -9.5360    -6.3720  N.am    1  <O>11      -0.2339
  11 N2        4.9930   -10.7240    -6.0292  N.am    1  <O>11      -0.2304
  12 C9        6.0667   -11.1808    -6.7460  C.2     1  <O>11       0.2602
  13 O2        6.5995   -12.2379    -6.4404  O.2     1  <O>11      -0.2687
  14 C10       6.5741   -10.4075    -7.8718  C.ar    1  <O>11       0.0400
  15 C11       6.0561   -10.6094    -9.1618  C.ar    1  <O>11      -0.0495
  16 C12       6.5532    -9.8759   -10.2450  C.ar    1  <O>11      -0.0592
  17 C13       7.5660    -8.9332   -10.0494  C.ar    1  <O>11      -0.0353
  18 C14       8.0775    -8.7268    -8.7628  C.ar    1  <O>11       0.1062
  19 S1        9.3524    -7.5376    -8.5229  S.O2    1  <O>11       0.0609
  20 O3        8.8804    -6.4471    -7.3636  O.2     1  <O>11      -0.1528
  21 O4        9.6389    -6.7383    -9.9513  O.2     1  <O>11      -0.1528
  22 N3       10.7325    -8.3006    -8.0317  N.3     1  <O>11      -0.1766
  23 C15      10.4578    -9.0119    -6.7507  C.3     1  <O>11       0.0205
  24 C16      10.1203    -8.0372    -5.6306  C.3     1  <O>11      -0.0385
  25 C17      11.2341    -7.0115    -5.4459  C.3     1  <O>11      -0.0506
  26 C18      11.5418    -6.3001    -6.7588  C.3     1  <O>11      -0.0385
  27 C19      11.8164    -7.2879    -7.8881  C.3     1  <O>11       0.0205
  28 C20       7.5866    -9.4524    -7.6772  C.ar    1  <O>11      -0.0232
  29 H1        3.6906   -10.4324    -4.0463  H       1  <O>11       0.0407
  30 H2        2.5727    -9.1051    -3.6495  H       1  <O>11       0.0407
  31 H3        4.7194    -9.0172    -7.1875  H       1  <O>11       0.1728
  32 H4        4.6382   -11.2656    -5.2413  H       1  <O>11       0.1731
  33 H5        9.6172    -9.6899    -6.8950  H       1  <O>11       0.0444
  34 H6       11.3412    -9.5842    -6.4672  H       1  <O>11       0.0444
  35 H7        9.1948    -7.5162    -5.8786  H       1  <O>11       0.0278
  36 H8        9.9882    -8.5919    -4.7025  H       1  <O>11       0.0278
  37 H9       10.9213    -6.2764    -4.7062  H       1  <O>11       0.0266
  38 H10      12.1317    -7.5211    -5.0972  H       1  <O>11       0.0266
  39 H11      10.6888    -5.6798    -7.0326  H       1  <O>11       0.0278
  40 H12      12.4200    -5.6692    -6.6204  H       1  <O>11       0.0278
  41 H13      11.9048    -6.7347    -8.8225  H       1  <O>11       0.0444
  42 H14      12.7529    -7.8045    -7.6812  H       1  <O>11       0.0444
  43 H15       0.2856    -9.2123    -4.2842  H       1  <O>11       0.0620
  44 H16      -1.6109   -10.6103    -4.8861  H       1  <O>11       0.0618
  45 H17      -1.2465   -12.8490    -5.7608  H       1  <O>11       0.0618
  46 H18       1.0196   -13.6818    -6.0301  H       1  <O>11       0.0618
  47 H19       2.9202   -12.2915    -5.4381  H       1  <O>11       0.0620
  48 H20       5.3055   -11.3017    -9.3115  H       1  <O>11       0.0625
  49 H21       6.1708   -10.0316   -11.1908  H       1  <O>11       0.0618
  50 H22       7.9343    -8.3930   -10.8479  H       1  <O>11       0.0637
  51 H23       7.9665    -9.2879    -6.7318  H       1  <O>11       0.0644
@<TRIPOS>BOND
     1     1     2    2
     2     2     3    1
     3     3     4    1
     4     4     5   ar
     5     5     6   ar
     6     6     7   ar
     7     7     8   ar
     8     8     9   ar
     9     4     9   ar
    10     2    10   am
    11    10    11    1
    12    11    12   am
    13    12    13    2
    14    12    14    1
    15    14    15   ar
    16    15    16   ar
    17    16    17   ar
    18    17    18   ar
    19    18    19    1
    20    19    20    2
    21    19    21    2
    22    19    22    1
    23    22    23    1
    24    23    24    1
    25    24    25    1
    26    25    26    1
    27    26    27    1
    28    22    27    1
    29    18    28   ar
    30    14    28   ar
    31     3    29    1
    32     3    30    1
    33    10    31    1
    34    11    32    1
    35    23    33    1
    36    23    34    1
    37    24    35    1
    38    24    36    1
    39    25    37    1
    40    25    38    1
    41    26    39    1
    42    26    40    1
    43    27    41    1
    44    27    42    1
    45     5    43    1
    46     6    44    1
    47     7    45    1
    48     8    46    1
    49     9    47    1
    50    15    48    1
    51    16    49    1
    52    17    50    1
    53    28    51    1
@<TRIPOS>MOLECULE
mol94_1_27
 51 53 0 0 0
SMALL
USER_CHARGES
****
VDW energy = 125.51
@<TRIPOS>ATOM
   1 O1        2.8275    -7.9910    -5.9239  O.2     1  <O>11      -0.2739
   2 C1        3.3598    -9.0478    -5.6186  C.2     1  <O>11       0.2334
   3 C2        2.8830    -9.8060    -4.4250  C.3     1  <O>11       0.0505
   4 C3        1.7378   -10.6559    -4.8073  C.ar    1  <O>11      -0.0386
   5 C4        0.4397   -10.1638    -4.6530  C.ar    1  <O>11      -0.0581
   6 C5       -0.6499   -10.9684    -5.0014  C.ar    1  <O>11      -0.0615
   7 C6       -0.4425   -12.2549    -5.5047  C.ar    1  <O>11      -0.0617
   8 C7        0.8639   -12.7316    -5.6589  C.ar    1  <O>11      -0.0615
   9 C8        1.9588   -11.9366    -5.3164  C.ar    1  <O>11      -0.0581
  10 N1        4.3940    -9.5360    -6.3720  N.am    1  <O>11      -0.2339
  11 N2        4.8330    -8.8380    -7.4710  N.am    1  <O>11      -0.2304
  12 C9        5.8254    -9.3565    -8.2594  C.2     1  <O>11       0.2602
  13 O2        6.2155    -8.7351    -9.2372  O.2     1  <O>11      -0.2687
  14 C10       6.4158   -10.6480    -7.9332  C.ar    1  <O>11       0.0400
  15 C11       5.6084   -11.7005    -7.4708  C.ar    1  <O>11      -0.0495
  16 C12       6.1780   -12.9366    -7.1450  C.ar    1  <O>11      -0.0592
  17 C13       7.5545   -13.1338    -7.2822  C.ar    1  <O>11      -0.0353
  18 C14       8.3583   -12.0873    -7.7497  C.ar    1  <O>11       0.1062
  19 S1       10.0913   -12.3423    -7.9211  S.O2    1  <O>11       0.0609
  20 O3       10.5523   -11.9807    -9.4744  O.2     1  <O>11      -0.1528
  21 O4       10.4517   -13.9307    -7.5919  O.2     1  <O>11      -0.1528
  22 N3       10.8995   -11.3632    -6.8647  N.3     1  <O>11      -0.1766
  23 C15      12.3629   -11.4832    -7.1226  C.3     1  <O>11       0.0205
  24 C16      12.8691   -12.8894    -6.8307  C.3     1  <O>11      -0.0385
  25 C17      12.5417   -13.3008    -5.3989  C.3     1  <O>11      -0.0506
  26 C18      11.0506   -13.1526    -5.1176  C.3     1  <O>11      -0.0385
  27 C19      10.5423   -11.7591    -5.4731  C.3     1  <O>11       0.0205
  28 C20       7.7987   -10.8525    -8.0785  C.ar    1  <O>11      -0.0232
  29 H1        3.6906   -10.4324    -4.0463  H       1  <O>11       0.0407
  30 H2        2.5727    -9.1051    -3.6495  H       1  <O>11       0.0407
  31 H3        4.8380   -10.4180    -6.1170  H       1  <O>11       0.1728
  32 H4        4.4200    -7.9340    -7.6996  H       1  <O>11       0.1731
  33 H5       12.5592   -11.2463    -8.1678  H       1  <O>11       0.0444
  34 H6       12.8938   -10.7767    -6.4844  H       1  <O>11       0.0444
  35 H7       12.3938   -13.5890    -7.5191  H       1  <O>11       0.0278
  36 H8       13.9488   -12.9165    -6.9721  H       1  <O>11       0.0278
  37 H9       12.8311   -14.3401    -5.2526  H       1  <O>11       0.0266
  38 H10      13.0995   -12.6662    -4.7109  H       1  <O>11       0.0266
  39 H11      10.5051   -13.8882    -5.7082  H       1  <O>11       0.0278
  40 H12      10.8722   -13.3335    -4.0575  H       1  <O>11       0.0278
  41 H13       9.4575   -11.7468    -5.3731  H       1  <O>11       0.0444
  42 H14      10.9796   -11.0401    -4.7814  H       1  <O>11       0.0444
  43 H15       0.2856    -9.2123    -4.2842  H       1  <O>11       0.0620
  44 H16      -1.6109   -10.6103    -4.8861  H       1  <O>11       0.0618
  45 H17      -1.2465   -12.8490    -5.7608  H       1  <O>11       0.0618
  46 H18       1.0196   -13.6818    -6.0301  H       1  <O>11       0.0618
  47 H19       2.9202   -12.2915    -5.4381  H       1  <O>11       0.0620
  48 H20       4.5907   -11.5615    -7.3709  H       1  <O>11       0.0625
  49 H21       5.5798   -13.7045    -6.8024  H       1  <O>11       0.0618
  50 H22       7.9757   -14.0445    -7.0406  H       1  <O>11       0.0637
  51 H23       8.3996   -10.0898    -8.4281  H       1  <O>11       0.0644
@<TRIPOS>BOND
     1     1     2    2
     2     2     3    1
     3     3     4    1
     4     4     5   ar
     5     5     6   ar
     6     6     7   ar
     7     7     8   ar
     8     8     9   ar
     9     4     9   ar
    10     2    10   am
    11    10    11    1
    12    11    12   am
    13    12    13    2
    14    12    14    1
    15    14    15   ar
    16    15    16   ar
    17    16    17   ar
    18    17    18   ar
    19    18    19    1
    20    19    20    2
    21    19    21    2
    22    19    22    1
    23    22    23    1
    24    23    24    1
    25    24    25    1
    26    25    26    1
    27    26    27    1
    28    22    27    1
    29    18    28   ar
    30    14    28   ar
    31     3    29    1
    32     3    30    1
    33    10    31    1
    34    11    32    1
    35    23    33    1
    36    23    34    1
    37    24    35    1
    38    24    36    1
    39    25    37    1
    40    25    38    1
    41    26    39    1
    42    26    40    1
    43    27    41    1
    44    27    42    1
    45     5    43    1
    46     6    44    1
    47     7    45    1
    48     8    46    1
    49     9    47    1
    50    15    48    1
    51    16    49    1
    52    17    50    1
    53    28    51    1
@<TRIPOS>MOLECULE
mol94_1_28
 51 53 0 0 0
SMALL
USER_CHARGES
****
VDW energy = 126.05
@<TRIPOS>ATOM
   1 O1        2.8275    -7.9910    -5.9239  O.2     1  <O>11      -0.2739
   2 C1        3.3598    -9.0478    -5.6186  C.2     1  <O>11       0.2334
   3 C2        2.8830    -9.8060    -4.4250  C.3     1  <O>11       0.0505
   4 C3        1.7378   -10.6559    -4.8073  C.ar    1  <O>11      -0.0386
   5 C4        0.4397   -10.1638    -4.6530  C.ar    1  <O>11      -0.0581
   6 C5       -0.6499   -10.9684    -5.0014  C.ar    1  <O>11      -0.0615
   7 C6       -0.4425   -12.2549    -5.5047  C.ar    1  <O>11      -0.0617
   8 C7        0.8639   -12.7316    -5.6589  C.ar    1  <O>11      -0.0615
   9 C8        1.9588   -11.9366    -5.3164  C.ar    1  <O>11      -0.0581
  10 N1        4.3940    -9.5360    -6.3720  N.am    1  <O>11      -0.2339
  11 N2        4.9930   -10.7240    -6.0292  N.am    1  <O>11      -0.2304
  12 C9        6.0667   -11.1808    -6.7460  C.2     1  <O>11       0.2602
  13 O2        6.4911   -10.5309    -7.6905  O.2     1  <O>11      -0.2687
  14 C10       6.7028   -12.4405    -6.3834  C.ar    1  <O>11       0.0400
  15 C11       7.7483   -12.4631    -5.4455  C.ar    1  <O>11      -0.0495
  16 C12       8.3678   -13.6716    -5.1077  C.ar    1  <O>11      -0.0592
  17 C13       7.9467   -14.8660    -5.6983  C.ar    1  <O>11      -0.0353
  18 C14       6.9001   -14.8447    -6.6277  C.ar    1  <O>11       0.1062
  19 S1        6.3738   -16.3525    -7.3674  S.O2    1  <O>11       0.0609
  20 O3        5.8541   -17.3962    -6.1856  O.2     1  <O>11      -0.1528
  21 O4        7.6441   -17.0370    -8.1914  O.2     1  <O>11      -0.1528
  22 N3        5.1354   -16.0486    -8.4171  N.3     1  <O>11      -0.1766
  23 C15       4.6058   -17.3468    -8.9235  C.3     1  <O>11       0.0205
  24 C16       5.6487   -18.0954    -9.7425  C.3     1  <O>11      -0.0385
  25 C17       6.1554   -17.2366   -10.8967  C.3     1  <O>11      -0.0506
  26 C18       6.6717   -15.8943   -10.3904  C.3     1  <O>11      -0.0385
  27 C19       5.6415   -15.1825    -9.5195  C.3     1  <O>11       0.0205
  28 C20       6.2758   -13.6448    -6.9689  C.ar    1  <O>11      -0.0232
  29 H1        3.6906   -10.4324    -4.0463  H       1  <O>11       0.0407
  30 H2        2.5727    -9.1051    -3.6495  H       1  <O>11       0.0407
  31 H3        4.7194    -9.0172    -7.1875  H       1  <O>11       0.1728
  32 H4        4.6382   -11.2656    -5.2413  H       1  <O>11       0.1731
  33 H5        4.3116   -17.9645    -8.0755  H       1  <O>11       0.0444
  34 H6        3.7356   -17.1534    -9.5509  H       1  <O>11       0.0444
  35 H7        6.4887   -18.3554    -9.0973  H       1  <O>11       0.0278
  36 H8        5.2024   -19.0048   -10.1431  H       1  <O>11       0.0278
  37 H9        6.9634   -17.7621   -11.4028  H       1  <O>11       0.0266
  38 H10       5.3380   -17.0637   -11.5960  H       1  <O>11       0.0266
  39 H11       7.5742   -16.0620    -9.8031  H       1  <O>11       0.0278
  40 H12       6.9077   -15.2619   -11.2462  H       1  <O>11       0.0278
  41 H13       6.1034   -14.2968    -9.0848  H       1  <O>11       0.0444
  42 H14       4.8006   -14.8847   -10.1446  H       1  <O>11       0.0444
  43 H15       0.2856    -9.2123    -4.2842  H       1  <O>11       0.0620
  44 H16      -1.6109   -10.6103    -4.8861  H       1  <O>11       0.0618
  45 H17      -1.2465   -12.8490    -5.7608  H       1  <O>11       0.0618
  46 H18       1.0196   -13.6818    -6.0301  H       1  <O>11       0.0618
  47 H19       2.9202   -12.2915    -5.4381  H       1  <O>11       0.0620
  48 H20       8.0610   -11.5845    -5.0036  H       1  <O>11       0.0625
  49 H21       9.1377   -13.6808    -4.4206  H       1  <O>11       0.0618
  50 H22       8.4041   -15.7574    -5.4510  H       1  <O>11       0.0637
  51 H23       5.5011   -13.6413    -7.6507  H       1  <O>11       0.0644
@<TRIPOS>BOND
     1     1     2    2
     2     2     3    1
     3     3     4    1
     4     4     5   ar
     5     5     6   ar
     6     6     7   ar
     7     7     8   ar
     8     8     9   ar
     9     4     9   ar
    10     2    10   am
    11    10    11    1
    12    11    12   am
    13    12    13    2
    14    12    14    1
    15    14    15   ar
    16    15    16   ar
    17    16    17   ar
    18    17    18   ar
    19    18    19    1
    20    19    20    2
    21    19    21    2
    22    19    22    1
    23    22    23    1
    24    23    24    1
    25    24    25    1
    26    25    26    1
    27    26    27    1
    28    22    27    1
    29    18    28   ar
    30    14    28   ar
    31     3    29    1
    32     3    30    1
    33    10    31    1
    34    11    32    1
    35    23    33    1
    36    23    34    1
    37    24    35    1
    38    24    36    1
    39    25    37    1
    40    25    38    1
    41    26    39    1
    42    26    40    1
    43    27    41    1
    44    27    42    1
    45     5    43    1
    46     6    44    1
    47     7    45    1
    48     8    46    1
    49     9    47    1
    50    15    48    1
    51    16    49    1
    52    17    50    1
    53    28    51    1
@<TRIPOS>MOLECULE
mol94_1_29
 51 53 0 0 0
SMALL
USER_CHARGES
****
VDW energy = 129.39
@<TRIPOS>ATOM
   1 O1        2.8275    -7.9910    -5.9239  O.2     1  <O>11      -0.2739
   2 C1        3.3598    -9.0478    -5.6186  C.2     1  <O>11       0.2334
   3 C2        2.8830    -9.8060    -4.4250  C.3     1  <O>11       0.0505
   4 C3        1.7378   -10.6559    -4.8073  C.ar    1  <O>11      -0.0386
   5 C4        0.4397   -10.1638    -4.6530  C.ar    1  <O>11      -0.0581
   6 C5       -0.6499   -10.9684    -5.0014  C.ar    1  <O>11      -0.0615
   7 C6       -0.4425   -12.2549    -5.5047  C.ar    1  <O>11      -0.0617
   8 C7        0.8639   -12.7316    -5.6589  C.ar    1  <O>11      -0.0615
   9 C8        1.9588   -11.9366    -5.3164  C.ar    1  <O>11      -0.0581
  10 N1        4.3940    -9.5360    -6.3720  N.am    1  <O>11      -0.2339
  11 N2        4.9930   -10.7240    -6.0292  N.am    1  <O>11      -0.2304
  12 C9        6.0667   -11.1808    -6.7460  C.2     1  <O>11       0.2602
  13 O2        6.5995   -12.2379    -6.4404  O.2     1  <O>11      -0.2687
  14 C10       6.5741   -10.4075    -7.8718  C.ar    1  <O>11       0.0400
  15 C11       6.6431    -9.0065    -7.7963  C.ar    1  <O>11      -0.0495
  16 C12       7.1179    -8.2634    -8.8830  C.ar    1  <O>11      -0.0592
  17 C13       7.5316    -8.9113   -10.0499  C.ar    1  <O>11      -0.0353
  18 C14       7.4696   -10.3079   -10.1228  C.ar    1  <O>11       0.1062
  19 S1        7.9929   -11.1180   -11.5950  S.O2    1  <O>11       0.0609
  20 O3        9.1536   -12.2452   -11.2231  O.2     1  <O>11      -0.1528
  21 O4        8.6252    -9.9983   -12.6473  O.2     1  <O>11      -0.1528
  22 N3        6.7016   -11.8691   -12.2995  N.3     1  <O>11      -0.1766
  23 C15       7.1862   -12.6686   -13.4607  C.3     1  <O>11       0.0205
  24 C16       7.7718   -11.7779   -14.5480  C.3     1  <O>11      -0.0385
  25 C17       6.7576   -10.7332   -15.0025  C.3     1  <O>11      -0.0506
  26 C18       6.2345    -9.9305   -13.8165  C.3     1  <O>11      -0.0385
  27 C19       5.7082   -10.8356   -12.7073  C.3     1  <O>11       0.0205
  28 C20       6.9993   -11.0565    -9.0437  C.ar    1  <O>11      -0.0232
  29 H1        3.6906   -10.4324    -4.0463  H       1  <O>11       0.0407
  30 H2        2.5727    -9.1051    -3.6495  H       1  <O>11       0.0407
  31 H3        4.7194    -9.0172    -7.1875  H       1  <O>11       0.1728
  32 H4        4.6382   -11.2656    -5.2413  H       1  <O>11       0.1731
  33 H5        7.9546   -13.3609   -13.1183  H       1  <O>11       0.0444
  34 H6        6.3501   -13.2311   -13.8766  H       1  <O>11       0.0444
  35 H7        8.6537   -11.2701   -14.1558  H       1  <O>11       0.0278
  36 H8        8.0557   -12.3944   -15.4000  H       1  <O>11       0.0278
  37 H9        7.2364   -10.0565   -15.7083  H       1  <O>11       0.0266
  38 H10       5.9228   -11.2369   -15.4886  H       1  <O>11       0.0266
  39 H11       7.0446    -9.3199   -13.4186  H       1  <O>11       0.0278
  40 H12       5.4261    -9.2838   -14.1576  H       1  <O>11       0.0278
  41 H13       5.4661   -10.2215   -11.8406  H       1  <O>11       0.0444
  42 H14       4.8079   -11.3360   -13.0616  H       1  <O>11       0.0444
  43 H15       0.2856    -9.2123    -4.2842  H       1  <O>11       0.0620
  44 H16      -1.6109   -10.6103    -4.8861  H       1  <O>11       0.0618
  45 H17      -1.2465   -12.8490    -5.7608  H       1  <O>11       0.0618
  46 H18       1.0196   -13.6818    -6.0301  H       1  <O>11       0.0618
  47 H19       2.9202   -12.2915    -5.4381  H       1  <O>11       0.0620
  48 H20       6.3422    -8.5230    -6.9356  H       1  <O>11       0.0625
  49 H21       7.1626    -7.2342    -8.8223  H       1  <O>11       0.0618
  50 H22       7.8803    -8.3640   -10.8523  H       1  <O>11       0.0637
  51 H23       6.9636   -12.0860    -9.1058  H       1  <O>11       0.0644
@<TRIPOS>BOND
     1     1     2    2
     2     2     3    1
     3     3     4    1
     4     4     5   ar
     5     5     6   ar
     6     6     7   ar
     7     7     8   ar
     8     8     9   ar
     9     4     9   ar
    10     2    10   am
    11    10    11    1
    12    11    12   am
    13    12    13    2
    14    12    14    1
    15    14    15   ar
    16    15    16   ar
    17    16    17   ar
    18    17    18   ar
    19    18    19    1
    20    19    20    2
    21    19    21    2
    22    19    22    1
    23    22    23    1
    24    23    24    1
    25    24    25    1
    26    25    26    1
    27    26    27    1
    28    22    27    1
    29    18    28   ar
    30    14    28   ar
    31     3    29    1
    32     3    30    1
    33    10    31    1
    34    11    32    1
    35    23    33    1
    36    23    34    1
    37    24    35    1
    38    24    36    1
    39    25    37    1
    40    25    38    1
    41    26    39    1
    42    26    40    1
    43    27    41    1
    44    27    42    1
    45     5    43    1
    46     6    44    1
    47     7    45    1
    48     8    46    1
    49     9    47    1
    50    15    48    1
    51    16    49    1
    52    17    50    1
    53    28    51    1
@<TRIPOS>MOLECULE
mol94_1_30
 51 53 0 0 0
SMALL
USER_CHARGES
****
VDW energy = 131.78
@<TRIPOS>ATOM
   1 O1        2.8275    -7.9910    -5.9239  O.2     1  <O>11      -0.2739
   2 C1        3.3598    -9.0478    -5.6186  C.2     1  <O>11       0.2334
   3 C2        2.8830    -9.8060    -4.4250  C.3     1  <O>11       0.0505
   4 C3        1.7378   -10.6559    -4.8073  C.ar    1  <O>11      -0.0386
   5 C4        0.4397   -10.1638    -4.6530  C.ar    1  <O>11      -0.0581
   6 C5       -0.6499   -10.9684    -5.0014  C.ar    1  <O>11      -0.0615
   7 C6       -0.4425   -12.2549    -5.5047  C.ar    1  <O>11      -0.0617
   8 C7        0.8639   -12.7316    -5.6589  C.ar    1  <O>11      -0.0615
   9 C8        1.9588   -11.9366    -5.3164  C.ar    1  <O>11      -0.0581
  10 N1        4.3940    -9.5360    -6.3720  N.am    1  <O>11      -0.2339
  11 N2        4.9930   -10.7240    -6.0292  N.am    1  <O>11      -0.2304
  12 C9        6.0667   -11.1808    -6.7460  C.2     1  <O>11       0.2602
  13 O2        6.5995   -12.2379    -6.4404  O.2     1  <O>11      -0.2687
  14 C10       6.5741   -10.4075    -7.8718  C.ar    1  <O>11       0.0400
  15 C11       5.6849    -9.7644    -8.7487  C.ar    1  <O>11      -0.0495
  16 C12       6.1725    -9.0329    -9.8376  C.ar    1  <O>11      -0.0592
  17 C13       7.5488    -8.9333   -10.0573  C.ar    1  <O>11      -0.0353
  18 C14       8.4354    -9.5683    -9.1795  C.ar    1  <O>11       0.1062
  19 S1       10.1678    -9.4384    -9.4611  S.O2    1  <O>11       0.0609
  20 O3       10.5353   -10.0753   -10.9494  O.2     1  <O>11      -0.1528
  21 O4       10.9841   -10.2782    -8.2823  O.2     1  <O>11      -0.1528
  22 N3       10.6158    -7.8492    -9.4163  N.3     1  <O>11      -0.1766
  23 C15      12.0526    -7.7446    -9.7996  C.3     1  <O>11       0.0205
  24 C16      12.9536    -8.4419    -8.7893  C.3     1  <O>11      -0.0385
  25 C17      12.7314    -7.8869    -7.3860  C.3     1  <O>11      -0.0506
  26 C18      11.2591    -7.9629    -6.9975  C.3     1  <O>11      -0.0385
  27 C19      10.3615    -7.3166    -8.0478  C.3     1  <O>11       0.0205
  28 C20       7.9581   -10.2980    -8.0906  C.ar    1  <O>11      -0.0232
  29 H1        3.6906   -10.4324    -4.0463  H       1  <O>11       0.0407
  30 H2        2.5727    -9.1051    -3.6495  H       1  <O>11       0.0407
  31 H3        4.7194    -9.0172    -7.1875  H       1  <O>11       0.1728
  32 H4        4.6382   -11.2656    -5.2413  H       1  <O>11       0.1731
  33 H5       12.1933    -8.2058   -10.7767  H       1  <O>11       0.0444
  34 H6       12.3290    -6.6914    -9.8522  H       1  <O>11       0.0444
  35 H7       12.7292    -9.5092    -8.7891  H       1  <O>11       0.0278
  36 H8       13.9939    -8.2887    -9.0734  H       1  <O>11       0.0278
  37 H9       13.3183    -8.4682    -6.6768  H       1  <O>11       0.0266
  38 H10      13.0540    -6.8466    -7.3606  H       1  <O>11       0.0266
  39 H11      10.9764    -9.0096    -6.8881  H       1  <O>11       0.0278
  40 H12      11.1182    -7.4474    -6.0474  H       1  <O>11       0.0278
  41 H13       9.3218    -7.5086    -7.7850  H       1  <O>11       0.0444
  42 H14      10.5437    -6.2427    -8.0509  H       1  <O>11       0.0444
  43 H15       0.2856    -9.2123    -4.2842  H       1  <O>11       0.0620
  44 H16      -1.6109   -10.6103    -4.8861  H       1  <O>11       0.0618
  45 H17      -1.2465   -12.8490    -5.7608  H       1  <O>11       0.0618
  46 H18       1.0196   -13.6818    -6.0301  H       1  <O>11       0.0618
  47 H19       2.9202   -12.2915    -5.4381  H       1  <O>11       0.0620
  48 H20       4.6675    -9.8316    -8.5893  H       1  <O>11       0.0625
  49 H21       5.5137    -8.5658   -10.4801  H       1  <O>11       0.0618
  50 H22       7.9092    -8.3955   -10.8610  H       1  <O>11       0.0637
  51 H23       8.6207   -10.7570    -7.4461  H       1  <O>11       0.0644
@<TRIPOS>BOND
     1     1     2    2
     2     2     3    1
     3     3     4    1
     4     4     5   ar
     5     5     6   ar
     6     6     7   ar
     7     7     8   ar
     8     8     9   ar
     9     4     9   ar
    10     2    10   am
    11    10    11    1
    12    11    12   am
    13    12    13    2
    14    12    14    1
    15    14    15   ar
    16    15    16   ar
    17    16    17   ar
    18    17    18   ar
    19    18    19    1
    20    19    20    2
    21    19    21    2
    22    19    22    1
    23    22    23    1
    24    23    24    1
    25    24    25    1
    26    25    26    1
    27    26    27    1
    28    22    27    1
    29    18    28   ar
    30    14    28   ar
    31     3    29    1
    32     3    30    1
    33    10    31    1
    34    11    32    1
    35    23    33    1
    36    23    34    1
    37    24    35    1
    38    24    36    1
    39    25    37    1
    40    25    38    1
    41    26    39    1
    42    26    40    1
    43    27    41    1
    44    27    42    1
    45     5    43    1
    46     6    44    1
    47     7    45    1
    48     8    46    1
    49     9    47    1
    50    15    48    1
    51    16    49    1
    52    17    50    1
    53    28    51    1
