@<TRIPOS>MOLECULE
mol98_1_1
 59 63 0 0 0
SMALL
USER_CHARGES
****
VDW energy = -101.54
@<TRIPOS>ATOM
   1 O1        0.2060     0.3063    -5.2918  O.2     1  <O>11      -0.2700
   2 C1        1.1449     0.5535    -4.5497  C.2     1  <O>11       0.2467
   3 C2        2.3880    -0.1970    -4.6730  C.ar    1  <O>11       0.0372
   4 C3        3.4066     0.2538    -5.5286  C.ar    1  <O>11      -0.0496
   5 C4        4.5940    -0.4739    -5.6556  C.ar    1  <O>11      -0.0608
   6 C5        4.7788    -1.6531    -4.9293  C.ar    1  <O>11      -0.0582
   7 C6        3.7655    -2.0991    -4.0720  C.ar    1  <O>11      -0.0408
   8 C7        3.9646    -3.3451    -3.3058  C.3     1  <O>11       0.0168
   9 C8        4.1766    -4.4762    -4.2453  C.ar    1  <O>11       0.0693
  10 N1        5.4625    -4.8001    -4.6635  N.ar    1  <O>11      -0.1753
  11 N2        5.6660    -5.8330    -5.5201  N.ar    1  <O>11      -0.2427
  12 C9        4.6102    -6.5407    -5.9753  C.ar    1  <O>11       0.2682
  13 O2        4.8893    -7.6109    -6.8465  O.2     1  <O>11      -0.2661
  14 C10       3.2931    -6.2580    -5.6215  C.ar    1  <O>11       0.0232
  15 C11       3.0878    -5.2100    -4.7083  C.ar    1  <O>11      -0.0158
  16 C12       1.7142    -4.8017    -4.2489  C.3     1  <O>11      -0.0255
  17 C13       0.6516    -5.8666    -4.5141  C.3     1  <O>11      -0.0487
  18 C14       0.7741    -6.3883    -5.9380  C.3     1  <O>11      -0.0486
  19 C15       2.1309    -7.0590    -6.1496  C.3     1  <O>11      -0.0222
  20 C16       2.5779    -1.3785    -3.9373  C.ar    1  <O>11      -0.0461
  21 N3        1.0300     1.5280    -3.6100  N.am    1  <O>11      -0.2945
  22 C17      -0.1601     2.3538    -3.3819  C.3     1  <O>11       0.0308
  23 C18       0.1827     3.8529    -3.5259  C.3     1  <O>11       0.0294
  24 N4        1.3598     4.2241    -2.6201  N.pl3   1  <O>11      -0.3122
  25 C19       1.2778     5.3141    -1.6801  C.ar    1  <O>11       0.1213
  26 C20       0.4932     6.4523    -2.0018  C.ar    1  <O>11      -0.0217
  27 C21       0.4106     7.4968    -1.0839  C.ar    1  <O>11      -0.0571
  28 C22       1.1302     7.3876     0.1128  C.ar    1  <O>11      -0.0435
  29 C23       1.8822     6.2400     0.3628  C.ar    1  <O>11       0.0297
  30 N5        1.9457     5.2293    -0.5173  N.ar    1  <O>11      -0.2403
  31 C24       2.5679     3.3122    -2.8522  C.3     1  <O>11       0.0294
  32 C25       2.1391     1.8432    -2.7102  C.3     1  <O>11       0.0308
  33 H1        3.0841    -3.5401    -2.6946  H       1  <O>11       0.0377
  34 H2        4.8374    -3.2389    -2.6614  H       1  <O>11       0.0377
  35 H3        6.6039    -6.0657    -5.8127  H       1  <O>11       0.1921
  36 H4        1.7499    -4.6074    -3.1764  H       1  <O>11       0.0314
  37 H5        1.4296    -3.8897    -4.7748  H       1  <O>11       0.0314
  38 H6        0.7880    -6.6919    -3.8153  H       1  <O>11       0.0268
  39 H7       -0.3379    -5.4306    -4.3737  H       1  <O>11       0.0268
  40 H8       -0.0172    -7.1149    -6.1223  H       1  <O>11       0.0269
  41 H9        0.6737    -5.5560    -6.6341  H       1  <O>11       0.0269
  42 H10       2.1202    -8.0243    -5.6432  H       1  <O>11       0.0315
  43 H11       2.2753    -7.2104    -7.2200  H       1  <O>11       0.0315
  44 H12      -0.9251     2.0897    -4.1117  H       1  <O>11       0.0480
  45 H13      -0.5379     2.1678    -2.3758  H       1  <O>11       0.0480
  46 H14       0.4485     4.0619    -4.5620  H       1  <O>11       0.0480
  47 H15      -0.6863     4.4478    -3.2458  H       1  <O>11       0.0480
  48 H16       2.9607     3.4792    -3.8553  H       1  <O>11       0.0480
  49 H17       3.3389     3.5373    -2.1163  H       1  <O>11       0.0480
  50 H18       2.9851     1.2003    -2.9513  H       1  <O>11       0.0480
  51 H19       1.8252     1.6621    -1.6821  H       1  <O>11       0.0480
  52 H20       3.2783     1.1257    -6.0657  H       1  <O>11       0.0625
  53 H21       5.3369    -0.1386    -6.2885  H       1  <O>11       0.0618
  54 H22       5.6546    -2.1908    -5.0239  H       1  <O>11       0.0620
  55 H23       1.8401    -1.7134    -3.2981  H       1  <O>11       0.0628
  56 H24      -0.0085     6.5052    -2.9021  H       1  <O>11       0.0652
  57 H25      -0.1661     8.3298    -1.2806  H       1  <O>11       0.0619
  58 H26       1.1040     8.1520     0.8057  H       1  <O>11       0.0633
  59 H27       2.4047     6.1662     1.2497  H       1  <O>11       0.0830
@<TRIPOS>BOND
     1     1     2    2
     2     2     3    1
     3     3     4   ar
     4     4     5   ar
     5     5     6   ar
     6     6     7   ar
     7     7     8    1
     8     8     9    1
     9     9    10   ar
    10    10    11   ar
    11    11    12   ar
    12    12    13    2
    13    12    14   ar
    14    14    15   ar
    15     9    15   ar
    16    15    16    1
    17    16    17    1
    18    17    18    1
    19    18    19    1
    20    14    19    1
    21     7    20   ar
    22     3    20   ar
    23     2    21   am
    24    21    22    1
    25    22    23    1
    26    23    24    1
    27    24    25    1
    28    25    26   ar
    29    26    27   ar
    30    27    28   ar
    31    28    29   ar
    32    29    30   ar
    33    25    30   ar
    34    24    31    1
    35    31    32    1
    36    21    32    1
    37     8    33    1
    38     8    34    1
    39    11    35    1
    40    16    36    1
    41    16    37    1
    42    17    38    1
    43    17    39    1
    44    18    40    1
    45    18    41    1
    46    19    42    1
    47    19    43    1
    48    22    44    1
    49    22    45    1
    50    23    46    1
    51    23    47    1
    52    31    48    1
    53    31    49    1
    54    32    50    1
    55    32    51    1
    56     4    52    1
    57     5    53    1
    58     6    54    1
    59    20    55    1
    60    26    56    1
    61    27    57    1
    62    28    58    1
    63    29    59    1
@<TRIPOS>MOLECULE
mol98_1_2
 59 63 0 0 0
SMALL
USER_CHARGES
****
VDW energy = -101.05
@<TRIPOS>ATOM
   1 O1        0.2060     0.3063    -5.2918  O.2     1  <O>11      -0.2700
   2 C1        1.1449     0.5535    -4.5497  C.2     1  <O>11       0.2467
   3 C2        2.3880    -0.1970    -4.6730  C.ar    1  <O>11       0.0372
   4 C3        3.4066     0.2538    -5.5286  C.ar    1  <O>11      -0.0496
   5 C4        4.5940    -0.4739    -5.6556  C.ar    1  <O>11      -0.0608
   6 C5        4.7788    -1.6531    -4.9293  C.ar    1  <O>11      -0.0582
   7 C6        3.7655    -2.0991    -4.0720  C.ar    1  <O>11      -0.0408
   8 C7        3.9646    -3.3451    -3.3058  C.3     1  <O>11       0.0168
   9 C8        2.6608    -4.0371    -3.1374  C.ar    1  <O>11       0.0693
  10 N1        1.7101    -3.9836    -4.1506  N.ar    1  <O>11      -0.1753
  11 N2        0.5170    -4.6143    -4.0064  N.ar    1  <O>11      -0.2427
  12 C9        0.2511    -5.2875    -2.8667  C.ar    1  <O>11       0.2682
  13 O2       -0.9962    -5.9354    -2.7864  O.2     1  <O>11      -0.2661
  14 C10       1.1431    -5.3623    -1.7996  C.ar    1  <O>11       0.0232
  15 C11       2.3906    -4.7371    -1.9647  C.ar    1  <O>11      -0.0158
  16 C12       3.4406    -4.7410    -0.8866  C.3     1  <O>11      -0.0255
  17 C13       3.2036    -5.8106     0.1779  C.3     1  <O>11      -0.0487
  18 C14       1.7516    -5.7880     0.6316  C.3     1  <O>11      -0.0486
  19 C15       0.8191    -6.1143    -0.5344  C.3     1  <O>11      -0.0222
  20 C16       2.5779    -1.3785    -3.9373  C.ar    1  <O>11      -0.0461
  21 N3        1.0300     1.5280    -3.6100  N.am    1  <O>11      -0.2945
  22 C17       2.0762     1.9226    -2.6612  C.3     1  <O>11       0.0308
  23 C18       1.5733     1.7815    -1.2078  C.3     1  <O>11       0.0294
  24 N4        0.2620     2.5482    -1.0164  N.pl3   1  <O>11      -0.3122
  25 C19       0.1007     3.5223     0.0341  C.ar    1  <O>11       0.1213
  26 C20      -0.8238     3.2695     1.0810  C.ar    1  <O>11      -0.0217
  27 C21      -0.9664     4.2108     2.0978  C.ar    1  <O>11      -0.0571
  28 C22      -0.2044     5.3841     2.0283  C.ar    1  <O>11      -0.0435
  29 C23       0.6844     5.5671     0.9692  C.ar    1  <O>11       0.0297
  30 N5        0.8304     4.6501     0.0007  N.ar    1  <O>11      -0.2403
  31 C24      -0.7910     2.1449    -2.0524  C.3     1  <O>11       0.0294
  32 C25      -0.2067     2.2954    -3.4660  C.3     1  <O>11       0.0308
  33 H1        4.3791    -3.1070    -2.3268  H       1  <O>11       0.0377
  34 H2        4.6547    -3.9952    -3.8438  H       1  <O>11       0.0377
  35 H3       -0.1646    -4.5762    -4.7504  H       1  <O>11       0.1921
  36 H4        4.4120    -4.9208    -1.3483  H       1  <O>11       0.0314
  37 H5        3.4431    -3.7642    -0.4018  H       1  <O>11       0.0314
  38 H6        3.4351    -6.7904    -0.2397  H       1  <O>11       0.0268
  39 H7        3.8517    -5.6171     1.0331  H       1  <O>11       0.0268
  40 H8        1.6115    -6.5276     1.4200  H       1  <O>11       0.0269
  41 H9        1.5117    -4.7968     1.0153  H       1  <O>11       0.0269
  42 H10       0.8885    -7.1823    -0.7419  H       1  <O>11       0.0315
  43 H11      -0.2005    -5.8659    -0.2379  H       1  <O>11       0.0315
  44 H12       2.9477     1.2836    -2.8022  H       1  <O>11       0.0480
  45 H13       2.3535     2.9613    -2.8451  H       1  <O>11       0.0480
  46 H14       1.4071     0.7273    -0.9867  H       1  <O>11       0.0480
  47 H15       2.3250     2.1821    -0.5280  H       1  <O>11       0.0480
  48 H16      -1.0811     1.1069    -1.8892  H       1  <O>11       0.0480
  49 H17      -1.6644     2.7880    -1.9511  H       1  <O>11       0.0480
  50 H18      -0.9345     1.9349    -4.1924  H       1  <O>11       0.0480
  51 H19       0.0043     3.3482    -3.6533  H       1  <O>11       0.0480
  52 H20       3.2783     1.1257    -6.0657  H       1  <O>11       0.0625
  53 H21       5.3369    -0.1386    -6.2885  H       1  <O>11       0.0618
  54 H22       5.6546    -2.1908    -5.0239  H       1  <O>11       0.0620
  55 H23       1.8401    -1.7134    -3.2981  H       1  <O>11       0.0628
  56 H24      -1.3818     2.4014     1.0887  H       1  <O>11       0.0652
  57 H25      -1.6169     4.0480     2.8823  H       1  <O>11       0.0619
  58 H26      -0.3001     6.1089     2.7565  H       1  <O>11       0.0633
  59 H27       1.2456     6.4322     0.9294  H       1  <O>11       0.0830
@<TRIPOS>BOND
     1     1     2    2
     2     2     3    1
     3     3     4   ar
     4     4     5   ar
     5     5     6   ar
     6     6     7   ar
     7     7     8    1
     8     8     9    1
     9     9    10   ar
    10    10    11   ar
    11    11    12   ar
    12    12    13    2
    13    12    14   ar
    14    14    15   ar
    15     9    15   ar
    16    15    16    1
    17    16    17    1
    18    17    18    1
    19    18    19    1
    20    14    19    1
    21     7    20   ar
    22     3    20   ar
    23     2    21   am
    24    21    22    1
    25    22    23    1
    26    23    24    1
    27    24    25    1
    28    25    26   ar
    29    26    27   ar
    30    27    28   ar
    31    28    29   ar
    32    29    30   ar
    33    25    30   ar
    34    24    31    1
    35    31    32    1
    36    21    32    1
    37     8    33    1
    38     8    34    1
    39    11    35    1
    40    16    36    1
    41    16    37    1
    42    17    38    1
    43    17    39    1
    44    18    40    1
    45    18    41    1
    46    19    42    1
    47    19    43    1
    48    22    44    1
    49    22    45    1
    50    23    46    1
    51    23    47    1
    52    31    48    1
    53    31    49    1
    54    32    50    1
    55    32    51    1
    56     4    52    1
    57     5    53    1
    58     6    54    1
    59    20    55    1
    60    26    56    1
    61    27    57    1
    62    28    58    1
    63    29    59    1
@<TRIPOS>MOLECULE
mol98_1_3
 59 63 0 0 0
SMALL
USER_CHARGES
****
VDW energy = -99.51
@<TRIPOS>ATOM
   1 O1        0.2060     0.3063    -5.2918  O.2     1  <O>11      -0.2700
   2 C1        1.1449     0.5535    -4.5497  C.2     1  <O>11       0.2467
   3 C2        2.3880    -0.1970    -4.6730  C.ar    1  <O>11       0.0372
   4 C3        3.4066     0.2538    -5.5286  C.ar    1  <O>11      -0.0496
   5 C4        4.5940    -0.4739    -5.6556  C.ar    1  <O>11      -0.0608
   6 C5        4.7788    -1.6531    -4.9293  C.ar    1  <O>11      -0.0582
   7 C6        3.7655    -2.0991    -4.0720  C.ar    1  <O>11      -0.0408
   8 C7        3.9646    -3.3451    -3.3058  C.3     1  <O>11       0.0168
   9 C8        4.5957    -3.0279    -1.9989  C.ar    1  <O>11       0.0693
  10 N1        3.8005    -2.7474    -0.8933  N.ar    1  <O>11      -0.1753
  11 N2        4.3682    -2.4584     0.3051  N.ar    1  <O>11      -0.2427
  12 C9        5.7134    -2.4333     0.4178  C.ar    1  <O>11       0.2682
  13 O2        6.2400    -2.1452     1.6913  O.2     1  <O>11      -0.2661
  14 C10       6.5728    -2.6773    -0.6507  C.ar    1  <O>11       0.0232
  15 C11       5.9829    -3.0095    -1.8819  C.ar    1  <O>11      -0.0158
  16 C12       6.7993    -3.2914    -3.1143  C.3     1  <O>11      -0.0255
  17 C13       8.2633    -3.6003    -2.8065  C.3     1  <O>11      -0.0487
  18 C14       8.8225    -2.5762    -1.8300  C.3     1  <O>11      -0.0486
  19 C15       8.0717    -2.6359    -0.5003  C.3     1  <O>11      -0.0222
  20 C16       2.5779    -1.3785    -3.9373  C.ar    1  <O>11      -0.0461
  21 N3        1.0300     1.5280    -3.6100  N.am    1  <O>11      -0.2945
  22 C17       2.0762     1.9226    -2.6612  C.3     1  <O>11       0.0308
  23 C18       1.5733     1.7815    -1.2078  C.3     1  <O>11       0.0294
  24 N4        0.2620     2.5482    -1.0164  N.pl3   1  <O>11      -0.3122
  25 C19       0.1007     3.5223     0.0341  C.ar    1  <O>11       0.1213
  26 C20      -0.3839     3.1049     1.3012  C.ar    1  <O>11      -0.0217
  27 C21      -0.5272     4.0503     2.3142  C.ar    1  <O>11      -0.0571
  28 C22      -0.2083     5.3838     2.0279  C.ar    1  <O>11      -0.0435
  29 C23       0.2617     5.7232     0.7594  C.ar    1  <O>11       0.0297
  30 N5        0.4137     4.8064    -0.2082  N.ar    1  <O>11      -0.2403
  31 C24      -0.7910     2.1449    -2.0524  C.3     1  <O>11       0.0294
  32 C25      -0.2067     2.2954    -3.4660  C.3     1  <O>11       0.0308
  33 H1        4.6111    -4.0178    -3.8682  H       1  <O>11       0.0377
  34 H2        3.0004    -3.8251    -3.1372  H       1  <O>11       0.0377
  35 H3        3.7829    -2.2632     1.1043  H       1  <O>11       0.1921
  36 H4        6.3654    -4.1488    -3.6300  H       1  <O>11       0.0314
  37 H5        6.7589    -2.4169    -3.7644  H       1  <O>11       0.0314
  38 H6        8.3357    -4.5946    -2.3660  H       1  <O>11       0.0268
  39 H7        8.8400    -3.5691    -3.7313  H       1  <O>11       0.0268
  40 H8        9.8776    -2.7871    -1.6555  H       1  <O>11       0.0269
  41 H9        8.7161    -1.5793    -2.2569  H       1  <O>11       0.0269
  42 H10       8.3886    -3.5319     0.0338  H       1  <O>11       0.0315
  43 H11       8.3350    -1.7521     0.0820  H       1  <O>11       0.0315
  44 H12       2.9477     1.2836    -2.8022  H       1  <O>11       0.0480
  45 H13       2.3535     2.9613    -2.8451  H       1  <O>11       0.0480
  46 H14       1.4071     0.7273    -0.9867  H       1  <O>11       0.0480
  47 H15       2.3250     2.1821    -0.5280  H       1  <O>11       0.0480
  48 H16      -1.0811     1.1069    -1.8892  H       1  <O>11       0.0480
  49 H17      -1.6644     2.7880    -1.9511  H       1  <O>11       0.0480
  50 H18      -0.9345     1.9349    -4.1924  H       1  <O>11       0.0480
  51 H19       0.0043     3.3482    -3.6533  H       1  <O>11       0.0480
  52 H20       3.2783     1.1257    -6.0657  H       1  <O>11       0.0625
  53 H21       5.3369    -0.1386    -6.2885  H       1  <O>11       0.0618
  54 H22       5.6546    -2.1908    -5.0239  H       1  <O>11       0.0620
  55 H23       1.8401    -1.7134    -3.2981  H       1  <O>11       0.0628
  56 H24      -0.6264     2.1160     1.4694  H       1  <O>11       0.0652
  57 H25      -0.8598     3.7752     3.2515  H       1  <O>11       0.0619
  58 H26      -0.3205     6.1110     2.7514  H       1  <O>11       0.0633
  59 H27       0.4993     6.7074     0.5595  H       1  <O>11       0.0830
@<TRIPOS>BOND
     1     1     2    2
     2     2     3    1
     3     3     4   ar
     4     4     5   ar
     5     5     6   ar
     6     6     7   ar
     7     7     8    1
     8     8     9    1
     9     9    10   ar
    10    10    11   ar
    11    11    12   ar
    12    12    13    2
    13    12    14   ar
    14    14    15   ar
    15     9    15   ar
    16    15    16    1
    17    16    17    1
    18    17    18    1
    19    18    19    1
    20    14    19    1
    21     7    20   ar
    22     3    20   ar
    23     2    21   am
    24    21    22    1
    25    22    23    1
    26    23    24    1
    27    24    25    1
    28    25    26   ar
    29    26    27   ar
    30    27    28   ar
    31    28    29   ar
    32    29    30   ar
    33    25    30   ar
    34    24    31    1
    35    31    32    1
    36    21    32    1
    37     8    33    1
    38     8    34    1
    39    11    35    1
    40    16    36    1
    41    16    37    1
    42    17    38    1
    43    17    39    1
    44    18    40    1
    45    18    41    1
    46    19    42    1
    47    19    43    1
    48    22    44    1
    49    22    45    1
    50    23    46    1
    51    23    47    1
    52    31    48    1
    53    31    49    1
    54    32    50    1
    55    32    51    1
    56     4    52    1
    57     5    53    1
    58     6    54    1
    59    20    55    1
    60    26    56    1
    61    27    57    1
    62    28    58    1
    63    29    59    1
@<TRIPOS>MOLECULE
mol98_1_4
 59 63 0 0 0
SMALL
USER_CHARGES
****
VDW energy = -98.57
@<TRIPOS>ATOM
   1 O1        0.2060     0.3063    -5.2918  O.2     1  <O>11      -0.2700
   2 C1        1.1449     0.5535    -4.5497  C.2     1  <O>11       0.2467
   3 C2        2.3880    -0.1970    -4.6730  C.ar    1  <O>11       0.0372
   4 C3        3.4066     0.2538    -5.5286  C.ar    1  <O>11      -0.0496
   5 C4        4.5940    -0.4739    -5.6556  C.ar    1  <O>11      -0.0608
   6 C5        4.7788    -1.6531    -4.9293  C.ar    1  <O>11      -0.0582
   7 C6        3.7655    -2.0991    -4.0720  C.ar    1  <O>11      -0.0408
   8 C7        3.9646    -3.3451    -3.3058  C.3     1  <O>11       0.0168
   9 C8        4.5957    -3.0279    -1.9989  C.ar    1  <O>11       0.0693
  10 N1        3.8005    -2.7474    -0.8933  N.ar    1  <O>11      -0.1753
  11 N2        4.3682    -2.4584     0.3051  N.ar    1  <O>11      -0.2427
  12 C9        5.7134    -2.4333     0.4178  C.ar    1  <O>11       0.2682
  13 O2        6.2400    -2.1452     1.6913  O.2     1  <O>11      -0.2661
  14 C10       6.5728    -2.6773    -0.6507  C.ar    1  <O>11       0.0232
  15 C11       5.9829    -3.0095    -1.8819  C.ar    1  <O>11      -0.0158
  16 C12       6.7993    -3.2914    -3.1143  C.3     1  <O>11      -0.0255
  17 C13       8.2633    -3.6003    -2.8065  C.3     1  <O>11      -0.0487
  18 C14       8.8225    -2.5762    -1.8300  C.3     1  <O>11      -0.0486
  19 C15       8.0717    -2.6359    -0.5003  C.3     1  <O>11      -0.0222
  20 C16       2.5779    -1.3785    -3.9373  C.ar    1  <O>11      -0.0461
  21 N3        1.0300     1.5280    -3.6100  N.am    1  <O>11      -0.2945
  22 C17       2.0762     1.9226    -2.6612  C.3     1  <O>11       0.0308
  23 C18       1.5733     1.7815    -1.2078  C.3     1  <O>11       0.0294
  24 N4        0.2620     2.5482    -1.0164  N.pl3   1  <O>11      -0.3122
  25 C19       0.1007     3.5223     0.0341  C.ar    1  <O>11       0.1213
  26 C20       0.4296     4.8796    -0.2196  C.ar    1  <O>11      -0.0217
  27 C21       0.2611     5.8166     0.7972  C.ar    1  <O>11      -0.0571
  28 C22      -0.2048     5.3707     2.0406  C.ar    1  <O>11      -0.0435
  29 C23      -0.5076     4.0211     2.2198  C.ar    1  <O>11       0.0297
  30 N5       -0.3592     3.1249     1.2324  N.ar    1  <O>11      -0.2403
  31 C24      -0.7910     2.1449    -2.0524  C.3     1  <O>11       0.0294
  32 C25      -0.2067     2.2954    -3.4660  C.3     1  <O>11       0.0308
  33 H1        4.6111    -4.0178    -3.8682  H       1  <O>11       0.0377
  34 H2        3.0004    -3.8251    -3.1372  H       1  <O>11       0.0377
  35 H3        3.7829    -2.2632     1.1043  H       1  <O>11       0.1921
  36 H4        6.3654    -4.1488    -3.6300  H       1  <O>11       0.0314
  37 H5        6.7589    -2.4169    -3.7644  H       1  <O>11       0.0314
  38 H6        8.3357    -4.5946    -2.3660  H       1  <O>11       0.0268
  39 H7        8.8400    -3.5691    -3.7313  H       1  <O>11       0.0268
  40 H8        9.8776    -2.7871    -1.6555  H       1  <O>11       0.0269
  41 H9        8.7161    -1.5793    -2.2569  H       1  <O>11       0.0269
  42 H10       8.3886    -3.5319     0.0338  H       1  <O>11       0.0315
  43 H11       8.3350    -1.7521     0.0820  H       1  <O>11       0.0315
  44 H12       2.9477     1.2836    -2.8022  H       1  <O>11       0.0480
  45 H13       2.3535     2.9613    -2.8451  H       1  <O>11       0.0480
  46 H14       1.4071     0.7273    -0.9867  H       1  <O>11       0.0480
  47 H15       2.3250     2.1821    -0.5280  H       1  <O>11       0.0480
  48 H16      -1.0811     1.1069    -1.8892  H       1  <O>11       0.0480
  49 H17      -1.6644     2.7880    -1.9511  H       1  <O>11       0.0480
  50 H18      -0.9345     1.9349    -4.1924  H       1  <O>11       0.0480
  51 H19       0.0043     3.3482    -3.6533  H       1  <O>11       0.0480
  52 H20       3.2783     1.1257    -6.0657  H       1  <O>11       0.0625
  53 H21       5.3369    -0.1386    -6.2885  H       1  <O>11       0.0618
  54 H22       5.6546    -2.1908    -5.0239  H       1  <O>11       0.0620
  55 H23       1.8401    -1.7134    -3.2981  H       1  <O>11       0.0628
  56 H24       0.7882     5.1678    -1.1434  H       1  <O>11       0.0652
  57 H25       0.4741     6.8138     0.6385  H       1  <O>11       0.0619
  58 H26      -0.3234     6.0369     2.8197  H       1  <O>11       0.0633
  59 H27      -0.8554     3.7028     3.1378  H       1  <O>11       0.0830
@<TRIPOS>BOND
     1     1     2    2
     2     2     3    1
     3     3     4   ar
     4     4     5   ar
     5     5     6   ar
     6     6     7   ar
     7     7     8    1
     8     8     9    1
     9     9    10   ar
    10    10    11   ar
    11    11    12   ar
    12    12    13    2
    13    12    14   ar
    14    14    15   ar
    15     9    15   ar
    16    15    16    1
    17    16    17    1
    18    17    18    1
    19    18    19    1
    20    14    19    1
    21     7    20   ar
    22     3    20   ar
    23     2    21   am
    24    21    22    1
    25    22    23    1
    26    23    24    1
    27    24    25    1
    28    25    26   ar
    29    26    27   ar
    30    27    28   ar
    31    28    29   ar
    32    29    30   ar
    33    25    30   ar
    34    24    31    1
    35    31    32    1
    36    21    32    1
    37     8    33    1
    38     8    34    1
    39    11    35    1
    40    16    36    1
    41    16    37    1
    42    17    38    1
    43    17    39    1
    44    18    40    1
    45    18    41    1
    46    19    42    1
    47    19    43    1
    48    22    44    1
    49    22    45    1
    50    23    46    1
    51    23    47    1
    52    31    48    1
    53    31    49    1
    54    32    50    1
    55    32    51    1
    56     4    52    1
    57     5    53    1
    58     6    54    1
    59    20    55    1
    60    26    56    1
    61    27    57    1
    62    28    58    1
    63    29    59    1
@<TRIPOS>MOLECULE
mol98_1_5
 59 63 0 0 0
SMALL
USER_CHARGES
****
VDW energy = -96.99
@<TRIPOS>ATOM
   1 O1        0.2060     0.3063    -5.2918  O.2     1  <O>11      -0.2700
   2 C1        1.1449     0.5535    -4.5497  C.2     1  <O>11       0.2467
   3 C2        2.3880    -0.1970    -4.6730  C.ar    1  <O>11       0.0372
   4 C3        3.4066     0.2538    -5.5286  C.ar    1  <O>11      -0.0496
   5 C4        4.5940    -0.4739    -5.6556  C.ar    1  <O>11      -0.0608
   6 C5        4.7788    -1.6531    -4.9293  C.ar    1  <O>11      -0.0582
   7 C6        3.7655    -2.0991    -4.0720  C.ar    1  <O>11      -0.0408
   8 C7        3.9646    -3.3451    -3.3058  C.3     1  <O>11       0.0168
   9 C8        2.6608    -4.0371    -3.1374  C.ar    1  <O>11       0.0693
  10 N1        2.1638    -4.2815    -1.8620  N.ar    1  <O>11      -0.1753
  11 N2        0.9727    -4.9113    -1.6985  N.ar    1  <O>11      -0.2427
  12 C9        0.2746    -5.3112    -2.7826  C.ar    1  <O>11       0.2682
  13 O2       -0.9617    -5.9421    -2.5464  O.2     1  <O>11      -0.2661
  14 C10       0.7213    -5.1247    -4.0886  C.ar    1  <O>11       0.0232
  15 C11       1.9382    -4.4425    -4.2562  C.ar    1  <O>11      -0.0158
  16 C12       2.5325    -4.1805    -5.6138  C.3     1  <O>11      -0.0255
  17 C13       1.5221    -4.3284    -6.7498  C.3     1  <O>11      -0.0487
  18 C14       0.7281    -5.6155    -6.5829  C.3     1  <O>11      -0.0486
  19 C15      -0.0738    -5.5873    -5.2823  C.3     1  <O>11      -0.0222
  20 C16       2.5779    -1.3785    -3.9373  C.ar    1  <O>11      -0.0461
  21 N3        1.0300     1.5280    -3.6100  N.am    1  <O>11      -0.2945
  22 C17       2.0762     1.9226    -2.6612  C.3     1  <O>11       0.0308
  23 C18       1.5733     1.7815    -1.2078  C.3     1  <O>11       0.0294
  24 N4        0.2620     2.5482    -1.0164  N.pl3   1  <O>11      -0.3122
  25 C19       0.1007     3.5223     0.0341  C.ar    1  <O>11       0.1213
  26 C20      -0.8238     3.2695     1.0810  C.ar    1  <O>11      -0.0217
  27 C21      -0.9664     4.2108     2.0978  C.ar    1  <O>11      -0.0571
  28 C22      -0.2044     5.3841     2.0283  C.ar    1  <O>11      -0.0435
  29 C23       0.6844     5.5671     0.9692  C.ar    1  <O>11       0.0297
  30 N5        0.8304     4.6501     0.0007  N.ar    1  <O>11      -0.2403
  31 C24      -0.7910     2.1449    -2.0524  C.3     1  <O>11       0.0294
  32 C25      -0.2067     2.2954    -3.4660  C.3     1  <O>11       0.0308
  33 H1        4.3791    -3.1070    -2.3268  H       1  <O>11       0.0377
  34 H2        4.6547    -3.9952    -3.8438  H       1  <O>11       0.0377
  35 H3        0.6161    -5.0781    -0.7687  H       1  <O>11       0.1921
  36 H4        2.9263    -3.1637    -5.6305  H       1  <O>11       0.0314
  37 H5        3.3454    -4.8885    -5.7787  H       1  <O>11       0.0314
  38 H6        0.8387    -3.4795    -6.7354  H       1  <O>11       0.0268
  39 H7        2.0523    -4.3527    -7.7022  H       1  <O>11       0.0268
  40 H8        0.0433    -5.7251    -7.4237  H       1  <O>11       0.0269
  41 H9        1.4161    -6.4602    -6.5611  H       1  <O>11       0.0269
  42 H10      -0.9198    -4.9125    -5.4143  H       1  <O>11       0.0315
  43 H11      -0.4392    -6.5953    -5.0829  H       1  <O>11       0.0315
  44 H12       2.9477     1.2836    -2.8022  H       1  <O>11       0.0480
  45 H13       2.3535     2.9613    -2.8451  H       1  <O>11       0.0480
  46 H14       1.4071     0.7273    -0.9867  H       1  <O>11       0.0480
  47 H15       2.3250     2.1821    -0.5280  H       1  <O>11       0.0480
  48 H16      -1.0811     1.1069    -1.8892  H       1  <O>11       0.0480
  49 H17      -1.6644     2.7880    -1.9511  H       1  <O>11       0.0480
  50 H18      -0.9345     1.9349    -4.1924  H       1  <O>11       0.0480
  51 H19       0.0043     3.3482    -3.6533  H       1  <O>11       0.0480
  52 H20       3.2783     1.1257    -6.0657  H       1  <O>11       0.0625
  53 H21       5.3369    -0.1386    -6.2885  H       1  <O>11       0.0618
  54 H22       5.6546    -2.1908    -5.0239  H       1  <O>11       0.0620
  55 H23       1.8401    -1.7134    -3.2981  H       1  <O>11       0.0628
  56 H24      -1.3818     2.4014     1.0887  H       1  <O>11       0.0652
  57 H25      -1.6169     4.0480     2.8823  H       1  <O>11       0.0619
  58 H26      -0.3001     6.1089     2.7565  H       1  <O>11       0.0633
  59 H27       1.2456     6.4322     0.9294  H       1  <O>11       0.0830
@<TRIPOS>BOND
     1     1     2    2
     2     2     3    1
     3     3     4   ar
     4     4     5   ar
     5     5     6   ar
     6     6     7   ar
     7     7     8    1
     8     8     9    1
     9     9    10   ar
    10    10    11   ar
    11    11    12   ar
    12    12    13    2
    13    12    14   ar
    14    14    15   ar
    15     9    15   ar
    16    15    16    1
    17    16    17    1
    18    17    18    1
    19    18    19    1
    20    14    19    1
    21     7    20   ar
    22     3    20   ar
    23     2    21   am
    24    21    22    1
    25    22    23    1
    26    23    24    1
    27    24    25    1
    28    25    26   ar
    29    26    27   ar
    30    27    28   ar
    31    28    29   ar
    32    29    30   ar
    33    25    30   ar
    34    24    31    1
    35    31    32    1
    36    21    32    1
    37     8    33    1
    38     8    34    1
    39    11    35    1
    40    16    36    1
    41    16    37    1
    42    17    38    1
    43    17    39    1
    44    18    40    1
    45    18    41    1
    46    19    42    1
    47    19    43    1
    48    22    44    1
    49    22    45    1
    50    23    46    1
    51    23    47    1
    52    31    48    1
    53    31    49    1
    54    32    50    1
    55    32    51    1
    56     4    52    1
    57     5    53    1
    58     6    54    1
    59    20    55    1
    60    26    56    1
    61    27    57    1
    62    28    58    1
    63    29    59    1
@<TRIPOS>MOLECULE
mol98_1_6
 59 63 0 0 0
SMALL
USER_CHARGES
****
VDW energy = -96.97
@<TRIPOS>ATOM
   1 O1        0.2060     0.3063    -5.2918  O.2     1  <O>11      -0.2700
   2 C1        1.1449     0.5535    -4.5497  C.2     1  <O>11       0.2467
   3 C2        2.3880    -0.1970    -4.6730  C.ar    1  <O>11       0.0372
   4 C3        2.5791    -1.3782    -3.9373  C.ar    1  <O>11      -0.0496
   5 C4        3.7774    -2.0907    -4.0470  C.ar    1  <O>11      -0.0608
   6 C5        4.7928    -1.6361    -4.8923  C.ar    1  <O>11      -0.0582
   7 C6        4.5995    -0.4617    -5.6300  C.ar    1  <O>11      -0.0408
   8 C7        5.6742     0.0153    -6.5225  C.3     1  <O>11       0.0168
   9 C8        5.6644     1.5003    -6.5606  C.ar    1  <O>11       0.0693
  10 N1        5.3308     2.2222    -5.4201  N.ar    1  <O>11      -0.1753
  11 N2        5.3210     3.5792    -5.4449  N.ar    1  <O>11      -0.2427
  12 C9        5.6269     4.2282    -6.5886  C.ar    1  <O>11       0.2682
  13 O2        5.6167     5.6353    -6.5441  O.2     1  <O>11      -0.2661
  14 C10       5.9446     3.5726    -7.7757  C.ar    1  <O>11       0.0232
  15 C11       5.9871     2.1687    -7.7385  C.ar    1  <O>11      -0.0158
  16 C12       6.3129     1.3419    -8.9531  C.3     1  <O>11      -0.0255
  17 C13       6.9911     2.1451   -10.0614  C.3     1  <O>11      -0.0487
  18 C14       6.2448     3.4498   -10.2970  C.3     1  <O>11      -0.0486
  19 C15       6.2752     4.3206    -9.0415  C.3     1  <O>11      -0.0222
  20 C16       3.4063     0.2551    -5.5285  C.ar    1  <O>11      -0.0461
  21 N3        1.0300     1.5280    -3.6100  N.am    1  <O>11      -0.2945
  22 C17      -0.1600     2.3540    -3.3820  C.3     1  <O>11       0.0308
  23 C18       0.1830     3.8530    -3.5260  C.3     1  <O>11       0.0294
  24 N4        1.3600     4.2240    -2.6200  N.pl3   1  <O>11      -0.3122
  25 C19       1.2780     5.3140    -1.6800  C.ar    1  <O>11       0.1213
  26 C20       0.4936     6.4523    -2.0018  C.ar    1  <O>11      -0.0217
  27 C21       0.4110     7.4969    -1.0839  C.ar    1  <O>11      -0.0571
  28 C22       1.1304     7.3875     0.1130  C.ar    1  <O>11      -0.0435
  29 C23       1.8823     6.2398     0.3630  C.ar    1  <O>11       0.0297
  30 N5        1.9457     5.2291    -0.5171  N.ar    1  <O>11      -0.2403
  31 C24       2.5680     3.3120    -2.8520  C.3     1  <O>11       0.0294
  32 C25       2.1390     1.8430    -2.7100  C.3     1  <O>11       0.0308
  33 H1        5.5125    -0.3754    -7.5266  H       1  <O>11       0.0377
  34 H2        6.6373    -0.3327    -6.1485  H       1  <O>11       0.0377
  35 H3        5.0846     4.0953    -4.6099  H       1  <O>11       0.1921
  36 H4        6.9798     0.5326    -8.6539  H       1  <O>11       0.0314
  37 H5        5.3859     0.9232    -9.3462  H       1  <O>11       0.0314
  38 H6        8.0176     2.3654    -9.7686  H       1  <O>11       0.0268
  39 H7        6.9927     1.5594   -10.9810  H       1  <O>11       0.0268
  40 H8        6.7170     3.9889   -11.1184  H       1  <O>11       0.0269
  41 H9        5.2093     3.2285   -10.5543  H       1  <O>11       0.0269
  42 H10       7.2750     4.7431    -8.9401  H       1  <O>11       0.0315
  43 H11       5.5500     5.1257    -9.1650  H       1  <O>11       0.0315
  44 H12      -0.9250     2.0900    -4.1120  H       1  <O>11       0.0480
  45 H13      -0.5380     2.1680    -2.3760  H       1  <O>11       0.0480
  46 H14       0.4490     4.0620    -4.5620  H       1  <O>11       0.0480
  47 H15      -0.6860     4.4480    -3.2460  H       1  <O>11       0.0480
  48 H16       2.9610     3.4790    -3.8550  H       1  <O>11       0.0480
  49 H17       3.3390     3.5370    -2.1160  H       1  <O>11       0.0480
  50 H18       2.9850     1.2000    -2.9510  H       1  <O>11       0.0480
  51 H19       1.8250     1.6620    -1.6820  H       1  <O>11       0.0480
  52 H20       1.8323    -1.7216    -3.3135  H       1  <O>11       0.0625
  53 H21       3.9124    -2.9561    -3.5012  H       1  <O>11       0.0618
  54 H22       5.6775    -2.1613    -4.9724  H       1  <O>11       0.0620
  55 H23       3.2724     1.1162    -6.0813  H       1  <O>11       0.0628
  56 H24      -0.0079     6.5053    -2.9022  H       1  <O>11       0.0652
  57 H25      -0.1655     8.3299    -1.2806  H       1  <O>11       0.0619
  58 H26       1.1043     8.1519     0.8058  H       1  <O>11       0.0633
  59 H27       2.4046     6.1659     1.2499  H       1  <O>11       0.0830
@<TRIPOS>BOND
     1     1     2    2
     2     2     3    1
     3     3     4   ar
     4     4     5   ar
     5     5     6   ar
     6     6     7   ar
     7     7     8    1
     8     8     9    1
     9     9    10   ar
    10    10    11   ar
    11    11    12   ar
    12    12    13    2
    13    12    14   ar
    14    14    15   ar
    15     9    15   ar
    16    15    16    1
    17    16    17    1
    18    17    18    1
    19    18    19    1
    20    14    19    1
    21     7    20   ar
    22     3    20   ar
    23     2    21   am
    24    21    22    1
    25    22    23    1
    26    23    24    1
    27    24    25    1
    28    25    26   ar
    29    26    27   ar
    30    27    28   ar
    31    28    29   ar
    32    29    30   ar
    33    25    30   ar
    34    24    31    1
    35    31    32    1
    36    21    32    1
    37     8    33    1
    38     8    34    1
    39    11    35    1
    40    16    36    1
    41    16    37    1
    42    17    38    1
    43    17    39    1
    44    18    40    1
    45    18    41    1
    46    19    42    1
    47    19    43    1
    48    22    44    1
    49    22    45    1
    50    23    46    1
    51    23    47    1
    52    31    48    1
    53    31    49    1
    54    32    50    1
    55    32    51    1
    56     4    52    1
    57     5    53    1
    58     6    54    1
    59    20    55    1
    60    26    56    1
    61    27    57    1
    62    28    58    1
    63    29    59    1
@<TRIPOS>MOLECULE
mol98_1_7
 59 63 0 0 0
SMALL
USER_CHARGES
****
VDW energy = -96.45
@<TRIPOS>ATOM
   1 O1        0.2060     0.3063    -5.2918  O.2     1  <O>11      -0.2700
   2 C1        1.1449     0.5535    -4.5497  C.2     1  <O>11       0.2467
   3 C2        2.3880    -0.1970    -4.6730  C.ar    1  <O>11       0.0372
   4 C3        3.4066     0.2538    -5.5286  C.ar    1  <O>11      -0.0496
   5 C4        4.5940    -0.4739    -5.6556  C.ar    1  <O>11      -0.0608
   6 C5        4.7788    -1.6531    -4.9293  C.ar    1  <O>11      -0.0582
   7 C6        3.7655    -2.0991    -4.0720  C.ar    1  <O>11      -0.0408
   8 C7        3.9646    -3.3451    -3.3058  C.3     1  <O>11       0.0168
   9 C8        4.5957    -3.0279    -1.9989  C.ar    1  <O>11       0.0693
  10 N1        3.8005    -2.7474    -0.8933  N.ar    1  <O>11      -0.1753
  11 N2        4.3682    -2.4584     0.3051  N.ar    1  <O>11      -0.2427
  12 C9        5.7134    -2.4333     0.4178  C.ar    1  <O>11       0.2682
  13 O2        6.2400    -2.1452     1.6913  O.2     1  <O>11      -0.2661
  14 C10       6.5728    -2.6773    -0.6507  C.ar    1  <O>11       0.0232
  15 C11       5.9829    -3.0095    -1.8819  C.ar    1  <O>11      -0.0158
  16 C12       6.7993    -3.2914    -3.1143  C.3     1  <O>11      -0.0255
  17 C13       8.2633    -3.6003    -2.8065  C.3     1  <O>11      -0.0487
  18 C14       8.8225    -2.5762    -1.8300  C.3     1  <O>11      -0.0486
  19 C15       8.0717    -2.6359    -0.5003  C.3     1  <O>11      -0.0222
  20 C16       2.5779    -1.3785    -3.9373  C.ar    1  <O>11      -0.0461
  21 N3        1.0300     1.5280    -3.6100  N.am    1  <O>11      -0.2945
  22 C17       2.0762     1.9226    -2.6612  C.3     1  <O>11       0.0308
  23 C18       1.5733     1.7815    -1.2078  C.3     1  <O>11       0.0294
  24 N4        0.2620     2.5482    -1.0164  N.pl3   1  <O>11      -0.3122
  25 C19       0.1007     3.5223     0.0341  C.ar    1  <O>11       0.1213
  26 C20       0.7736     3.3312     1.2691  C.ar    1  <O>11      -0.0217
  27 C21       0.6209     4.2822     2.2754  C.ar    1  <O>11      -0.0571
  28 C22      -0.2151     5.3792     2.0312  C.ar    1  <O>11      -0.0435
  29 C23      -0.8465     5.5027     0.7937  C.ar    1  <O>11       0.0297
  30 N5       -0.6834     4.5926    -0.1785  N.ar    1  <O>11      -0.2403
  31 C24      -0.7910     2.1449    -2.0524  C.3     1  <O>11       0.0294
  32 C25      -0.2067     2.2954    -3.4660  C.3     1  <O>11       0.0308
  33 H1        4.6111    -4.0178    -3.8682  H       1  <O>11       0.0377
  34 H2        3.0004    -3.8251    -3.1372  H       1  <O>11       0.0377
  35 H3        3.7829    -2.2632     1.1043  H       1  <O>11       0.1921
  36 H4        6.3654    -4.1488    -3.6300  H       1  <O>11       0.0314
  37 H5        6.7589    -2.4169    -3.7644  H       1  <O>11       0.0314
  38 H6        8.3357    -4.5946    -2.3660  H       1  <O>11       0.0268
  39 H7        8.8400    -3.5691    -3.7313  H       1  <O>11       0.0268
  40 H8        9.8776    -2.7871    -1.6555  H       1  <O>11       0.0269
  41 H9        8.7161    -1.5793    -2.2569  H       1  <O>11       0.0269
  42 H10       8.3886    -3.5319     0.0338  H       1  <O>11       0.0315
  43 H11       8.3350    -1.7521     0.0820  H       1  <O>11       0.0315
  44 H12       2.9477     1.2836    -2.8022  H       1  <O>11       0.0480
  45 H13       2.3535     2.9613    -2.8451  H       1  <O>11       0.0480
  46 H14       1.4071     0.7273    -0.9867  H       1  <O>11       0.0480
  47 H15       2.3250     2.1821    -0.5280  H       1  <O>11       0.0480
  48 H16      -1.0811     1.1069    -1.8892  H       1  <O>11       0.0480
  49 H17      -1.6644     2.7880    -1.9511  H       1  <O>11       0.0480
  50 H18      -0.9345     1.9349    -4.1924  H       1  <O>11       0.0480
  51 H19       0.0043     3.3482    -3.6533  H       1  <O>11       0.0480
  52 H20       3.2783     1.1257    -6.0657  H       1  <O>11       0.0625
  53 H21       5.3369    -0.1386    -6.2885  H       1  <O>11       0.0618
  54 H22       5.6546    -2.1908    -5.0239  H       1  <O>11       0.0620
  55 H23       1.8401    -1.7134    -3.2981  H       1  <O>11       0.0628
  56 H24       1.3670     2.5003     1.4192  H       1  <O>11       0.0652
  57 H25       1.1113     4.1812     3.1778  H       1  <O>11       0.0619
  58 H26      -0.3632     6.0919     2.7627  H       1  <O>11       0.0633
  59 H27      -1.4562     6.3172     0.6210  H       1  <O>11       0.0830
@<TRIPOS>BOND
     1     1     2    2
     2     2     3    1
     3     3     4   ar
     4     4     5   ar
     5     5     6   ar
     6     6     7   ar
     7     7     8    1
     8     8     9    1
     9     9    10   ar
    10    10    11   ar
    11    11    12   ar
    12    12    13    2
    13    12    14   ar
    14    14    15   ar
    15     9    15   ar
    16    15    16    1
    17    16    17    1
    18    17    18    1
    19    18    19    1
    20    14    19    1
    21     7    20   ar
    22     3    20   ar
    23     2    21   am
    24    21    22    1
    25    22    23    1
    26    23    24    1
    27    24    25    1
    28    25    26   ar
    29    26    27   ar
    30    27    28   ar
    31    28    29   ar
    32    29    30   ar
    33    25    30   ar
    34    24    31    1
    35    31    32    1
    36    21    32    1
    37     8    33    1
    38     8    34    1
    39    11    35    1
    40    16    36    1
    41    16    37    1
    42    17    38    1
    43    17    39    1
    44    18    40    1
    45    18    41    1
    46    19    42    1
    47    19    43    1
    48    22    44    1
    49    22    45    1
    50    23    46    1
    51    23    47    1
    52    31    48    1
    53    31    49    1
    54    32    50    1
    55    32    51    1
    56     4    52    1
    57     5    53    1
    58     6    54    1
    59    20    55    1
    60    26    56    1
    61    27    57    1
    62    28    58    1
    63    29    59    1
@<TRIPOS>MOLECULE
mol98_1_8
 59 63 0 0 0
SMALL
USER_CHARGES
****
VDW energy = -93.70
@<TRIPOS>ATOM
   1 O1        0.2060     0.3063    -5.2918  O.2     1  <O>11      -0.2700
   2 C1        1.1449     0.5535    -4.5497  C.2     1  <O>11       0.2467
   3 C2        2.3880    -0.1970    -4.6730  C.ar    1  <O>11       0.0372
   4 C3        3.4066     0.2538    -5.5286  C.ar    1  <O>11      -0.0496
   5 C4        4.5940    -0.4739    -5.6556  C.ar    1  <O>11      -0.0608
   6 C5        4.7788    -1.6531    -4.9293  C.ar    1  <O>11      -0.0582
   7 C6        3.7655    -2.0991    -4.0720  C.ar    1  <O>11      -0.0408
   8 C7        3.9646    -3.3451    -3.3058  C.3     1  <O>11       0.0168
   9 C8        2.6608    -4.0371    -3.1374  C.ar    1  <O>11       0.0693
  10 N1        2.1638    -4.2815    -1.8620  N.ar    1  <O>11      -0.1753
  11 N2        0.9727    -4.9113    -1.6985  N.ar    1  <O>11      -0.2427
  12 C9        0.2746    -5.3112    -2.7826  C.ar    1  <O>11       0.2682
  13 O2       -0.9617    -5.9421    -2.5464  O.2     1  <O>11      -0.2661
  14 C10       0.7213    -5.1247    -4.0886  C.ar    1  <O>11       0.0232
  15 C11       1.9382    -4.4425    -4.2562  C.ar    1  <O>11      -0.0158
  16 C12       2.5325    -4.1805    -5.6138  C.3     1  <O>11      -0.0255
  17 C13       1.5221    -4.3284    -6.7498  C.3     1  <O>11      -0.0487
  18 C14       0.7281    -5.6155    -6.5829  C.3     1  <O>11      -0.0486
  19 C15      -0.0738    -5.5873    -5.2823  C.3     1  <O>11      -0.0222
  20 C16       2.5779    -1.3785    -3.9373  C.ar    1  <O>11      -0.0461
  21 N3        1.0300     1.5280    -3.6100  N.am    1  <O>11      -0.2945
  22 C17       2.0762     1.9226    -2.6612  C.3     1  <O>11       0.0308
  23 C18       1.5733     1.7815    -1.2078  C.3     1  <O>11       0.0294
  24 N4        0.2620     2.5482    -1.0164  N.pl3   1  <O>11      -0.3122
  25 C19       0.1007     3.5223     0.0341  C.ar    1  <O>11       0.1213
  26 C20       0.7736     3.3312     1.2691  C.ar    1  <O>11      -0.0217
  27 C21       0.6209     4.2822     2.2754  C.ar    1  <O>11      -0.0571
  28 C22      -0.2151     5.3792     2.0312  C.ar    1  <O>11      -0.0435
  29 C23      -0.8465     5.5027     0.7937  C.ar    1  <O>11       0.0297
  30 N5       -0.6834     4.5926    -0.1785  N.ar    1  <O>11      -0.2403
  31 C24      -0.7910     2.1449    -2.0524  C.3     1  <O>11       0.0294
  32 C25      -0.2067     2.2954    -3.4660  C.3     1  <O>11       0.0308
  33 H1        4.3791    -3.1070    -2.3268  H       1  <O>11       0.0377
  34 H2        4.6547    -3.9952    -3.8438  H       1  <O>11       0.0377
  35 H3        0.6161    -5.0781    -0.7687  H       1  <O>11       0.1921
  36 H4        2.9263    -3.1637    -5.6305  H       1  <O>11       0.0314
  37 H5        3.3454    -4.8885    -5.7787  H       1  <O>11       0.0314
  38 H6        0.8387    -3.4795    -6.7354  H       1  <O>11       0.0268
  39 H7        2.0523    -4.3527    -7.7022  H       1  <O>11       0.0268
  40 H8        0.0433    -5.7251    -7.4237  H       1  <O>11       0.0269
  41 H9        1.4161    -6.4602    -6.5611  H       1  <O>11       0.0269
  42 H10      -0.9198    -4.9125    -5.4143  H       1  <O>11       0.0315
  43 H11      -0.4392    -6.5953    -5.0829  H       1  <O>11       0.0315
  44 H12       2.9477     1.2836    -2.8022  H       1  <O>11       0.0480
  45 H13       2.3535     2.9613    -2.8451  H       1  <O>11       0.0480
  46 H14       1.4071     0.7273    -0.9867  H       1  <O>11       0.0480
  47 H15       2.3250     2.1821    -0.5280  H       1  <O>11       0.0480
  48 H16      -1.0811     1.1069    -1.8892  H       1  <O>11       0.0480
  49 H17      -1.6644     2.7880    -1.9511  H       1  <O>11       0.0480
  50 H18      -0.9345     1.9349    -4.1924  H       1  <O>11       0.0480
  51 H19       0.0043     3.3482    -3.6533  H       1  <O>11       0.0480
  52 H20       3.2783     1.1257    -6.0657  H       1  <O>11       0.0625
  53 H21       5.3369    -0.1386    -6.2885  H       1  <O>11       0.0618
  54 H22       5.6546    -2.1908    -5.0239  H       1  <O>11       0.0620
  55 H23       1.8401    -1.7134    -3.2981  H       1  <O>11       0.0628
  56 H24       1.3670     2.5003     1.4192  H       1  <O>11       0.0652
  57 H25       1.1113     4.1812     3.1778  H       1  <O>11       0.0619
  58 H26      -0.3632     6.0919     2.7627  H       1  <O>11       0.0633
  59 H27      -1.4562     6.3172     0.6210  H       1  <O>11       0.0830
@<TRIPOS>BOND
     1     1     2    2
     2     2     3    1
     3     3     4   ar
     4     4     5   ar
     5     5     6   ar
     6     6     7   ar
     7     7     8    1
     8     8     9    1
     9     9    10   ar
    10    10    11   ar
    11    11    12   ar
    12    12    13    2
    13    12    14   ar
    14    14    15   ar
    15     9    15   ar
    16    15    16    1
    17    16    17    1
    18    17    18    1
    19    18    19    1
    20    14    19    1
    21     7    20   ar
    22     3    20   ar
    23     2    21   am
    24    21    22    1
    25    22    23    1
    26    23    24    1
    27    24    25    1
    28    25    26   ar
    29    26    27   ar
    30    27    28   ar
    31    28    29   ar
    32    29    30   ar
    33    25    30   ar
    34    24    31    1
    35    31    32    1
    36    21    32    1
    37     8    33    1
    38     8    34    1
    39    11    35    1
    40    16    36    1
    41    16    37    1
    42    17    38    1
    43    17    39    1
    44    18    40    1
    45    18    41    1
    46    19    42    1
    47    19    43    1
    48    22    44    1
    49    22    45    1
    50    23    46    1
    51    23    47    1
    52    31    48    1
    53    31    49    1
    54    32    50    1
    55    32    51    1
    56     4    52    1
    57     5    53    1
    58     6    54    1
    59    20    55    1
    60    26    56    1
    61    27    57    1
    62    28    58    1
    63    29    59    1
@<TRIPOS>MOLECULE
mol98_1_9
 59 63 0 0 0
SMALL
USER_CHARGES
****
VDW energy = -93.45
@<TRIPOS>ATOM
   1 O1        0.2060     0.3063    -5.2918  O.2     1  <O>11      -0.2700
   2 C1        1.1449     0.5535    -4.5497  C.2     1  <O>11       0.2467
   3 C2        2.3880    -0.1970    -4.6730  C.ar    1  <O>11       0.0372
   4 C3        3.4066     0.2538    -5.5286  C.ar    1  <O>11      -0.0496
   5 C4        4.5940    -0.4739    -5.6556  C.ar    1  <O>11      -0.0608
   6 C5        4.7788    -1.6531    -4.9293  C.ar    1  <O>11      -0.0582
   7 C6        3.7655    -2.0991    -4.0720  C.ar    1  <O>11      -0.0408
   8 C7        3.9646    -3.3451    -3.3058  C.3     1  <O>11       0.0168
   9 C8        2.6608    -4.0371    -3.1374  C.ar    1  <O>11       0.0693
  10 N1        2.2370    -4.9607    -4.0865  N.ar    1  <O>11      -0.1753
  11 N2        1.0483    -5.5992    -3.9400  N.ar    1  <O>11      -0.2427
  12 C9        0.2707    -5.3253    -2.8709  C.ar    1  <O>11       0.2682
  13 O2       -0.9413    -6.0342    -2.7671  O.2     1  <O>11      -0.2661
  14 C10       0.6168    -4.3940    -1.8948  C.ar    1  <O>11       0.0232
  15 C11       1.8630    -3.7593    -2.0308  C.ar    1  <O>11      -0.0158
  16 C12       2.3529    -2.7309    -1.0473  C.3     1  <O>11      -0.0255
  17 C13       1.6009    -2.7658     0.2819  C.3     1  <O>11      -0.0487
  18 C14       0.1006    -2.8227     0.0357  C.3     1  <O>11      -0.0486
  19 C15      -0.2728    -4.1008    -0.7142  C.3     1  <O>11      -0.0222
  20 C16       2.5779    -1.3785    -3.9373  C.ar    1  <O>11      -0.0461
  21 N3        1.0300     1.5280    -3.6100  N.am    1  <O>11      -0.2945
  22 C17       2.0762     1.9226    -2.6612  C.3     1  <O>11       0.0308
  23 C18       1.5733     1.7815    -1.2078  C.3     1  <O>11       0.0294
  24 N4        0.2620     2.5482    -1.0164  N.pl3   1  <O>11      -0.3122
  25 C19       0.1007     3.5223     0.0341  C.ar    1  <O>11       0.1213
  26 C20       0.7736     3.3312     1.2691  C.ar    1  <O>11      -0.0217
  27 C21       0.6209     4.2822     2.2754  C.ar    1  <O>11      -0.0571
  28 C22      -0.2151     5.3792     2.0312  C.ar    1  <O>11      -0.0435
  29 C23      -0.8465     5.5027     0.7937  C.ar    1  <O>11       0.0297
  30 N5       -0.6834     4.5926    -0.1785  N.ar    1  <O>11      -0.2403
  31 C24      -0.7910     2.1449    -2.0524  C.3     1  <O>11       0.0294
  32 C25      -0.2067     2.2954    -3.4660  C.3     1  <O>11       0.0308
  33 H1        4.3791    -3.1070    -2.3268  H       1  <O>11       0.0377
  34 H2        4.6547    -3.9952    -3.8438  H       1  <O>11       0.0377
  35 H3        0.7519    -6.2737    -4.6304  H       1  <O>11       0.1921
  36 H4        3.4103    -2.9128    -0.8520  H       1  <O>11       0.0314
  37 H5        2.2292    -1.7419    -1.4896  H       1  <O>11       0.0314
  38 H6        1.9070    -3.6476     0.8447  H       1  <O>11       0.0268
  39 H7        1.8388    -1.8685     0.8537  H       1  <O>11       0.0268
  40 H8       -0.4201    -2.8040     0.9931  H       1  <O>11       0.0269
  41 H9       -0.1977    -1.9590    -0.5580  H       1  <O>11       0.0269
  42 H10      -0.2092    -4.9384    -0.0194  H       1  <O>11       0.0315
  43 H11      -1.2981    -4.0012    -1.0722  H       1  <O>11       0.0315
  44 H12       2.9477     1.2836    -2.8022  H       1  <O>11       0.0480
  45 H13       2.3535     2.9613    -2.8451  H       1  <O>11       0.0480
  46 H14       1.4071     0.7273    -0.9867  H       1  <O>11       0.0480
  47 H15       2.3250     2.1821    -0.5280  H       1  <O>11       0.0480
  48 H16      -1.0811     1.1069    -1.8892  H       1  <O>11       0.0480
  49 H17      -1.6644     2.7880    -1.9511  H       1  <O>11       0.0480
  50 H18      -0.9345     1.9349    -4.1924  H       1  <O>11       0.0480
  51 H19       0.0043     3.3482    -3.6533  H       1  <O>11       0.0480
  52 H20       3.2783     1.1257    -6.0657  H       1  <O>11       0.0625
  53 H21       5.3369    -0.1386    -6.2885  H       1  <O>11       0.0618
  54 H22       5.6546    -2.1908    -5.0239  H       1  <O>11       0.0620
  55 H23       1.8401    -1.7134    -3.2981  H       1  <O>11       0.0628
  56 H24       1.3670     2.5003     1.4192  H       1  <O>11       0.0652
  57 H25       1.1113     4.1812     3.1778  H       1  <O>11       0.0619
  58 H26      -0.3632     6.0919     2.7627  H       1  <O>11       0.0633
  59 H27      -1.4562     6.3172     0.6210  H       1  <O>11       0.0830
@<TRIPOS>BOND
     1     1     2    2
     2     2     3    1
     3     3     4   ar
     4     4     5   ar
     5     5     6   ar
     6     6     7   ar
     7     7     8    1
     8     8     9    1
     9     9    10   ar
    10    10    11   ar
    11    11    12   ar
    12    12    13    2
    13    12    14   ar
    14    14    15   ar
    15     9    15   ar
    16    15    16    1
    17    16    17    1
    18    17    18    1
    19    18    19    1
    20    14    19    1
    21     7    20   ar
    22     3    20   ar
    23     2    21   am
    24    21    22    1
    25    22    23    1
    26    23    24    1
    27    24    25    1
    28    25    26   ar
    29    26    27   ar
    30    27    28   ar
    31    28    29   ar
    32    29    30   ar
    33    25    30   ar
    34    24    31    1
    35    31    32    1
    36    21    32    1
    37     8    33    1
    38     8    34    1
    39    11    35    1
    40    16    36    1
    41    16    37    1
    42    17    38    1
    43    17    39    1
    44    18    40    1
    45    18    41    1
    46    19    42    1
    47    19    43    1
    48    22    44    1
    49    22    45    1
    50    23    46    1
    51    23    47    1
    52    31    48    1
    53    31    49    1
    54    32    50    1
    55    32    51    1
    56     4    52    1
    57     5    53    1
    58     6    54    1
    59    20    55    1
    60    26    56    1
    61    27    57    1
    62    28    58    1
    63    29    59    1
@<TRIPOS>MOLECULE
mol98_1_10
 59 63 0 0 0
SMALL
USER_CHARGES
****
VDW energy = -85.02
@<TRIPOS>ATOM
   1 O1        0.2060     0.3063    -5.2918  O.2     1  <O>11      -0.2700
   2 C1        1.1449     0.5535    -4.5497  C.2     1  <O>11       0.2467
   3 C2        2.3880    -0.1970    -4.6730  C.ar    1  <O>11       0.0372
   4 C3        3.4066     0.2538    -5.5286  C.ar    1  <O>11      -0.0496
   5 C4        4.5940    -0.4739    -5.6556  C.ar    1  <O>11      -0.0608
   6 C5        4.7788    -1.6531    -4.9293  C.ar    1  <O>11      -0.0582
   7 C6        3.7655    -2.0991    -4.0720  C.ar    1  <O>11      -0.0408
   8 C7        3.9646    -3.3451    -3.3058  C.3     1  <O>11       0.0168
   9 C8        5.1540    -3.2021    -2.4273  C.ar    1  <O>11       0.0693
  10 N1        6.2324    -4.0678    -2.5719  N.ar    1  <O>11      -0.1753
  11 N2        7.3241    -3.9435    -1.7751  N.ar    1  <O>11      -0.2427
  12 C9        7.3549    -2.9794    -0.8305  C.ar    1  <O>11       0.2682
  13 O2        8.5228    -2.8910    -0.0492  O.2     1  <O>11      -0.2661
  14 C10       6.3026    -2.0939    -0.6101  C.ar    1  <O>11       0.0232
  15 C11       5.1878    -2.2028    -1.4584  C.ar    1  <O>11      -0.0158
  16 C12       3.9840    -1.3099    -1.3226  C.3     1  <O>11      -0.0255
  17 C13       4.2607    -0.0503    -0.5040  C.3     1  <O>11      -0.0487
  18 C14       5.0006    -0.4075     0.7766  C.3     1  <O>11      -0.0486
  19 C15       6.3588    -1.0307     0.4564  C.3     1  <O>11      -0.0222
  20 C16       2.5779    -1.3785    -3.9373  C.ar    1  <O>11      -0.0461
  21 N3        1.0300     1.5280    -3.6100  N.am    1  <O>11      -0.2945
  22 C17       2.0762     1.9226    -2.6612  C.3     1  <O>11       0.0308
  23 C18       1.5733     1.7815    -1.2078  C.3     1  <O>11       0.0294
  24 N4        0.2620     2.5482    -1.0164  N.pl3   1  <O>11      -0.3122
  25 C19       0.1007     3.5223     0.0341  C.ar    1  <O>11       0.1213
  26 C20       0.7736     3.3312     1.2691  C.ar    1  <O>11      -0.0217
  27 C21       0.6209     4.2822     2.2754  C.ar    1  <O>11      -0.0571
  28 C22      -0.2151     5.3792     2.0312  C.ar    1  <O>11      -0.0435
  29 C23      -0.8465     5.5027     0.7937  C.ar    1  <O>11       0.0297
  30 N5       -0.6834     4.5926    -0.1785  N.ar    1  <O>11      -0.2403
  31 C24      -0.7910     2.1449    -2.0524  C.3     1  <O>11       0.0294
  32 C25      -0.2067     2.2954    -3.4660  C.3     1  <O>11       0.0308
  33 H1        4.1191    -4.1744    -3.9952  H       1  <O>11       0.0377
  34 H2        3.0827    -3.5402    -2.6953  H       1  <O>11       0.0377
  35 H3        8.1056    -4.5720    -1.8920  H       1  <O>11       0.1921
  36 H4        3.6589    -1.0108    -2.3196  H       1  <O>11       0.0314
  37 H5        3.1883    -1.8730    -0.8338  H       1  <O>11       0.0314
  38 H6        4.8709     0.6342    -1.0933  H       1  <O>11       0.0268
  39 H7        3.3150     0.4302    -0.2520  H       1  <O>11       0.0268
  40 H8        5.1514     0.4965     1.3667  H       1  <O>11       0.0269
  41 H9        4.4053    -1.1198     1.3471  H       1  <O>11       0.0269
  42 H10       7.0291    -0.2401     0.1187  H       1  <O>11       0.0315
  43 H11       6.7540    -1.4788     1.3687  H       1  <O>11       0.0315
  44 H12       2.9477     1.2836    -2.8022  H       1  <O>11       0.0480
  45 H13       2.3535     2.9613    -2.8451  H       1  <O>11       0.0480
  46 H14       1.4071     0.7273    -0.9867  H       1  <O>11       0.0480
  47 H15       2.3250     2.1821    -0.5280  H       1  <O>11       0.0480
  48 H16      -1.0811     1.1069    -1.8892  H       1  <O>11       0.0480
  49 H17      -1.6644     2.7880    -1.9511  H       1  <O>11       0.0480
  50 H18      -0.9345     1.9349    -4.1924  H       1  <O>11       0.0480
  51 H19       0.0043     3.3482    -3.6533  H       1  <O>11       0.0480
  52 H20       3.2783     1.1257    -6.0657  H       1  <O>11       0.0625
  53 H21       5.3369    -0.1386    -6.2885  H       1  <O>11       0.0618
  54 H22       5.6546    -2.1908    -5.0239  H       1  <O>11       0.0620
  55 H23       1.8401    -1.7134    -3.2981  H       1  <O>11       0.0628
  56 H24       1.3670     2.5003     1.4192  H       1  <O>11       0.0652
  57 H25       1.1113     4.1812     3.1778  H       1  <O>11       0.0619
  58 H26      -0.3632     6.0919     2.7627  H       1  <O>11       0.0633
  59 H27      -1.4562     6.3172     0.6210  H       1  <O>11       0.0830
@<TRIPOS>BOND
     1     1     2    2
     2     2     3    1
     3     3     4   ar
     4     4     5   ar
     5     5     6   ar
     6     6     7   ar
     7     7     8    1
     8     8     9    1
     9     9    10   ar
    10    10    11   ar
    11    11    12   ar
    12    12    13    2
    13    12    14   ar
    14    14    15   ar
    15     9    15   ar
    16    15    16    1
    17    16    17    1
    18    17    18    1
    19    18    19    1
    20    14    19    1
    21     7    20   ar
    22     3    20   ar
    23     2    21   am
    24    21    22    1
    25    22    23    1
    26    23    24    1
    27    24    25    1
    28    25    26   ar
    29    26    27   ar
    30    27    28   ar
    31    28    29   ar
    32    29    30   ar
    33    25    30   ar
    34    24    31    1
    35    31    32    1
    36    21    32    1
    37     8    33    1
    38     8    34    1
    39    11    35    1
    40    16    36    1
    41    16    37    1
    42    17    38    1
    43    17    39    1
    44    18    40    1
    45    18    41    1
    46    19    42    1
    47    19    43    1
    48    22    44    1
    49    22    45    1
    50    23    46    1
    51    23    47    1
    52    31    48    1
    53    31    49    1
    54    32    50    1
    55    32    51    1
    56     4    52    1
    57     5    53    1
    58     6    54    1
    59    20    55    1
    60    26    56    1
    61    27    57    1
    62    28    58    1
    63    29    59    1
@<TRIPOS>MOLECULE
mol98_1_11
 59 63 0 0 0
SMALL
USER_CHARGES
****
VDW energy = -83.21
@<TRIPOS>ATOM
   1 O1        0.2060     0.3063    -5.2918  O.2     1  <O>11      -0.2700
   2 C1        1.1449     0.5535    -4.5497  C.2     1  <O>11       0.2467
   3 C2        2.3880    -0.1970    -4.6730  C.ar    1  <O>11       0.0372
   4 C3        3.0970    -0.5882    -3.5253  C.ar    1  <O>11      -0.0496
   5 C4        4.2962    -1.2974    -3.6452  C.ar    1  <O>11      -0.0608
   6 C5        4.7970    -1.6266    -4.9073  C.ar    1  <O>11      -0.0582
   7 C6        4.0869    -1.2416    -6.0512  C.ar    1  <O>11      -0.0408
   8 C7        4.6188    -1.5916    -7.3830  C.3     1  <O>11       0.0168
   9 C8        5.5067    -0.5021    -7.8641  C.ar    1  <O>11       0.0693
  10 N1        6.2934     0.2031    -6.9602  N.ar    1  <O>11      -0.1753
  11 N2        7.1090     1.1988    -7.3908  N.ar    1  <O>11      -0.2427
  12 C9        7.1457     1.5108    -8.7039  C.ar    1  <O>11       0.2682
  13 O2        8.0254     2.5403    -9.0890  O.2     1  <O>11      -0.2661
  14 C10       6.3674     0.8668    -9.6627  C.ar    1  <O>11       0.0232
  15 C11       5.5493    -0.1860    -9.2193  C.ar    1  <O>11      -0.0158
  16 C12       4.6575    -0.9590   -10.1531  C.3     1  <O>11      -0.0255
  17 C13       5.0383    -0.7910   -11.6229  C.3     1  <O>11      -0.0487
  18 C14       5.2605     0.6795   -11.9435  C.3     1  <O>11      -0.0486
  19 C15       6.4214     1.2391   -11.1220  C.3     1  <O>11      -0.0222
  20 C16       2.8883    -0.5352    -5.9413  C.ar    1  <O>11      -0.0461
  21 N3        1.0300     1.5280    -3.6100  N.am    1  <O>11      -0.2945
  22 C17       2.0762     1.9226    -2.6612  C.3     1  <O>11       0.0308
  23 C18       1.5733     1.7815    -1.2078  C.3     1  <O>11       0.0294
  24 N4        0.2620     2.5482    -1.0164  N.pl3   1  <O>11      -0.3122
  25 C19       0.1007     3.5223     0.0341  C.ar    1  <O>11       0.1213
  26 C20       0.7736     3.3312     1.2691  C.ar    1  <O>11      -0.0217
  27 C21       0.6209     4.2822     2.2754  C.ar    1  <O>11      -0.0571
  28 C22      -0.2151     5.3792     2.0312  C.ar    1  <O>11      -0.0435
  29 C23      -0.8465     5.5027     0.7937  C.ar    1  <O>11       0.0297
  30 N5       -0.6834     4.5926    -0.1785  N.ar    1  <O>11      -0.2403
  31 C24      -0.7910     2.1449    -2.0524  C.3     1  <O>11       0.0294
  32 C25      -0.2067     2.2954    -3.4660  C.3     1  <O>11       0.0308
  33 H1        3.7926    -1.7226    -8.0809  H       1  <O>11       0.0377
  34 H2        5.1863    -2.5198    -7.3142  H       1  <O>11       0.0377
  35 H3        7.6822     1.7007    -6.7283  H       1  <O>11       0.1921
  36 H4        4.7207    -2.0173    -9.8976  H       1  <O>11       0.0314
  37 H5        3.6321    -0.6128   -10.0190  H       1  <O>11       0.0314
  38 H6        5.9553    -1.3455   -11.8220  H       1  <O>11       0.0268
  39 H7        4.2349    -1.1793   -12.2495  H       1  <O>11       0.0268
  40 H8        5.4892     0.7840   -13.0041  H       1  <O>11       0.0269
  41 H9        4.3545     1.2379   -11.7096  H       1  <O>11       0.0269
  42 H10       7.3535     0.8583   -11.5398  H       1  <O>11       0.0315
  43 H11       6.4040     2.3267   -11.2006  H       1  <O>11       0.0315
  44 H12       2.9477     1.2836    -2.8022  H       1  <O>11       0.0480
  45 H13       2.3535     2.9613    -2.8451  H       1  <O>11       0.0480
  46 H14       1.4071     0.7273    -0.9867  H       1  <O>11       0.0480
  47 H15       2.3250     2.1821    -0.5280  H       1  <O>11       0.0480
  48 H16      -1.0811     1.1069    -1.8892  H       1  <O>11       0.0480
  49 H17      -1.6644     2.7880    -1.9511  H       1  <O>11       0.0480
  50 H18      -0.9345     1.9349    -4.1924  H       1  <O>11       0.0480
  51 H19       0.0043     3.3482    -3.6533  H       1  <O>11       0.0480
  52 H20       2.7314    -0.3513    -2.5897  H       1  <O>11       0.0625
  53 H21       4.8136    -1.5789    -2.7978  H       1  <O>11       0.0618
  54 H22       5.6826    -2.1490    -4.9959  H       1  <O>11       0.0620
  55 H23       2.3702    -0.2615    -6.7909  H       1  <O>11       0.0628
  56 H24       1.3670     2.5003     1.4192  H       1  <O>11       0.0652
  57 H25       1.1113     4.1812     3.1778  H       1  <O>11       0.0619
  58 H26      -0.3632     6.0919     2.7627  H       1  <O>11       0.0633
  59 H27      -1.4562     6.3172     0.6210  H       1  <O>11       0.0830
@<TRIPOS>BOND
     1     1     2    2
     2     2     3    1
     3     3     4   ar
     4     4     5   ar
     5     5     6   ar
     6     6     7   ar
     7     7     8    1
     8     8     9    1
     9     9    10   ar
    10    10    11   ar
    11    11    12   ar
    12    12    13    2
    13    12    14   ar
    14    14    15   ar
    15     9    15   ar
    16    15    16    1
    17    16    17    1
    18    17    18    1
    19    18    19    1
    20    14    19    1
    21     7    20   ar
    22     3    20   ar
    23     2    21   am
    24    21    22    1
    25    22    23    1
    26    23    24    1
    27    24    25    1
    28    25    26   ar
    29    26    27   ar
    30    27    28   ar
    31    28    29   ar
    32    29    30   ar
    33    25    30   ar
    34    24    31    1
    35    31    32    1
    36    21    32    1
    37     8    33    1
    38     8    34    1
    39    11    35    1
    40    16    36    1
    41    16    37    1
    42    17    38    1
    43    17    39    1
    44    18    40    1
    45    18    41    1
    46    19    42    1
    47    19    43    1
    48    22    44    1
    49    22    45    1
    50    23    46    1
    51    23    47    1
    52    31    48    1
    53    31    49    1
    54    32    50    1
    55    32    51    1
    56     4    52    1
    57     5    53    1
    58     6    54    1
    59    20    55    1
    60    26    56    1
    61    27    57    1
    62    28    58    1
    63    29    59    1
@<TRIPOS>MOLECULE
mol98_1_12
 59 63 0 0 0
SMALL
USER_CHARGES
****
VDW energy = -79.56
@<TRIPOS>ATOM
   1 O1        0.2060     0.3063    -5.2918  O.2     1  <O>11      -0.2700
   2 C1        1.1449     0.5535    -4.5497  C.2     1  <O>11       0.2467
   3 C2        2.3880    -0.1970    -4.6730  C.ar    1  <O>11       0.0372
   4 C3        3.0970    -0.5882    -3.5253  C.ar    1  <O>11      -0.0496
   5 C4        4.2962    -1.2974    -3.6452  C.ar    1  <O>11      -0.0608
   6 C5        4.7970    -1.6266    -4.9073  C.ar    1  <O>11      -0.0582
   7 C6        4.0869    -1.2416    -6.0512  C.ar    1  <O>11      -0.0408
   8 C7        4.6188    -1.5916    -7.3830  C.3     1  <O>11       0.0168
   9 C8        4.2635    -0.5254    -8.3545  C.ar    1  <O>11       0.0693
  10 N1        4.2233     0.8026    -7.9445  N.ar    1  <O>11      -0.1753
  11 N2        3.9017     1.7836    -8.8256  N.ar    1  <O>11      -0.2427
  12 C9        3.6088     1.4631   -10.1040  C.ar    1  <O>11       0.2682
  13 O2        3.3012     2.5276   -10.9725  O.2     1  <O>11      -0.2661
  14 C10       3.6026     0.1541   -10.5796  C.ar    1  <O>11       0.0232
  15 C11       3.9689    -0.8562    -9.6744  C.ar    1  <O>11      -0.0158
  16 C12       3.9980    -2.3103   -10.0613  C.3     1  <O>11      -0.0255
  17 C13       4.0195    -2.5286   -11.5730  C.3     1  <O>11      -0.0487
  18 C14       2.9674    -1.6587   -12.2447  C.3     1  <O>11      -0.0486
  19 C15       3.2647    -0.1781   -12.0102  C.3     1  <O>11      -0.0222
  20 C16       2.8883    -0.5352    -5.9413  C.ar    1  <O>11      -0.0461
  21 N3        1.0300     1.5280    -3.6100  N.am    1  <O>11      -0.2945
  22 C17       2.0762     1.9226    -2.6612  C.3     1  <O>11       0.0308
  23 C18       1.5733     1.7815    -1.2078  C.3     1  <O>11       0.0294
  24 N4        0.2620     2.5482    -1.0164  N.pl3   1  <O>11      -0.3122
  25 C19       0.1007     3.5223     0.0341  C.ar    1  <O>11       0.1213
  26 C20      -0.8238     3.2695     1.0810  C.ar    1  <O>11      -0.0217
  27 C21      -0.9664     4.2108     2.0978  C.ar    1  <O>11      -0.0571
  28 C22      -0.2044     5.3841     2.0283  C.ar    1  <O>11      -0.0435
  29 C23       0.6844     5.5671     0.9692  C.ar    1  <O>11       0.0297
  30 N5        0.8304     4.6501     0.0007  N.ar    1  <O>11      -0.2403
  31 C24      -0.7910     2.1449    -2.0524  C.3     1  <O>11       0.0294
  32 C25      -0.2067     2.2954    -3.4660  C.3     1  <O>11       0.0308
  33 H1        4.1887    -2.5382    -7.7083  H       1  <O>11       0.0377
  34 H2        5.7034    -1.6860    -7.3269  H       1  <O>11       0.0377
  35 H3        3.8821     2.7460    -8.5208  H       1  <O>11       0.1921
  36 H4        4.8912    -2.7662    -9.6327  H       1  <O>11       0.0314
  37 H5        3.1104    -2.7953    -9.6538  H       1  <O>11       0.0314
  38 H6        5.0041    -2.2660   -11.9599  H       1  <O>11       0.0268
  39 H7        3.8116    -3.5770   -11.7884  H       1  <O>11       0.0268
  40 H8        2.9685    -1.8589   -13.3162  H       1  <O>11       0.0269
  41 H9        1.9881    -1.8972   -11.8307  H       1  <O>11       0.0269
  42 H10       4.1092     0.1068   -12.6380  H       1  <O>11       0.0315
  43 H11       2.3850     0.3981   -12.2989  H       1  <O>11       0.0315
  44 H12       2.9477     1.2836    -2.8022  H       1  <O>11       0.0480
  45 H13       2.3535     2.9613    -2.8451  H       1  <O>11       0.0480
  46 H14       1.4071     0.7273    -0.9867  H       1  <O>11       0.0480
  47 H15       2.3250     2.1821    -0.5280  H       1  <O>11       0.0480
  48 H16      -1.0811     1.1069    -1.8892  H       1  <O>11       0.0480
  49 H17      -1.6644     2.7880    -1.9511  H       1  <O>11       0.0480
  50 H18      -0.9345     1.9349    -4.1924  H       1  <O>11       0.0480
  51 H19       0.0043     3.3482    -3.6533  H       1  <O>11       0.0480
  52 H20       2.7314    -0.3513    -2.5897  H       1  <O>11       0.0625
  53 H21       4.8136    -1.5789    -2.7978  H       1  <O>11       0.0618
  54 H22       5.6826    -2.1490    -4.9959  H       1  <O>11       0.0620
  55 H23       2.3702    -0.2615    -6.7909  H       1  <O>11       0.0628
  56 H24      -1.3818     2.4014     1.0887  H       1  <O>11       0.0652
  57 H25      -1.6169     4.0480     2.8823  H       1  <O>11       0.0619
  58 H26      -0.3001     6.1089     2.7565  H       1  <O>11       0.0633
  59 H27       1.2456     6.4322     0.9294  H       1  <O>11       0.0830
@<TRIPOS>BOND
     1     1     2    2
     2     2     3    1
     3     3     4   ar
     4     4     5   ar
     5     5     6   ar
     6     6     7   ar
     7     7     8    1
     8     8     9    1
     9     9    10   ar
    10    10    11   ar
    11    11    12   ar
    12    12    13    2
    13    12    14   ar
    14    14    15   ar
    15     9    15   ar
    16    15    16    1
    17    16    17    1
    18    17    18    1
    19    18    19    1
    20    14    19    1
    21     7    20   ar
    22     3    20   ar
    23     2    21   am
    24    21    22    1
    25    22    23    1
    26    23    24    1
    27    24    25    1
    28    25    26   ar
    29    26    27   ar
    30    27    28   ar
    31    28    29   ar
    32    29    30   ar
    33    25    30   ar
    34    24    31    1
    35    31    32    1
    36    21    32    1
    37     8    33    1
    38     8    34    1
    39    11    35    1
    40    16    36    1
    41    16    37    1
    42    17    38    1
    43    17    39    1
    44    18    40    1
    45    18    41    1
    46    19    42    1
    47    19    43    1
    48    22    44    1
    49    22    45    1
    50    23    46    1
    51    23    47    1
    52    31    48    1
    53    31    49    1
    54    32    50    1
    55    32    51    1
    56     4    52    1
    57     5    53    1
    58     6    54    1
    59    20    55    1
    60    26    56    1
    61    27    57    1
    62    28    58    1
    63    29    59    1
@<TRIPOS>MOLECULE
mol98_1_13
 59 63 0 0 0
SMALL
USER_CHARGES
****
VDW energy = -79.43
@<TRIPOS>ATOM
   1 O1        0.2060     0.3063    -5.2918  O.2     1  <O>11      -0.2700
   2 C1        1.1449     0.5535    -4.5497  C.2     1  <O>11       0.2467
   3 C2        2.3880    -0.1970    -4.6730  C.ar    1  <O>11       0.0372
   4 C3        3.0970    -0.5882    -3.5253  C.ar    1  <O>11      -0.0496
   5 C4        4.2962    -1.2974    -3.6452  C.ar    1  <O>11      -0.0608
   6 C5        4.7970    -1.6266    -4.9073  C.ar    1  <O>11      -0.0582
   7 C6        4.0869    -1.2416    -6.0512  C.ar    1  <O>11      -0.0408
   8 C7        4.6188    -1.5916    -7.3830  C.3     1  <O>11       0.0168
   9 C8        5.9602    -0.9776    -7.5580  C.ar    1  <O>11       0.0693
  10 N1        6.8187    -0.8625    -6.4703  N.ar    1  <O>11      -0.1753
  11 N2        8.0468    -0.3047    -6.6211  N.ar    1  <O>11      -0.2427
  12 C9        8.4292     0.1498    -7.8335  C.ar    1  <O>11       0.2682
  13 O2        9.7215     0.7006    -7.9281  O.2     1  <O>11      -0.2661
  14 C10       7.6140     0.0925    -8.9613  C.ar    1  <O>11       0.0232
  15 C11       6.3565    -0.5159    -8.8102  C.ar    1  <O>11      -0.0158
  16 C12       5.3802    -0.6372    -9.9491  C.3     1  <O>11      -0.0255
  17 C13       6.0287    -0.4439   -11.3185  C.3     1  <O>11      -0.0487
  18 C14       6.9236     0.7865   -11.3074  C.3     1  <O>11      -0.0486
  19 C15       8.0619     0.6139   -10.3024  C.3     1  <O>11      -0.0222
  20 C16       2.8883    -0.5352    -5.9413  C.ar    1  <O>11      -0.0461
  21 N3        1.0300     1.5280    -3.6100  N.am    1  <O>11      -0.2945
  22 C17       2.0762     1.9226    -2.6612  C.3     1  <O>11       0.0308
  23 C18       1.5733     1.7815    -1.2078  C.3     1  <O>11       0.0294
  24 N4        0.2620     2.5482    -1.0164  N.pl3   1  <O>11      -0.3122
  25 C19       0.1007     3.5223     0.0341  C.ar    1  <O>11       0.1213
  26 C20      -0.8238     3.2695     1.0810  C.ar    1  <O>11      -0.0217
  27 C21      -0.9664     4.2108     2.0978  C.ar    1  <O>11      -0.0571
  28 C22      -0.2044     5.3841     2.0283  C.ar    1  <O>11      -0.0435
  29 C23       0.6844     5.5671     0.9692  C.ar    1  <O>11       0.0297
  30 N5        0.8304     4.6501     0.0007  N.ar    1  <O>11      -0.2403
  31 C24      -0.7910     2.1449    -2.0524  C.3     1  <O>11       0.0294
  32 C25      -0.2067     2.2954    -3.4660  C.3     1  <O>11       0.0308
  33 H1        3.9445    -1.2181    -8.1529  H       1  <O>11       0.0377
  34 H2        4.7010    -2.6754    -7.4672  H       1  <O>11       0.0377
  35 H3        8.6664    -0.2318    -5.8273  H       1  <O>11       0.1921
  36 H4        4.9294    -1.6297    -9.9162  H       1  <O>11       0.0314
  37 H5        4.6048     0.1192    -9.8229  H       1  <O>11       0.0314
  38 H6        6.6274    -1.3223   -11.5596  H       1  <O>11       0.0268
  39 H7        5.2499    -0.3166   -12.0709  H       1  <O>11       0.0268
  40 H8        7.3435     0.9326   -12.3026  H       1  <O>11       0.0269
  41 H9        6.3307     1.6579   -11.0307  H       1  <O>11       0.0269
  42 H10       8.7857    -0.0866   -10.7194  H       1  <O>11       0.0315
  43 H11       8.5375     1.5839   -10.1532  H       1  <O>11       0.0315
  44 H12       2.9477     1.2836    -2.8022  H       1  <O>11       0.0480
  45 H13       2.3535     2.9613    -2.8451  H       1  <O>11       0.0480
  46 H14       1.4071     0.7273    -0.9867  H       1  <O>11       0.0480
  47 H15       2.3250     2.1821    -0.5280  H       1  <O>11       0.0480
  48 H16      -1.0811     1.1069    -1.8892  H       1  <O>11       0.0480
  49 H17      -1.6644     2.7880    -1.9511  H       1  <O>11       0.0480
  50 H18      -0.9345     1.9349    -4.1924  H       1  <O>11       0.0480
  51 H19       0.0043     3.3482    -3.6533  H       1  <O>11       0.0480
  52 H20       2.7314    -0.3513    -2.5897  H       1  <O>11       0.0625
  53 H21       4.8136    -1.5789    -2.7978  H       1  <O>11       0.0618
  54 H22       5.6826    -2.1490    -4.9959  H       1  <O>11       0.0620
  55 H23       2.3702    -0.2615    -6.7909  H       1  <O>11       0.0628
  56 H24      -1.3818     2.4014     1.0887  H       1  <O>11       0.0652
  57 H25      -1.6169     4.0480     2.8823  H       1  <O>11       0.0619
  58 H26      -0.3001     6.1089     2.7565  H       1  <O>11       0.0633
  59 H27       1.2456     6.4322     0.9294  H       1  <O>11       0.0830
@<TRIPOS>BOND
     1     1     2    2
     2     2     3    1
     3     3     4   ar
     4     4     5   ar
     5     5     6   ar
     6     6     7   ar
     7     7     8    1
     8     8     9    1
     9     9    10   ar
    10    10    11   ar
    11    11    12   ar
    12    12    13    2
    13    12    14   ar
    14    14    15   ar
    15     9    15   ar
    16    15    16    1
    17    16    17    1
    18    17    18    1
    19    18    19    1
    20    14    19    1
    21     7    20   ar
    22     3    20   ar
    23     2    21   am
    24    21    22    1
    25    22    23    1
    26    23    24    1
    27    24    25    1
    28    25    26   ar
    29    26    27   ar
    30    27    28   ar
    31    28    29   ar
    32    29    30   ar
    33    25    30   ar
    34    24    31    1
    35    31    32    1
    36    21    32    1
    37     8    33    1
    38     8    34    1
    39    11    35    1
    40    16    36    1
    41    16    37    1
    42    17    38    1
    43    17    39    1
    44    18    40    1
    45    18    41    1
    46    19    42    1
    47    19    43    1
    48    22    44    1
    49    22    45    1
    50    23    46    1
    51    23    47    1
    52    31    48    1
    53    31    49    1
    54    32    50    1
    55    32    51    1
    56     4    52    1
    57     5    53    1
    58     6    54    1
    59    20    55    1
    60    26    56    1
    61    27    57    1
    62    28    58    1
    63    29    59    1
@<TRIPOS>MOLECULE
mol98_1_14
 59 63 0 0 0
SMALL
USER_CHARGES
****
VDW energy = -78.34
@<TRIPOS>ATOM
   1 O1        0.2060     0.3063    -5.2918  O.2     1  <O>11      -0.2700
   2 C1        1.1449     0.5535    -4.5497  C.2     1  <O>11       0.2467
   3 C2        2.3880    -0.1970    -4.6730  C.ar    1  <O>11       0.0372
   4 C3        3.6255     0.4543    -4.5417  C.ar    1  <O>11      -0.0496
   5 C4        4.8178    -0.2646    -4.6728  C.ar    1  <O>11      -0.0608
   6 C5        4.7881    -1.6375    -4.9310  C.ar    1  <O>11      -0.0582
   7 C6        3.5541    -2.2875    -5.0559  C.ar    1  <O>11      -0.0408
   8 C7        3.5267    -3.7381    -5.3282  C.3     1  <O>11       0.0168
   9 C8        2.3449    -4.0625    -6.1679  C.ar    1  <O>11       0.0693
  10 N1        1.9105    -3.1614    -7.1337  N.ar    1  <O>11      -0.1753
  11 N2        0.8330    -3.4501    -7.9067  N.ar    1  <O>11      -0.2427
  12 C9        0.1750    -4.6152    -7.7265  C.ar    1  <O>11       0.2682
  13 O2       -0.9229    -4.8634    -8.5722  O.2     1  <O>11      -0.2661
  14 C10       0.5355    -5.5533    -6.7623  C.ar    1  <O>11       0.0232
  15 C11       1.6715    -5.2675    -5.9863  C.ar    1  <O>11      -0.0158
  16 C12       2.1633    -6.1958    -4.9087  C.3     1  <O>11      -0.0255
  17 C13       1.6002    -7.6104    -5.0325  C.3     1  <O>11      -0.0487
  18 C14       0.0973    -7.5596    -5.2639  C.3     1  <O>11      -0.0486
  19 C15      -0.2204    -6.8436    -6.5761  C.3     1  <O>11      -0.0222
  20 C16       2.3591    -1.5786    -4.9249  C.ar    1  <O>11      -0.0461
  21 N3        1.0300     1.5280    -3.6100  N.am    1  <O>11      -0.2945
  22 C17       2.0762     1.9226    -2.6612  C.3     1  <O>11       0.0308
  23 C18       1.5733     1.7815    -1.2078  C.3     1  <O>11       0.0294
  24 N4        0.2620     2.5482    -1.0164  N.pl3   1  <O>11      -0.3122
  25 C19       0.1007     3.5223     0.0341  C.ar    1  <O>11       0.1213
  26 C20       0.7736     3.3312     1.2691  C.ar    1  <O>11      -0.0217
  27 C21       0.6209     4.2822     2.2754  C.ar    1  <O>11      -0.0571
  28 C22      -0.2151     5.3792     2.0312  C.ar    1  <O>11      -0.0435
  29 C23      -0.8465     5.5027     0.7937  C.ar    1  <O>11       0.0297
  30 N5       -0.6834     4.5926    -0.1785  N.ar    1  <O>11      -0.2403
  31 C24      -0.7910     2.1449    -2.0524  C.3     1  <O>11       0.0294
  32 C25      -0.2067     2.2954    -3.4660  C.3     1  <O>11       0.0308
  33 H1        3.4647    -4.2831    -4.3869  H       1  <O>11       0.0377
  34 H2        4.4370    -4.0255    -5.8547  H       1  <O>11       0.0377
  35 H3        0.5291    -2.7931    -8.6105  H       1  <O>11       0.1921
  36 H4        3.2510    -6.2496    -4.9661  H       1  <O>11       0.0314
  37 H5        1.8694    -5.7894    -3.9404  H       1  <O>11       0.0314
  38 H6        2.0769    -8.1145    -5.8731  H       1  <O>11       0.0268
  39 H7        1.8052    -8.1612    -4.1141  H       1  <O>11       0.0268
  40 H8       -0.2927    -8.5765    -5.3071  H       1  <O>11       0.0269
  41 H9       -0.3738    -7.0235    -4.4404  H       1  <O>11       0.0269
  42 H10       0.0296    -7.5107    -7.4013  H       1  <O>11       0.0315
  43 H11      -1.2883    -6.6230    -6.5965  H       1  <O>11       0.0315
  44 H12       2.9477     1.2836    -2.8022  H       1  <O>11       0.0480
  45 H13       2.3535     2.9613    -2.8451  H       1  <O>11       0.0480
  46 H14       1.4071     0.7273    -0.9867  H       1  <O>11       0.0480
  47 H15       2.3250     2.1821    -0.5280  H       1  <O>11       0.0480
  48 H16      -1.0811     1.1069    -1.8892  H       1  <O>11       0.0480
  49 H17      -1.6644     2.7880    -1.9511  H       1  <O>11       0.0480
  50 H18      -0.9345     1.9349    -4.1924  H       1  <O>11       0.0480
  51 H19       0.0043     3.3482    -3.6533  H       1  <O>11       0.0480
  52 H20       3.6550     1.4675    -4.3478  H       1  <O>11       0.0625
  53 H21       5.7235     0.2208    -4.5783  H       1  <O>11       0.0618
  54 H22       5.6680    -2.1678    -5.0288  H       1  <O>11       0.0620
  55 H23       1.4553    -2.0690    -5.0131  H       1  <O>11       0.0628
  56 H24       1.3670     2.5003     1.4192  H       1  <O>11       0.0652
  57 H25       1.1113     4.1812     3.1778  H       1  <O>11       0.0619
  58 H26      -0.3632     6.0919     2.7627  H       1  <O>11       0.0633
  59 H27      -1.4562     6.3172     0.6210  H       1  <O>11       0.0830
@<TRIPOS>BOND
     1     1     2    2
     2     2     3    1
     3     3     4   ar
     4     4     5   ar
     5     5     6   ar
     6     6     7   ar
     7     7     8    1
     8     8     9    1
     9     9    10   ar
    10    10    11   ar
    11    11    12   ar
    12    12    13    2
    13    12    14   ar
    14    14    15   ar
    15     9    15   ar
    16    15    16    1
    17    16    17    1
    18    17    18    1
    19    18    19    1
    20    14    19    1
    21     7    20   ar
    22     3    20   ar
    23     2    21   am
    24    21    22    1
    25    22    23    1
    26    23    24    1
    27    24    25    1
    28    25    26   ar
    29    26    27   ar
    30    27    28   ar
    31    28    29   ar
    32    29    30   ar
    33    25    30   ar
    34    24    31    1
    35    31    32    1
    36    21    32    1
    37     8    33    1
    38     8    34    1
    39    11    35    1
    40    16    36    1
    41    16    37    1
    42    17    38    1
    43    17    39    1
    44    18    40    1
    45    18    41    1
    46    19    42    1
    47    19    43    1
    48    22    44    1
    49    22    45    1
    50    23    46    1
    51    23    47    1
    52    31    48    1
    53    31    49    1
    54    32    50    1
    55    32    51    1
    56     4    52    1
    57     5    53    1
    58     6    54    1
    59    20    55    1
    60    26    56    1
    61    27    57    1
    62    28    58    1
    63    29    59    1
@<TRIPOS>MOLECULE
mol98_1_15
 59 63 0 0 0
SMALL
USER_CHARGES
****
VDW energy = -77.21
@<TRIPOS>ATOM
   1 O1        0.2060     0.3063    -5.2918  O.2     1  <O>11      -0.2700
   2 C1        1.1449     0.5535    -4.5497  C.2     1  <O>11       0.2467
   3 C2        2.3880    -0.1970    -4.6730  C.ar    1  <O>11       0.0372
   4 C3        3.6255     0.4543    -4.5417  C.ar    1  <O>11      -0.0496
   5 C4        4.8178    -0.2646    -4.6728  C.ar    1  <O>11      -0.0608
   6 C5        4.7881    -1.6375    -4.9310  C.ar    1  <O>11      -0.0582
   7 C6        3.5541    -2.2875    -5.0559  C.ar    1  <O>11      -0.0408
   8 C7        3.5267    -3.7381    -5.3282  C.3     1  <O>11       0.0168
   9 C8        3.5142    -4.4835    -4.0432  C.ar    1  <O>11       0.0693
  10 N1        2.3040    -4.8077    -3.4400  N.ar    1  <O>11      -0.1753
  11 N2        2.2828    -5.4901    -2.2671  N.ar    1  <O>11      -0.2427
  12 C9        3.4456    -5.8449    -1.6799  C.ar    1  <O>11       0.2682
  13 O2        3.3557    -6.5669    -0.4746  O.2     1  <O>11      -0.2661
  14 C10       4.6946    -5.5320    -2.2111  C.ar    1  <O>11       0.0232
  15 C11       4.7137    -4.8553    -3.4423  C.ar    1  <O>11      -0.0158
  16 C12       5.9967    -4.4557    -4.1200  C.3     1  <O>11      -0.0255
  17 C13       7.2155    -5.2074    -3.5882  C.3     1  <O>11      -0.0487
  18 C14       7.2115    -5.2057    -2.0668  C.3     1  <O>11      -0.0486
  19 C15       5.9786    -5.9334    -1.5320  C.3     1  <O>11      -0.0222
  20 C16       2.3591    -1.5786    -4.9249  C.ar    1  <O>11      -0.0461
  21 N3        1.0300     1.5280    -3.6100  N.am    1  <O>11      -0.2945
  22 C17       2.0762     1.9226    -2.6612  C.3     1  <O>11       0.0308
  23 C18       1.5733     1.7815    -1.2078  C.3     1  <O>11       0.0294
  24 N4        0.2620     2.5482    -1.0164  N.pl3   1  <O>11      -0.3122
  25 C19       0.1007     3.5223     0.0341  C.ar    1  <O>11       0.1213
  26 C20       0.7736     3.3312     1.2691  C.ar    1  <O>11      -0.0217
  27 C21       0.6209     4.2822     2.2754  C.ar    1  <O>11      -0.0571
  28 C22      -0.2151     5.3792     2.0312  C.ar    1  <O>11      -0.0435
  29 C23      -0.8465     5.5027     0.7937  C.ar    1  <O>11       0.0297
  30 N5       -0.6834     4.5926    -0.1785  N.ar    1  <O>11      -0.2403
  31 C24      -0.7910     2.1449    -2.0524  C.3     1  <O>11       0.0294
  32 C25      -0.2067     2.2954    -3.4660  C.3     1  <O>11       0.0308
  33 H1        4.4101    -4.0166    -5.9017  H       1  <O>11       0.0377
  34 H2        2.6311    -3.9829    -5.8995  H       1  <O>11       0.0377
  35 H3        1.3993    -5.7276    -1.8399  H       1  <O>11       0.1921
  36 H4        5.9034    -4.6580    -5.1876  H       1  <O>11       0.0314
  37 H5        6.1529    -3.3878    -3.9642  H       1  <O>11       0.0314
  38 H6        7.1878    -6.2362    -3.9472  H       1  <O>11       0.0268
  39 H7        8.1231    -4.7211    -3.9470  H       1  <O>11       0.0268
  40 H8        8.1088    -5.7086    -1.7060  H       1  <O>11       0.0269
  41 H9        7.2026    -4.1762    -1.7099  H       1  <O>11       0.0269
  42 H10       6.1226    -7.0045    -1.6743  H       1  <O>11       0.0315
  43 H11       5.8873    -5.7161    -0.4671  H       1  <O>11       0.0315
  44 H12       2.9477     1.2836    -2.8022  H       1  <O>11       0.0480
  45 H13       2.3535     2.9613    -2.8451  H       1  <O>11       0.0480
  46 H14       1.4071     0.7273    -0.9867  H       1  <O>11       0.0480
  47 H15       2.3250     2.1821    -0.5280  H       1  <O>11       0.0480
  48 H16      -1.0811     1.1069    -1.8892  H       1  <O>11       0.0480
  49 H17      -1.6644     2.7880    -1.9511  H       1  <O>11       0.0480
  50 H18      -0.9345     1.9349    -4.1924  H       1  <O>11       0.0480
  51 H19       0.0043     3.3482    -3.6533  H       1  <O>11       0.0480
  52 H20       3.6550     1.4675    -4.3478  H       1  <O>11       0.0625
  53 H21       5.7235     0.2208    -4.5783  H       1  <O>11       0.0618
  54 H22       5.6680    -2.1678    -5.0288  H       1  <O>11       0.0620
  55 H23       1.4553    -2.0690    -5.0131  H       1  <O>11       0.0628
  56 H24       1.3670     2.5003     1.4192  H       1  <O>11       0.0652
  57 H25       1.1113     4.1812     3.1778  H       1  <O>11       0.0619
  58 H26      -0.3632     6.0919     2.7627  H       1  <O>11       0.0633
  59 H27      -1.4562     6.3172     0.6210  H       1  <O>11       0.0830
@<TRIPOS>BOND
     1     1     2    2
     2     2     3    1
     3     3     4   ar
     4     4     5   ar
     5     5     6   ar
     6     6     7   ar
     7     7     8    1
     8     8     9    1
     9     9    10   ar
    10    10    11   ar
    11    11    12   ar
    12    12    13    2
    13    12    14   ar
    14    14    15   ar
    15     9    15   ar
    16    15    16    1
    17    16    17    1
    18    17    18    1
    19    18    19    1
    20    14    19    1
    21     7    20   ar
    22     3    20   ar
    23     2    21   am
    24    21    22    1
    25    22    23    1
    26    23    24    1
    27    24    25    1
    28    25    26   ar
    29    26    27   ar
    30    27    28   ar
    31    28    29   ar
    32    29    30   ar
    33    25    30   ar
    34    24    31    1
    35    31    32    1
    36    21    32    1
    37     8    33    1
    38     8    34    1
    39    11    35    1
    40    16    36    1
    41    16    37    1
    42    17    38    1
    43    17    39    1
    44    18    40    1
    45    18    41    1
    46    19    42    1
    47    19    43    1
    48    22    44    1
    49    22    45    1
    50    23    46    1
    51    23    47    1
    52    31    48    1
    53    31    49    1
    54    32    50    1
    55    32    51    1
    56     4    52    1
    57     5    53    1
    58     6    54    1
    59    20    55    1
    60    26    56    1
    61    27    57    1
    62    28    58    1
    63    29    59    1
@<TRIPOS>MOLECULE
mol98_1_16
 59 63 0 0 0
SMALL
USER_CHARGES
****
VDW energy = -76.34
@<TRIPOS>ATOM
   1 O1        0.2060     0.3063    -5.2918  O.2     1  <O>11      -0.2700
   2 C1        1.1449     0.5535    -4.5497  C.2     1  <O>11       0.2467
   3 C2        2.3880    -0.1970    -4.6730  C.ar    1  <O>11       0.0372
   4 C3        3.0970    -0.5882    -3.5253  C.ar    1  <O>11      -0.0496
   5 C4        4.2962    -1.2974    -3.6452  C.ar    1  <O>11      -0.0608
   6 C5        4.7970    -1.6266    -4.9073  C.ar    1  <O>11      -0.0582
   7 C6        4.0869    -1.2416    -6.0512  C.ar    1  <O>11      -0.0408
   8 C7        4.6188    -1.5916    -7.3830  C.3     1  <O>11       0.0168
   9 C8        4.2635    -0.5254    -8.3545  C.ar    1  <O>11       0.0693
  10 N1        4.2233     0.8026    -7.9445  N.ar    1  <O>11      -0.1753
  11 N2        3.9017     1.7836    -8.8256  N.ar    1  <O>11      -0.2427
  12 C9        3.6088     1.4631   -10.1040  C.ar    1  <O>11       0.2682
  13 O2        3.3012     2.5276   -10.9725  O.2     1  <O>11      -0.2661
  14 C10       3.6026     0.1541   -10.5796  C.ar    1  <O>11       0.0232
  15 C11       3.9689    -0.8562    -9.6744  C.ar    1  <O>11      -0.0158
  16 C12       3.9980    -2.3103   -10.0613  C.3     1  <O>11      -0.0255
  17 C13       4.0195    -2.5286   -11.5730  C.3     1  <O>11      -0.0487
  18 C14       2.9674    -1.6587   -12.2447  C.3     1  <O>11      -0.0486
  19 C15       3.2647    -0.1781   -12.0102  C.3     1  <O>11      -0.0222
  20 C16       2.8883    -0.5352    -5.9413  C.ar    1  <O>11      -0.0461
  21 N3        1.0300     1.5280    -3.6100  N.am    1  <O>11      -0.2945
  22 C17       2.0762     1.9226    -2.6612  C.3     1  <O>11       0.0308
  23 C18       1.5733     1.7815    -1.2078  C.3     1  <O>11       0.0294
  24 N4        0.2620     2.5482    -1.0164  N.pl3   1  <O>11      -0.3122
  25 C19       0.1007     3.5223     0.0341  C.ar    1  <O>11       0.1213
  26 C20       0.7736     3.3312     1.2691  C.ar    1  <O>11      -0.0217
  27 C21       0.6209     4.2822     2.2754  C.ar    1  <O>11      -0.0571
  28 C22      -0.2151     5.3792     2.0312  C.ar    1  <O>11      -0.0435
  29 C23      -0.8465     5.5027     0.7937  C.ar    1  <O>11       0.0297
  30 N5       -0.6834     4.5926    -0.1785  N.ar    1  <O>11      -0.2403
  31 C24      -0.7910     2.1449    -2.0524  C.3     1  <O>11       0.0294
  32 C25      -0.2067     2.2954    -3.4660  C.3     1  <O>11       0.0308
  33 H1        4.1887    -2.5382    -7.7083  H       1  <O>11       0.0377
  34 H2        5.7034    -1.6860    -7.3269  H       1  <O>11       0.0377
  35 H3        3.8821     2.7460    -8.5208  H       1  <O>11       0.1921
  36 H4        4.8912    -2.7662    -9.6327  H       1  <O>11       0.0314
  37 H5        3.1104    -2.7953    -9.6538  H       1  <O>11       0.0314
  38 H6        5.0041    -2.2660   -11.9599  H       1  <O>11       0.0268
  39 H7        3.8116    -3.5770   -11.7884  H       1  <O>11       0.0268
  40 H8        2.9685    -1.8589   -13.3162  H       1  <O>11       0.0269
  41 H9        1.9881    -1.8972   -11.8307  H       1  <O>11       0.0269
  42 H10       4.1092     0.1068   -12.6380  H       1  <O>11       0.0315
  43 H11       2.3850     0.3981   -12.2989  H       1  <O>11       0.0315
  44 H12       2.9477     1.2836    -2.8022  H       1  <O>11       0.0480
  45 H13       2.3535     2.9613    -2.8451  H       1  <O>11       0.0480
  46 H14       1.4071     0.7273    -0.9867  H       1  <O>11       0.0480
  47 H15       2.3250     2.1821    -0.5280  H       1  <O>11       0.0480
  48 H16      -1.0811     1.1069    -1.8892  H       1  <O>11       0.0480
  49 H17      -1.6644     2.7880    -1.9511  H       1  <O>11       0.0480
  50 H18      -0.9345     1.9349    -4.1924  H       1  <O>11       0.0480
  51 H19       0.0043     3.3482    -3.6533  H       1  <O>11       0.0480
  52 H20       2.7314    -0.3513    -2.5897  H       1  <O>11       0.0625
  53 H21       4.8136    -1.5789    -2.7978  H       1  <O>11       0.0618
  54 H22       5.6826    -2.1490    -4.9959  H       1  <O>11       0.0620
  55 H23       2.3702    -0.2615    -6.7909  H       1  <O>11       0.0628
  56 H24       1.3670     2.5003     1.4192  H       1  <O>11       0.0652
  57 H25       1.1113     4.1812     3.1778  H       1  <O>11       0.0619
  58 H26      -0.3632     6.0919     2.7627  H       1  <O>11       0.0633
  59 H27      -1.4562     6.3172     0.6210  H       1  <O>11       0.0830
@<TRIPOS>BOND
     1     1     2    2
     2     2     3    1
     3     3     4   ar
     4     4     5   ar
     5     5     6   ar
     6     6     7   ar
     7     7     8    1
     8     8     9    1
     9     9    10   ar
    10    10    11   ar
    11    11    12   ar
    12    12    13    2
    13    12    14   ar
    14    14    15   ar
    15     9    15   ar
    16    15    16    1
    17    16    17    1
    18    17    18    1
    19    18    19    1
    20    14    19    1
    21     7    20   ar
    22     3    20   ar
    23     2    21   am
    24    21    22    1
    25    22    23    1
    26    23    24    1
    27    24    25    1
    28    25    26   ar
    29    26    27   ar
    30    27    28   ar
    31    28    29   ar
    32    29    30   ar
    33    25    30   ar
    34    24    31    1
    35    31    32    1
    36    21    32    1
    37     8    33    1
    38     8    34    1
    39    11    35    1
    40    16    36    1
    41    16    37    1
    42    17    38    1
    43    17    39    1
    44    18    40    1
    45    18    41    1
    46    19    42    1
    47    19    43    1
    48    22    44    1
    49    22    45    1
    50    23    46    1
    51    23    47    1
    52    31    48    1
    53    31    49    1
    54    32    50    1
    55    32    51    1
    56     4    52    1
    57     5    53    1
    58     6    54    1
    59    20    55    1
    60    26    56    1
    61    27    57    1
    62    28    58    1
    63    29    59    1
@<TRIPOS>MOLECULE
mol98_1_17
 59 63 0 0 0
SMALL
USER_CHARGES
****
VDW energy = -76.32
@<TRIPOS>ATOM
   1 O1        0.2060     0.3063    -5.2918  O.2     1  <O>11      -0.2700
   2 C1        1.1449     0.5535    -4.5497  C.2     1  <O>11       0.2467
   3 C2        2.3880    -0.1970    -4.6730  C.ar    1  <O>11       0.0372
   4 C3        3.0970    -0.5882    -3.5253  C.ar    1  <O>11      -0.0496
   5 C4        4.2962    -1.2974    -3.6452  C.ar    1  <O>11      -0.0608
   6 C5        4.7970    -1.6266    -4.9073  C.ar    1  <O>11      -0.0582
   7 C6        4.0869    -1.2416    -6.0512  C.ar    1  <O>11      -0.0408
   8 C7        4.6188    -1.5916    -7.3830  C.3     1  <O>11       0.0168
   9 C8        5.9602    -0.9776    -7.5580  C.ar    1  <O>11       0.0693
  10 N1        6.8187    -0.8625    -6.4703  N.ar    1  <O>11      -0.1753
  11 N2        8.0468    -0.3047    -6.6211  N.ar    1  <O>11      -0.2427
  12 C9        8.4292     0.1498    -7.8335  C.ar    1  <O>11       0.2682
  13 O2        9.7215     0.7006    -7.9281  O.2     1  <O>11      -0.2661
  14 C10       7.6140     0.0925    -8.9613  C.ar    1  <O>11       0.0232
  15 C11       6.3565    -0.5159    -8.8102  C.ar    1  <O>11      -0.0158
  16 C12       5.3802    -0.6372    -9.9491  C.3     1  <O>11      -0.0255
  17 C13       6.0287    -0.4439   -11.3185  C.3     1  <O>11      -0.0487
  18 C14       6.9236     0.7865   -11.3074  C.3     1  <O>11      -0.0486
  19 C15       8.0619     0.6139   -10.3024  C.3     1  <O>11      -0.0222
  20 C16       2.8883    -0.5352    -5.9413  C.ar    1  <O>11      -0.0461
  21 N3        1.0300     1.5280    -3.6100  N.am    1  <O>11      -0.2945
  22 C17       2.0762     1.9226    -2.6612  C.3     1  <O>11       0.0308
  23 C18       1.5733     1.7815    -1.2078  C.3     1  <O>11       0.0294
  24 N4        0.2620     2.5482    -1.0164  N.pl3   1  <O>11      -0.3122
  25 C19       0.1007     3.5223     0.0341  C.ar    1  <O>11       0.1213
  26 C20       0.7736     3.3312     1.2691  C.ar    1  <O>11      -0.0217
  27 C21       0.6209     4.2822     2.2754  C.ar    1  <O>11      -0.0571
  28 C22      -0.2151     5.3792     2.0312  C.ar    1  <O>11      -0.0435
  29 C23      -0.8465     5.5027     0.7937  C.ar    1  <O>11       0.0297
  30 N5       -0.6834     4.5926    -0.1785  N.ar    1  <O>11      -0.2403
  31 C24      -0.7910     2.1449    -2.0524  C.3     1  <O>11       0.0294
  32 C25      -0.2067     2.2954    -3.4660  C.3     1  <O>11       0.0308
  33 H1        3.9445    -1.2181    -8.1529  H       1  <O>11       0.0377
  34 H2        4.7010    -2.6754    -7.4672  H       1  <O>11       0.0377
  35 H3        8.6664    -0.2318    -5.8273  H       1  <O>11       0.1921
  36 H4        4.9294    -1.6297    -9.9162  H       1  <O>11       0.0314
  37 H5        4.6048     0.1192    -9.8229  H       1  <O>11       0.0314
  38 H6        6.6274    -1.3223   -11.5596  H       1  <O>11       0.0268
  39 H7        5.2499    -0.3166   -12.0709  H       1  <O>11       0.0268
  40 H8        7.3435     0.9326   -12.3026  H       1  <O>11       0.0269
  41 H9        6.3307     1.6579   -11.0307  H       1  <O>11       0.0269
  42 H10       8.7857    -0.0866   -10.7194  H       1  <O>11       0.0315
  43 H11       8.5375     1.5839   -10.1532  H       1  <O>11       0.0315
  44 H12       2.9477     1.2836    -2.8022  H       1  <O>11       0.0480
  45 H13       2.3535     2.9613    -2.8451  H       1  <O>11       0.0480
  46 H14       1.4071     0.7273    -0.9867  H       1  <O>11       0.0480
  47 H15       2.3250     2.1821    -0.5280  H       1  <O>11       0.0480
  48 H16      -1.0811     1.1069    -1.8892  H       1  <O>11       0.0480
  49 H17      -1.6644     2.7880    -1.9511  H       1  <O>11       0.0480
  50 H18      -0.9345     1.9349    -4.1924  H       1  <O>11       0.0480
  51 H19       0.0043     3.3482    -3.6533  H       1  <O>11       0.0480
  52 H20       2.7314    -0.3513    -2.5897  H       1  <O>11       0.0625
  53 H21       4.8136    -1.5789    -2.7978  H       1  <O>11       0.0618
  54 H22       5.6826    -2.1490    -4.9959  H       1  <O>11       0.0620
  55 H23       2.3702    -0.2615    -6.7909  H       1  <O>11       0.0628
  56 H24       1.3670     2.5003     1.4192  H       1  <O>11       0.0652
  57 H25       1.1113     4.1812     3.1778  H       1  <O>11       0.0619
  58 H26      -0.3632     6.0919     2.7627  H       1  <O>11       0.0633
  59 H27      -1.4562     6.3172     0.6210  H       1  <O>11       0.0830
@<TRIPOS>BOND
     1     1     2    2
     2     2     3    1
     3     3     4   ar
     4     4     5   ar
     5     5     6   ar
     6     6     7   ar
     7     7     8    1
     8     8     9    1
     9     9    10   ar
    10    10    11   ar
    11    11    12   ar
    12    12    13    2
    13    12    14   ar
    14    14    15   ar
    15     9    15   ar
    16    15    16    1
    17    16    17    1
    18    17    18    1
    19    18    19    1
    20    14    19    1
    21     7    20   ar
    22     3    20   ar
    23     2    21   am
    24    21    22    1
    25    22    23    1
    26    23    24    1
    27    24    25    1
    28    25    26   ar
    29    26    27   ar
    30    27    28   ar
    31    28    29   ar
    32    29    30   ar
    33    25    30   ar
    34    24    31    1
    35    31    32    1
    36    21    32    1
    37     8    33    1
    38     8    34    1
    39    11    35    1
    40    16    36    1
    41    16    37    1
    42    17    38    1
    43    17    39    1
    44    18    40    1
    45    18    41    1
    46    19    42    1
    47    19    43    1
    48    22    44    1
    49    22    45    1
    50    23    46    1
    51    23    47    1
    52    31    48    1
    53    31    49    1
    54    32    50    1
    55    32    51    1
    56     4    52    1
    57     5    53    1
    58     6    54    1
    59    20    55    1
    60    26    56    1
    61    27    57    1
    62    28    58    1
    63    29    59    1
@<TRIPOS>MOLECULE
mol98_1_18
 59 63 0 0 0
SMALL
USER_CHARGES
****
VDW energy = -76.01
@<TRIPOS>ATOM
   1 O1        0.2060     0.3063    -5.2918  O.2     1  <O>11      -0.2700
   2 C1        1.1449     0.5535    -4.5497  C.2     1  <O>11       0.2467
   3 C2        2.3880    -0.1970    -4.6730  C.ar    1  <O>11       0.0372
   4 C3        3.6255     0.4543    -4.5417  C.ar    1  <O>11      -0.0496
   5 C4        4.8178    -0.2646    -4.6728  C.ar    1  <O>11      -0.0608
   6 C5        4.7881    -1.6375    -4.9310  C.ar    1  <O>11      -0.0582
   7 C6        3.5541    -2.2875    -5.0559  C.ar    1  <O>11      -0.0408
   8 C7        3.5267    -3.7381    -5.3282  C.3     1  <O>11       0.0168
   9 C8        2.3449    -4.0625    -6.1679  C.ar    1  <O>11       0.0693
  10 N1        2.4500    -4.0382    -7.5541  N.ar    1  <O>11      -0.1753
  11 N2        1.3762    -4.3351    -8.3293  N.ar    1  <O>11      -0.2427
  12 C9        0.1979    -4.6446    -7.7474  C.ar    1  <O>11       0.2682
  13 O2       -0.8723    -4.9607    -8.6059  O.2     1  <O>11      -0.2661
  14 C10       0.0106    -4.6633    -6.3674  C.ar    1  <O>11       0.0232
  15 C11       1.1322    -4.3888    -5.5668  C.ar    1  <O>11      -0.0158
  16 C12       1.0624    -4.3730    -4.0636  C.3     1  <O>11      -0.0255
  17 C13      -0.1737    -5.0818    -3.5129  C.3     1  <O>11      -0.0487
  18 C14      -1.4171    -4.6301    -4.2644  C.3     1  <O>11      -0.0486
  19 C15      -1.3174    -5.0051    -5.7425  C.3     1  <O>11      -0.0222
  20 C16       2.3591    -1.5786    -4.9249  C.ar    1  <O>11      -0.0461
  21 N3        1.0300     1.5280    -3.6100  N.am    1  <O>11      -0.2945
  22 C17       2.0762     1.9226    -2.6612  C.3     1  <O>11       0.0308
  23 C18       1.5733     1.7815    -1.2078  C.3     1  <O>11       0.0294
  24 N4        0.2620     2.5482    -1.0164  N.pl3   1  <O>11      -0.3122
  25 C19       0.1007     3.5223     0.0341  C.ar    1  <O>11       0.1213
  26 C20       0.4296     4.8796    -0.2196  C.ar    1  <O>11      -0.0217
  27 C21       0.2611     5.8166     0.7972  C.ar    1  <O>11      -0.0571
  28 C22      -0.2048     5.3707     2.0406  C.ar    1  <O>11      -0.0435
  29 C23      -0.5076     4.0211     2.2198  C.ar    1  <O>11       0.0297
  30 N5       -0.3592     3.1249     1.2324  N.ar    1  <O>11      -0.2403
  31 C24      -0.7910     2.1449    -2.0524  C.3     1  <O>11       0.0294
  32 C25      -0.2067     2.2954    -3.4660  C.3     1  <O>11       0.0308
  33 H1        3.4647    -4.2831    -4.3869  H       1  <O>11       0.0377
  34 H2        4.4370    -4.0255    -5.8547  H       1  <O>11       0.0377
  35 H3        1.4636    -4.3220    -9.3351  H       1  <O>11       0.1921
  36 H4        1.9503    -4.8683    -3.6691  H       1  <O>11       0.0314
  37 H5        1.0450    -3.3355    -3.7283  H       1  <O>11       0.0314
  38 H6       -0.0529    -6.1586    -3.6312  H       1  <O>11       0.0268
  39 H7       -0.2847    -4.8421    -2.4550  H       1  <O>11       0.0268
  40 H8       -2.2927    -5.1131    -3.8305  H       1  <O>11       0.0269
  41 H9       -1.5162    -3.5486    -4.1752  H       1  <O>11       0.0269
  42 H10      -1.4752    -6.0796    -5.8362  H       1  <O>11       0.0315
  43 H11      -2.1000    -4.4731    -6.2847  H       1  <O>11       0.0315
  44 H12       2.9477     1.2836    -2.8022  H       1  <O>11       0.0480
  45 H13       2.3535     2.9613    -2.8451  H       1  <O>11       0.0480
  46 H14       1.4071     0.7273    -0.9867  H       1  <O>11       0.0480
  47 H15       2.3250     2.1821    -0.5280  H       1  <O>11       0.0480
  48 H16      -1.0811     1.1069    -1.8892  H       1  <O>11       0.0480
  49 H17      -1.6644     2.7880    -1.9511  H       1  <O>11       0.0480
  50 H18      -0.9345     1.9349    -4.1924  H       1  <O>11       0.0480
  51 H19       0.0043     3.3482    -3.6533  H       1  <O>11       0.0480
  52 H20       3.6550     1.4675    -4.3478  H       1  <O>11       0.0625
  53 H21       5.7235     0.2208    -4.5783  H       1  <O>11       0.0618
  54 H22       5.6680    -2.1678    -5.0288  H       1  <O>11       0.0620
  55 H23       1.4553    -2.0690    -5.0131  H       1  <O>11       0.0628
  56 H24       0.7882     5.1678    -1.1434  H       1  <O>11       0.0652
  57 H25       0.4741     6.8138     0.6385  H       1  <O>11       0.0619
  58 H26      -0.3234     6.0369     2.8197  H       1  <O>11       0.0633
  59 H27      -0.8554     3.7028     3.1378  H       1  <O>11       0.0830
@<TRIPOS>BOND
     1     1     2    2
     2     2     3    1
     3     3     4   ar
     4     4     5   ar
     5     5     6   ar
     6     6     7   ar
     7     7     8    1
     8     8     9    1
     9     9    10   ar
    10    10    11   ar
    11    11    12   ar
    12    12    13    2
    13    12    14   ar
    14    14    15   ar
    15     9    15   ar
    16    15    16    1
    17    16    17    1
    18    17    18    1
    19    18    19    1
    20    14    19    1
    21     7    20   ar
    22     3    20   ar
    23     2    21   am
    24    21    22    1
    25    22    23    1
    26    23    24    1
    27    24    25    1
    28    25    26   ar
    29    26    27   ar
    30    27    28   ar
    31    28    29   ar
    32    29    30   ar
    33    25    30   ar
    34    24    31    1
    35    31    32    1
    36    21    32    1
    37     8    33    1
    38     8    34    1
    39    11    35    1
    40    16    36    1
    41    16    37    1
    42    17    38    1
    43    17    39    1
    44    18    40    1
    45    18    41    1
    46    19    42    1
    47    19    43    1
    48    22    44    1
    49    22    45    1
    50    23    46    1
    51    23    47    1
    52    31    48    1
    53    31    49    1
    54    32    50    1
    55    32    51    1
    56     4    52    1
    57     5    53    1
    58     6    54    1
    59    20    55    1
    60    26    56    1
    61    27    57    1
    62    28    58    1
    63    29    59    1
@<TRIPOS>MOLECULE
mol98_1_19
 59 63 0 0 0
SMALL
USER_CHARGES
****
VDW energy = -75.39
@<TRIPOS>ATOM
   1 O1        0.2060     0.3063    -5.2918  O.2     1  <O>11      -0.2700
   2 C1        1.1449     0.5535    -4.5497  C.2     1  <O>11       0.2467
   3 C2        2.3880    -0.1970    -4.6730  C.ar    1  <O>11       0.0372
   4 C3        3.0970    -0.5882    -3.5253  C.ar    1  <O>11      -0.0496
   5 C4        4.2962    -1.2974    -3.6452  C.ar    1  <O>11      -0.0608
   6 C5        4.7970    -1.6266    -4.9073  C.ar    1  <O>11      -0.0582
   7 C6        4.0869    -1.2416    -6.0512  C.ar    1  <O>11      -0.0408
   8 C7        4.6188    -1.5916    -7.3830  C.3     1  <O>11       0.0168
   9 C8        5.9602    -0.9776    -7.5580  C.ar    1  <O>11       0.0693
  10 N1        7.0994    -1.6763    -7.1741  N.ar    1  <O>11      -0.1753
  11 N2        8.3291    -1.1242    -7.3320  N.ar    1  <O>11      -0.2427
  12 C9        8.4422     0.1153    -7.8551  C.ar    1  <O>11       0.2682
  13 O2        9.7457     0.6242    -8.0101  O.2     1  <O>11      -0.2661
  14 C10       7.3459     0.8846    -8.2373  C.ar    1  <O>11       0.0232
  15 C11       6.0762     0.2977    -8.1044  C.ar    1  <O>11      -0.0158
  16 C12       4.8119     1.0239    -8.4771  C.3     1  <O>11      -0.0255
  17 C13       5.0573     2.2305    -9.3811  C.3     1  <O>11      -0.0487
  18 C14       6.1994     3.0737    -8.8338  C.3     1  <O>11      -0.0486
  19 C15       7.4986     2.2693    -8.8121  C.3     1  <O>11      -0.0222
  20 C16       2.8883    -0.5352    -5.9413  C.ar    1  <O>11      -0.0461
  21 N3        1.0300     1.5280    -3.6100  N.am    1  <O>11      -0.2945
  22 C17      -0.1601     2.3538    -3.3819  C.3     1  <O>11       0.0308
  23 C18       0.1827     3.8529    -3.5259  C.3     1  <O>11       0.0294
  24 N4        1.3598     4.2241    -2.6201  N.pl3   1  <O>11      -0.3122
  25 C19       1.2778     5.3141    -1.6801  C.ar    1  <O>11       0.1213
  26 C20       1.6578     6.6180    -2.0924  C.ar    1  <O>11      -0.0217
  27 C21       1.5659     7.6678    -1.1814  C.ar    1  <O>11      -0.0571
  28 C22       1.1233     7.3837     0.1168  C.ar    1  <O>11      -0.0435
  29 C23       0.7671     6.0779     0.4534  C.ar    1  <O>11       0.0297
  30 N5        0.8418     5.0729    -0.4322  N.ar    1  <O>11      -0.2403
  31 C24       2.5679     3.3122    -2.8522  C.3     1  <O>11       0.0294
  32 C25       2.1391     1.8432    -2.7102  C.3     1  <O>11       0.0308
  33 H1        3.9445    -1.2181    -8.1529  H       1  <O>11       0.0377
  34 H2        4.7010    -2.6754    -7.4672  H       1  <O>11       0.0377
  35 H3        9.1513    -1.6418    -7.0572  H       1  <O>11       0.1921
  36 H4        4.1526     0.3289    -8.9983  H       1  <O>11       0.0314
  37 H5        4.3278     1.3687    -7.5628  H       1  <O>11       0.0314
  38 H6        5.3138     1.8833   -10.3820  H       1  <O>11       0.0268
  39 H7        4.1518     2.8361    -9.4269  H       1  <O>11       0.0268
  40 H8        6.3318     3.9510    -9.4670  H       1  <O>11       0.0269
  41 H9        5.9569     3.3898    -7.8196  H       1  <O>11       0.0269
  42 H10       7.8642     2.1785    -9.8351  H       1  <O>11       0.0315
  43 H11       8.2284     2.8129    -8.2110  H       1  <O>11       0.0315
  44 H12      -0.9251     2.0897    -4.1117  H       1  <O>11       0.0480
  45 H13      -0.5379     2.1678    -2.3758  H       1  <O>11       0.0480
  46 H14       0.4485     4.0619    -4.5620  H       1  <O>11       0.0480
  47 H15      -0.6863     4.4478    -3.2458  H       1  <O>11       0.0480
  48 H16       2.9607     3.4792    -3.8553  H       1  <O>11       0.0480
  49 H17       3.3389     3.5373    -2.1163  H       1  <O>11       0.0480
  50 H18       2.9851     1.2003    -2.9513  H       1  <O>11       0.0480
  51 H19       1.8252     1.6621    -1.6821  H       1  <O>11       0.0480
  52 H20       2.7314    -0.3513    -2.5897  H       1  <O>11       0.0625
  53 H21       4.8136    -1.5789    -2.7978  H       1  <O>11       0.0618
  54 H22       5.6826    -2.1490    -4.9959  H       1  <O>11       0.0620
  55 H23       2.3702    -0.2615    -6.7909  H       1  <O>11       0.0628
  56 H24       1.9971     6.7857    -3.0524  H       1  <O>11       0.0652
  57 H25       1.8175     8.6303    -1.4560  H       1  <O>11       0.0619
  58 H26       1.0610     8.1362     0.8202  H       1  <O>11       0.0633
  59 H27       0.4369     5.8792     1.4107  H       1  <O>11       0.0830
@<TRIPOS>BOND
     1     1     2    2
     2     2     3    1
     3     3     4   ar
     4     4     5   ar
     5     5     6   ar
     6     6     7   ar
     7     7     8    1
     8     8     9    1
     9     9    10   ar
    10    10    11   ar
    11    11    12   ar
    12    12    13    2
    13    12    14   ar
    14    14    15   ar
    15     9    15   ar
    16    15    16    1
    17    16    17    1
    18    17    18    1
    19    18    19    1
    20    14    19    1
    21     7    20   ar
    22     3    20   ar
    23     2    21   am
    24    21    22    1
    25    22    23    1
    26    23    24    1
    27    24    25    1
    28    25    26   ar
    29    26    27   ar
    30    27    28   ar
    31    28    29   ar
    32    29    30   ar
    33    25    30   ar
    34    24    31    1
    35    31    32    1
    36    21    32    1
    37     8    33    1
    38     8    34    1
    39    11    35    1
    40    16    36    1
    41    16    37    1
    42    17    38    1
    43    17    39    1
    44    18    40    1
    45    18    41    1
    46    19    42    1
    47    19    43    1
    48    22    44    1
    49    22    45    1
    50    23    46    1
    51    23    47    1
    52    31    48    1
    53    31    49    1
    54    32    50    1
    55    32    51    1
    56     4    52    1
    57     5    53    1
    58     6    54    1
    59    20    55    1
    60    26    56    1
    61    27    57    1
    62    28    58    1
    63    29    59    1
@<TRIPOS>MOLECULE
mol98_1_20
 59 63 0 0 0
SMALL
USER_CHARGES
****
VDW energy = -74.71
@<TRIPOS>ATOM
   1 O1        0.2060     0.3063    -5.2918  O.2     1  <O>11      -0.2700
   2 C1        1.1449     0.5535    -4.5497  C.2     1  <O>11       0.2467
   3 C2        2.3880    -0.1970    -4.6730  C.ar    1  <O>11       0.0372
   4 C3        3.0970    -0.5882    -3.5253  C.ar    1  <O>11      -0.0496
   5 C4        4.2962    -1.2974    -3.6452  C.ar    1  <O>11      -0.0608
   6 C5        4.7970    -1.6266    -4.9073  C.ar    1  <O>11      -0.0582
   7 C6        4.0869    -1.2416    -6.0512  C.ar    1  <O>11      -0.0408
   8 C7        4.6188    -1.5916    -7.3830  C.3     1  <O>11       0.0168
   9 C8        4.7317    -3.0683    -7.4991  C.ar    1  <O>11       0.0693
  10 N1        3.7911    -3.8874    -6.8844  N.ar    1  <O>11      -0.1753
  11 N2        3.8850    -5.2375    -6.9867  N.ar    1  <O>11      -0.2427
  12 C9        4.9053    -5.7850    -7.6810  C.ar    1  <O>11       0.2682
  13 O2        4.9361    -7.1900    -7.7653  O.2     1  <O>11      -0.2661
  14 C10       5.8983    -5.0297    -8.3002  C.ar    1  <O>11       0.0232
  15 C11       5.7800    -3.6318    -8.2215  C.ar    1  <O>11      -0.0158
  16 C12       6.7880    -2.7035    -8.8436  C.3     1  <O>11      -0.0255
  17 C13       7.6653    -3.3858    -9.8916  C.3     1  <O>11      -0.0487
  18 C14       8.1881    -4.7110    -9.3573  C.3     1  <O>11      -0.0486
  19 C15       7.0314    -5.6657    -9.0634  C.3     1  <O>11      -0.0222
  20 C16       2.8883    -0.5352    -5.9413  C.ar    1  <O>11      -0.0461
  21 N3        1.0300     1.5280    -3.6100  N.am    1  <O>11      -0.2945
  22 C17      -0.1600     2.3540    -3.3820  C.3     1  <O>11       0.0308
  23 C18       0.1830     3.8530    -3.5260  C.3     1  <O>11       0.0294
  24 N4        1.3600     4.2240    -2.6200  N.pl3   1  <O>11      -0.3122
  25 C19       1.2780     5.3140    -1.6800  C.ar    1  <O>11       0.1213
  26 C20       1.3317     5.0381    -0.2887  C.ar    1  <O>11      -0.0217
  27 C21       1.2624     6.0975     0.6130  C.ar    1  <O>11      -0.0571
  28 C22       1.1166     7.3943     0.1039  C.ar    1  <O>11      -0.0435
  29 C23       1.0696     7.5920    -1.2759  C.ar    1  <O>11       0.0297
  30 N5        1.1533     6.5700    -2.1410  N.ar    1  <O>11      -0.2403
  31 C24       2.5680     3.3120    -2.8520  C.3     1  <O>11       0.0294
  32 C25       2.1390     1.8430    -2.7100  C.3     1  <O>11       0.0308
  33 H1        5.6021    -1.1405    -7.5113  H       1  <O>11       0.0377
  34 H2        3.9442    -1.2166    -8.1529  H       1  <O>11       0.0377
  35 H3        3.1934    -5.8243    -6.5432  H       1  <O>11       0.1921
  36 H4        6.2546    -1.8807    -9.3209  H       1  <O>11       0.0314
  37 H5        7.4313    -2.3116    -8.0551  H       1  <O>11       0.0314
  38 H6        7.0760    -3.5674   -10.7904  H       1  <O>11       0.0268
  39 H7        8.5076    -2.7371   -10.1336  H       1  <O>11       0.0268
  40 H8        8.8450    -5.1624   -10.1008  H       1  <O>11       0.0269
  41 H9        8.7464    -4.5315    -8.4390  H       1  <O>11       0.0269
  42 H10       6.6419    -6.0364   -10.0116  H       1  <O>11       0.0315
  43 H11       7.4165    -6.5001    -8.4761  H       1  <O>11       0.0315
  44 H12      -0.9250     2.0900    -4.1120  H       1  <O>11       0.0480
  45 H13      -0.5380     2.1680    -2.3760  H       1  <O>11       0.0480
  46 H14       0.4490     4.0620    -4.5620  H       1  <O>11       0.0480
  47 H15      -0.6860     4.4480    -3.2460  H       1  <O>11       0.0480
  48 H16       2.9610     3.4790    -3.8550  H       1  <O>11       0.0480
  49 H17       3.3390     3.5370    -2.1160  H       1  <O>11       0.0480
  50 H18       2.9850     1.2000    -2.9510  H       1  <O>11       0.0480
  51 H19       1.8250     1.6620    -1.6820  H       1  <O>11       0.0480
  52 H20       2.7314    -0.3513    -2.5897  H       1  <O>11       0.0625
  53 H21       4.8136    -1.5789    -2.7978  H       1  <O>11       0.0618
  54 H22       5.6826    -2.1490    -4.9959  H       1  <O>11       0.0620
  55 H23       2.3702    -0.2615    -6.7909  H       1  <O>11       0.0628
  56 H24       1.4209     4.0672     0.0496  H       1  <O>11       0.0652
  57 H25       1.3170     5.9313     1.6300  H       1  <O>11       0.0619
  58 H26       1.0444     8.1988     0.7461  H       1  <O>11       0.0633
  59 H27       0.9676     8.5516    -1.6418  H       1  <O>11       0.0830
@<TRIPOS>BOND
     1     1     2    2
     2     2     3    1
     3     3     4   ar
     4     4     5   ar
     5     5     6   ar
     6     6     7   ar
     7     7     8    1
     8     8     9    1
     9     9    10   ar
    10    10    11   ar
    11    11    12   ar
    12    12    13    2
    13    12    14   ar
    14    14    15   ar
    15     9    15   ar
    16    15    16    1
    17    16    17    1
    18    17    18    1
    19    18    19    1
    20    14    19    1
    21     7    20   ar
    22     3    20   ar
    23     2    21   am
    24    21    22    1
    25    22    23    1
    26    23    24    1
    27    24    25    1
    28    25    26   ar
    29    26    27   ar
    30    27    28   ar
    31    28    29   ar
    32    29    30   ar
    33    25    30   ar
    34    24    31    1
    35    31    32    1
    36    21    32    1
    37     8    33    1
    38     8    34    1
    39    11    35    1
    40    16    36    1
    41    16    37    1
    42    17    38    1
    43    17    39    1
    44    18    40    1
    45    18    41    1
    46    19    42    1
    47    19    43    1
    48    22    44    1
    49    22    45    1
    50    23    46    1
    51    23    47    1
    52    31    48    1
    53    31    49    1
    54    32    50    1
    55    32    51    1
    56     4    52    1
    57     5    53    1
    58     6    54    1
    59    20    55    1
    60    26    56    1
    61    27    57    1
    62    28    58    1
    63    29    59    1
@<TRIPOS>MOLECULE
mol98_1_21
 59 63 0 0 0
SMALL
USER_CHARGES
****
VDW energy = -74.10
@<TRIPOS>ATOM
   1 O1        0.2060     0.3063    -5.2918  O.2     1  <O>11      -0.2700
   2 C1        1.1449     0.5535    -4.5497  C.2     1  <O>11       0.2467
   3 C2        2.3880    -0.1970    -4.6730  C.ar    1  <O>11       0.0372
   4 C3        3.0970    -0.5882    -3.5253  C.ar    1  <O>11      -0.0496
   5 C4        4.2962    -1.2974    -3.6452  C.ar    1  <O>11      -0.0608
   6 C5        4.7970    -1.6266    -4.9073  C.ar    1  <O>11      -0.0582
   7 C6        4.0869    -1.2416    -6.0512  C.ar    1  <O>11      -0.0408
   8 C7        4.6188    -1.5916    -7.3830  C.3     1  <O>11       0.0168
   9 C8        5.5067    -0.5021    -7.8641  C.ar    1  <O>11       0.0693
  10 N1        6.2934     0.2031    -6.9602  N.ar    1  <O>11      -0.1753
  11 N2        7.1090     1.1988    -7.3908  N.ar    1  <O>11      -0.2427
  12 C9        7.1457     1.5108    -8.7039  C.ar    1  <O>11       0.2682
  13 O2        8.0254     2.5403    -9.0890  O.2     1  <O>11      -0.2661
  14 C10       6.3674     0.8668    -9.6627  C.ar    1  <O>11       0.0232
  15 C11       5.5493    -0.1860    -9.2193  C.ar    1  <O>11      -0.0158
  16 C12       4.6575    -0.9590   -10.1531  C.3     1  <O>11      -0.0255
  17 C13       5.0383    -0.7910   -11.6229  C.3     1  <O>11      -0.0487
  18 C14       5.2605     0.6795   -11.9435  C.3     1  <O>11      -0.0486
  19 C15       6.4214     1.2391   -11.1220  C.3     1  <O>11      -0.0222
  20 C16       2.8883    -0.5352    -5.9413  C.ar    1  <O>11      -0.0461
  21 N3        1.0300     1.5280    -3.6100  N.am    1  <O>11      -0.2945
  22 C17      -0.1601     2.3538    -3.3819  C.3     1  <O>11       0.0308
  23 C18       0.1827     3.8529    -3.5259  C.3     1  <O>11       0.0294
  24 N4        1.3598     4.2241    -2.6201  N.pl3   1  <O>11      -0.3122
  25 C19       1.2778     5.3141    -1.6801  C.ar    1  <O>11       0.1213
  26 C20       0.4932     6.4523    -2.0018  C.ar    1  <O>11      -0.0217
  27 C21       0.4106     7.4968    -1.0839  C.ar    1  <O>11      -0.0571
  28 C22       1.1302     7.3876     0.1128  C.ar    1  <O>11      -0.0435
  29 C23       1.8822     6.2400     0.3628  C.ar    1  <O>11       0.0297
  30 N5        1.9457     5.2293    -0.5173  N.ar    1  <O>11      -0.2403
  31 C24       2.5679     3.3122    -2.8522  C.3     1  <O>11       0.0294
  32 C25       2.1391     1.8432    -2.7102  C.3     1  <O>11       0.0308
  33 H1        3.7926    -1.7226    -8.0809  H       1  <O>11       0.0377
  34 H2        5.1863    -2.5198    -7.3142  H       1  <O>11       0.0377
  35 H3        7.6822     1.7007    -6.7283  H       1  <O>11       0.1921
  36 H4        4.7207    -2.0173    -9.8976  H       1  <O>11       0.0314
  37 H5        3.6321    -0.6128   -10.0190  H       1  <O>11       0.0314
  38 H6        5.9553    -1.3455   -11.8220  H       1  <O>11       0.0268
  39 H7        4.2349    -1.1793   -12.2495  H       1  <O>11       0.0268
  40 H8        5.4892     0.7840   -13.0041  H       1  <O>11       0.0269
  41 H9        4.3545     1.2379   -11.7096  H       1  <O>11       0.0269
  42 H10       7.3535     0.8583   -11.5398  H       1  <O>11       0.0315
  43 H11       6.4040     2.3267   -11.2006  H       1  <O>11       0.0315
  44 H12      -0.9251     2.0897    -4.1117  H       1  <O>11       0.0480
  45 H13      -0.5379     2.1678    -2.3758  H       1  <O>11       0.0480
  46 H14       0.4485     4.0619    -4.5620  H       1  <O>11       0.0480
  47 H15      -0.6863     4.4478    -3.2458  H       1  <O>11       0.0480
  48 H16       2.9607     3.4792    -3.8553  H       1  <O>11       0.0480
  49 H17       3.3389     3.5373    -2.1163  H       1  <O>11       0.0480
  50 H18       2.9851     1.2003    -2.9513  H       1  <O>11       0.0480
  51 H19       1.8252     1.6621    -1.6821  H       1  <O>11       0.0480
  52 H20       2.7314    -0.3513    -2.5897  H       1  <O>11       0.0625
  53 H21       4.8136    -1.5789    -2.7978  H       1  <O>11       0.0618
  54 H22       5.6826    -2.1490    -4.9959  H       1  <O>11       0.0620
  55 H23       2.3702    -0.2615    -6.7909  H       1  <O>11       0.0628
  56 H24      -0.0085     6.5052    -2.9021  H       1  <O>11       0.0652
  57 H25      -0.1661     8.3298    -1.2806  H       1  <O>11       0.0619
  58 H26       1.1040     8.1520     0.8057  H       1  <O>11       0.0633
  59 H27       2.4047     6.1662     1.2497  H       1  <O>11       0.0830
@<TRIPOS>BOND
     1     1     2    2
     2     2     3    1
     3     3     4   ar
     4     4     5   ar
     5     5     6   ar
     6     6     7   ar
     7     7     8    1
     8     8     9    1
     9     9    10   ar
    10    10    11   ar
    11    11    12   ar
    12    12    13    2
    13    12    14   ar
    14    14    15   ar
    15     9    15   ar
    16    15    16    1
    17    16    17    1
    18    17    18    1
    19    18    19    1
    20    14    19    1
    21     7    20   ar
    22     3    20   ar
    23     2    21   am
    24    21    22    1
    25    22    23    1
    26    23    24    1
    27    24    25    1
    28    25    26   ar
    29    26    27   ar
    30    27    28   ar
    31    28    29   ar
    32    29    30   ar
    33    25    30   ar
    34    24    31    1
    35    31    32    1
    36    21    32    1
    37     8    33    1
    38     8    34    1
    39    11    35    1
    40    16    36    1
    41    16    37    1
    42    17    38    1
    43    17    39    1
    44    18    40    1
    45    18    41    1
    46    19    42    1
    47    19    43    1
    48    22    44    1
    49    22    45    1
    50    23    46    1
    51    23    47    1
    52    31    48    1
    53    31    49    1
    54    32    50    1
    55    32    51    1
    56     4    52    1
    57     5    53    1
    58     6    54    1
    59    20    55    1
    60    26    56    1
    61    27    57    1
    62    28    58    1
    63    29    59    1
@<TRIPOS>MOLECULE
mol98_1_22
 59 63 0 0 0
SMALL
USER_CHARGES
****
VDW energy = -73.79
@<TRIPOS>ATOM
   1 O1        0.2060     0.3063    -5.2918  O.2     1  <O>11      -0.2700
   2 C1        1.1449     0.5535    -4.5497  C.2     1  <O>11       0.2467
   3 C2        2.3880    -0.1970    -4.6730  C.ar    1  <O>11       0.0372
   4 C3        3.6255     0.4543    -4.5417  C.ar    1  <O>11      -0.0496
   5 C4        4.8178    -0.2646    -4.6728  C.ar    1  <O>11      -0.0608
   6 C5        4.7881    -1.6375    -4.9310  C.ar    1  <O>11      -0.0582
   7 C6        3.5541    -2.2875    -5.0559  C.ar    1  <O>11      -0.0408
   8 C7        3.5267    -3.7381    -5.3282  C.3     1  <O>11       0.0168
   9 C8        2.3449    -4.0625    -6.1679  C.ar    1  <O>11       0.0693
  10 N1        2.4500    -4.0382    -7.5541  N.ar    1  <O>11      -0.1753
  11 N2        1.3762    -4.3351    -8.3293  N.ar    1  <O>11      -0.2427
  12 C9        0.1979    -4.6446    -7.7474  C.ar    1  <O>11       0.2682
  13 O2       -0.8723    -4.9607    -8.6059  O.2     1  <O>11      -0.2661
  14 C10       0.0106    -4.6633    -6.3674  C.ar    1  <O>11       0.0232
  15 C11       1.1322    -4.3888    -5.5668  C.ar    1  <O>11      -0.0158
  16 C12       1.0624    -4.3730    -4.0636  C.3     1  <O>11      -0.0255
  17 C13      -0.1737    -5.0818    -3.5129  C.3     1  <O>11      -0.0487
  18 C14      -1.4171    -4.6301    -4.2644  C.3     1  <O>11      -0.0486
  19 C15      -1.3174    -5.0051    -5.7425  C.3     1  <O>11      -0.0222
  20 C16       2.3591    -1.5786    -4.9249  C.ar    1  <O>11      -0.0461
  21 N3        1.0300     1.5280    -3.6100  N.am    1  <O>11      -0.2945
  22 C17       2.0762     1.9226    -2.6612  C.3     1  <O>11       0.0308
  23 C18       1.5733     1.7815    -1.2078  C.3     1  <O>11       0.0294
  24 N4        0.2620     2.5482    -1.0164  N.pl3   1  <O>11      -0.3122
  25 C19       0.1007     3.5223     0.0341  C.ar    1  <O>11       0.1213
  26 C20       0.7736     3.3312     1.2691  C.ar    1  <O>11      -0.0217
  27 C21       0.6209     4.2822     2.2754  C.ar    1  <O>11      -0.0571
  28 C22      -0.2151     5.3792     2.0312  C.ar    1  <O>11      -0.0435
  29 C23      -0.8465     5.5027     0.7937  C.ar    1  <O>11       0.0297
  30 N5       -0.6834     4.5926    -0.1785  N.ar    1  <O>11      -0.2403
  31 C24      -0.7910     2.1449    -2.0524  C.3     1  <O>11       0.0294
  32 C25      -0.2067     2.2954    -3.4660  C.3     1  <O>11       0.0308
  33 H1        3.4647    -4.2831    -4.3869  H       1  <O>11       0.0377
  34 H2        4.4370    -4.0255    -5.8547  H       1  <O>11       0.0377
  35 H3        1.4636    -4.3220    -9.3351  H       1  <O>11       0.1921
  36 H4        1.9503    -4.8683    -3.6691  H       1  <O>11       0.0314
  37 H5        1.0450    -3.3355    -3.7283  H       1  <O>11       0.0314
  38 H6       -0.0529    -6.1586    -3.6312  H       1  <O>11       0.0268
  39 H7       -0.2847    -4.8421    -2.4550  H       1  <O>11       0.0268
  40 H8       -2.2927    -5.1131    -3.8305  H       1  <O>11       0.0269
  41 H9       -1.5162    -3.5486    -4.1752  H       1  <O>11       0.0269
  42 H10      -1.4752    -6.0796    -5.8362  H       1  <O>11       0.0315
  43 H11      -2.1000    -4.4731    -6.2847  H       1  <O>11       0.0315
  44 H12       2.9477     1.2836    -2.8022  H       1  <O>11       0.0480
  45 H13       2.3535     2.9613    -2.8451  H       1  <O>11       0.0480
  46 H14       1.4071     0.7273    -0.9867  H       1  <O>11       0.0480
  47 H15       2.3250     2.1821    -0.5280  H       1  <O>11       0.0480
  48 H16      -1.0811     1.1069    -1.8892  H       1  <O>11       0.0480
  49 H17      -1.6644     2.7880    -1.9511  H       1  <O>11       0.0480
  50 H18      -0.9345     1.9349    -4.1924  H       1  <O>11       0.0480
  51 H19       0.0043     3.3482    -3.6533  H       1  <O>11       0.0480
  52 H20       3.6550     1.4675    -4.3478  H       1  <O>11       0.0625
  53 H21       5.7235     0.2208    -4.5783  H       1  <O>11       0.0618
  54 H22       5.6680    -2.1678    -5.0288  H       1  <O>11       0.0620
  55 H23       1.4553    -2.0690    -5.0131  H       1  <O>11       0.0628
  56 H24       1.3670     2.5003     1.4192  H       1  <O>11       0.0652
  57 H25       1.1113     4.1812     3.1778  H       1  <O>11       0.0619
  58 H26      -0.3632     6.0919     2.7627  H       1  <O>11       0.0633
  59 H27      -1.4562     6.3172     0.6210  H       1  <O>11       0.0830
@<TRIPOS>BOND
     1     1     2    2
     2     2     3    1
     3     3     4   ar
     4     4     5   ar
     5     5     6   ar
     6     6     7   ar
     7     7     8    1
     8     8     9    1
     9     9    10   ar
    10    10    11   ar
    11    11    12   ar
    12    12    13    2
    13    12    14   ar
    14    14    15   ar
    15     9    15   ar
    16    15    16    1
    17    16    17    1
    18    17    18    1
    19    18    19    1
    20    14    19    1
    21     7    20   ar
    22     3    20   ar
    23     2    21   am
    24    21    22    1
    25    22    23    1
    26    23    24    1
    27    24    25    1
    28    25    26   ar
    29    26    27   ar
    30    27    28   ar
    31    28    29   ar
    32    29    30   ar
    33    25    30   ar
    34    24    31    1
    35    31    32    1
    36    21    32    1
    37     8    33    1
    38     8    34    1
    39    11    35    1
    40    16    36    1
    41    16    37    1
    42    17    38    1
    43    17    39    1
    44    18    40    1
    45    18    41    1
    46    19    42    1
    47    19    43    1
    48    22    44    1
    49    22    45    1
    50    23    46    1
    51    23    47    1
    52    31    48    1
    53    31    49    1
    54    32    50    1
    55    32    51    1
    56     4    52    1
    57     5    53    1
    58     6    54    1
    59    20    55    1
    60    26    56    1
    61    27    57    1
    62    28    58    1
    63    29    59    1
@<TRIPOS>MOLECULE
mol98_1_23
 59 63 0 0 0
SMALL
USER_CHARGES
****
VDW energy = -73.22
@<TRIPOS>ATOM
   1 O1        0.2060     0.3063    -5.2918  O.2     1  <O>11      -0.2700
   2 C1        1.1449     0.5535    -4.5497  C.2     1  <O>11       0.2467
   3 C2        2.3880    -0.1970    -4.6730  C.ar    1  <O>11       0.0372
   4 C3        3.0970    -0.5882    -3.5253  C.ar    1  <O>11      -0.0496
   5 C4        4.2962    -1.2974    -3.6452  C.ar    1  <O>11      -0.0608
   6 C5        4.7970    -1.6266    -4.9073  C.ar    1  <O>11      -0.0582
   7 C6        4.0869    -1.2416    -6.0512  C.ar    1  <O>11      -0.0408
   8 C7        4.6188    -1.5916    -7.3830  C.3     1  <O>11       0.0168
   9 C8        4.7317    -3.0683    -7.4991  C.ar    1  <O>11       0.0693
  10 N1        3.7911    -3.8874    -6.8844  N.ar    1  <O>11      -0.1753
  11 N2        3.8850    -5.2375    -6.9867  N.ar    1  <O>11      -0.2427
  12 C9        4.9053    -5.7850    -7.6810  C.ar    1  <O>11       0.2682
  13 O2        4.9361    -7.1900    -7.7653  O.2     1  <O>11      -0.2661
  14 C10       5.8983    -5.0297    -8.3002  C.ar    1  <O>11       0.0232
  15 C11       5.7800    -3.6318    -8.2215  C.ar    1  <O>11      -0.0158
  16 C12       6.7880    -2.7035    -8.8436  C.3     1  <O>11      -0.0255
  17 C13       7.6653    -3.3858    -9.8916  C.3     1  <O>11      -0.0487
  18 C14       8.1881    -4.7110    -9.3573  C.3     1  <O>11      -0.0486
  19 C15       7.0314    -5.6657    -9.0634  C.3     1  <O>11      -0.0222
  20 C16       2.8883    -0.5352    -5.9413  C.ar    1  <O>11      -0.0461
  21 N3        1.0300     1.5280    -3.6100  N.am    1  <O>11      -0.2945
  22 C17      -0.1600     2.3540    -3.3820  C.3     1  <O>11       0.0308
  23 C18       0.1830     3.8530    -3.5260  C.3     1  <O>11       0.0294
  24 N4        1.3600     4.2240    -2.6200  N.pl3   1  <O>11      -0.3122
  25 C19       1.2780     5.3140    -1.6800  C.ar    1  <O>11       0.1213
  26 C20       0.4936     6.4523    -2.0018  C.ar    1  <O>11      -0.0217
  27 C21       0.4110     7.4969    -1.0839  C.ar    1  <O>11      -0.0571
  28 C22       1.1304     7.3875     0.1130  C.ar    1  <O>11      -0.0435
  29 C23       1.8823     6.2398     0.3630  C.ar    1  <O>11       0.0297
  30 N5        1.9457     5.2291    -0.5171  N.ar    1  <O>11      -0.2403
  31 C24       2.5680     3.3120    -2.8520  C.3     1  <O>11       0.0294
  32 C25       2.1390     1.8430    -2.7100  C.3     1  <O>11       0.0308
  33 H1        5.6021    -1.1405    -7.5113  H       1  <O>11       0.0377
  34 H2        3.9442    -1.2166    -8.1529  H       1  <O>11       0.0377
  35 H3        3.1934    -5.8243    -6.5432  H       1  <O>11       0.1921
  36 H4        6.2546    -1.8807    -9.3209  H       1  <O>11       0.0314
  37 H5        7.4313    -2.3116    -8.0551  H       1  <O>11       0.0314
  38 H6        7.0760    -3.5674   -10.7904  H       1  <O>11       0.0268
  39 H7        8.5076    -2.7371   -10.1336  H       1  <O>11       0.0268
  40 H8        8.8450    -5.1624   -10.1008  H       1  <O>11       0.0269
  41 H9        8.7464    -4.5315    -8.4390  H       1  <O>11       0.0269
  42 H10       6.6419    -6.0364   -10.0116  H       1  <O>11       0.0315
  43 H11       7.4165    -6.5001    -8.4761  H       1  <O>11       0.0315
  44 H12      -0.9250     2.0900    -4.1120  H       1  <O>11       0.0480
  45 H13      -0.5380     2.1680    -2.3760  H       1  <O>11       0.0480
  46 H14       0.4490     4.0620    -4.5620  H       1  <O>11       0.0480
  47 H15      -0.6860     4.4480    -3.2460  H       1  <O>11       0.0480
  48 H16       2.9610     3.4790    -3.8550  H       1  <O>11       0.0480
  49 H17       3.3390     3.5370    -2.1160  H       1  <O>11       0.0480
  50 H18       2.9850     1.2000    -2.9510  H       1  <O>11       0.0480
  51 H19       1.8250     1.6620    -1.6820  H       1  <O>11       0.0480
  52 H20       2.7314    -0.3513    -2.5897  H       1  <O>11       0.0625
  53 H21       4.8136    -1.5789    -2.7978  H       1  <O>11       0.0618
  54 H22       5.6826    -2.1490    -4.9959  H       1  <O>11       0.0620
  55 H23       2.3702    -0.2615    -6.7909  H       1  <O>11       0.0628
  56 H24      -0.0079     6.5053    -2.9022  H       1  <O>11       0.0652
  57 H25      -0.1655     8.3299    -1.2806  H       1  <O>11       0.0619
  58 H26       1.1043     8.1519     0.8058  H       1  <O>11       0.0633
  59 H27       2.4046     6.1659     1.2499  H       1  <O>11       0.0830
@<TRIPOS>BOND
     1     1     2    2
     2     2     3    1
     3     3     4   ar
     4     4     5   ar
     5     5     6   ar
     6     6     7   ar
     7     7     8    1
     8     8     9    1
     9     9    10   ar
    10    10    11   ar
    11    11    12   ar
    12    12    13    2
    13    12    14   ar
    14    14    15   ar
    15     9    15   ar
    16    15    16    1
    17    16    17    1
    18    17    18    1
    19    18    19    1
    20    14    19    1
    21     7    20   ar
    22     3    20   ar
    23     2    21   am
    24    21    22    1
    25    22    23    1
    26    23    24    1
    27    24    25    1
    28    25    26   ar
    29    26    27   ar
    30    27    28   ar
    31    28    29   ar
    32    29    30   ar
    33    25    30   ar
    34    24    31    1
    35    31    32    1
    36    21    32    1
    37     8    33    1
    38     8    34    1
    39    11    35    1
    40    16    36    1
    41    16    37    1
    42    17    38    1
    43    17    39    1
    44    18    40    1
    45    18    41    1
    46    19    42    1
    47    19    43    1
    48    22    44    1
    49    22    45    1
    50    23    46    1
    51    23    47    1
    52    31    48    1
    53    31    49    1
    54    32    50    1
    55    32    51    1
    56     4    52    1
    57     5    53    1
    58     6    54    1
    59    20    55    1
    60    26    56    1
    61    27    57    1
    62    28    58    1
    63    29    59    1
@<TRIPOS>MOLECULE
mol98_1_24
 59 63 0 0 0
SMALL
USER_CHARGES
****
VDW energy = -72.73
@<TRIPOS>ATOM
   1 O1        0.2060     0.3063    -5.2918  O.2     1  <O>11      -0.2700
   2 C1        1.1449     0.5535    -4.5497  C.2     1  <O>11       0.2467
   3 C2        2.3880    -0.1970    -4.6730  C.ar    1  <O>11       0.0372
   4 C3        3.0970    -0.5882    -3.5253  C.ar    1  <O>11      -0.0496
   5 C4        4.2962    -1.2974    -3.6452  C.ar    1  <O>11      -0.0608
   6 C5        4.7970    -1.6266    -4.9073  C.ar    1  <O>11      -0.0582
   7 C6        4.0869    -1.2416    -6.0512  C.ar    1  <O>11      -0.0408
   8 C7        4.6188    -1.5916    -7.3830  C.3     1  <O>11       0.0168
   9 C8        5.9602    -0.9776    -7.5580  C.ar    1  <O>11       0.0693
  10 N1        7.0994    -1.6763    -7.1741  N.ar    1  <O>11      -0.1753
  11 N2        8.3291    -1.1242    -7.3320  N.ar    1  <O>11      -0.2427
  12 C9        8.4422     0.1153    -7.8551  C.ar    1  <O>11       0.2682
  13 O2        9.7457     0.6242    -8.0101  O.2     1  <O>11      -0.2661
  14 C10       7.3459     0.8846    -8.2373  C.ar    1  <O>11       0.0232
  15 C11       6.0762     0.2977    -8.1044  C.ar    1  <O>11      -0.0158
  16 C12       4.8119     1.0239    -8.4771  C.3     1  <O>11      -0.0255
  17 C13       5.0573     2.2305    -9.3811  C.3     1  <O>11      -0.0487
  18 C14       6.1994     3.0737    -8.8338  C.3     1  <O>11      -0.0486
  19 C15       7.4986     2.2693    -8.8121  C.3     1  <O>11      -0.0222
  20 C16       2.8883    -0.5352    -5.9413  C.ar    1  <O>11      -0.0461
  21 N3        1.0300     1.5280    -3.6100  N.am    1  <O>11      -0.2945
  22 C17      -0.1601     2.3538    -3.3819  C.3     1  <O>11       0.0308
  23 C18       0.1827     3.8529    -3.5259  C.3     1  <O>11       0.0294
  24 N4        1.3598     4.2241    -2.6201  N.pl3   1  <O>11      -0.3122
  25 C19       1.2778     5.3141    -1.6801  C.ar    1  <O>11       0.1213
  26 C20       0.4932     6.4523    -2.0018  C.ar    1  <O>11      -0.0217
  27 C21       0.4106     7.4968    -1.0839  C.ar    1  <O>11      -0.0571
  28 C22       1.1302     7.3876     0.1128  C.ar    1  <O>11      -0.0435
  29 C23       1.8822     6.2400     0.3628  C.ar    1  <O>11       0.0297
  30 N5        1.9457     5.2293    -0.5173  N.ar    1  <O>11      -0.2403
  31 C24       2.5679     3.3122    -2.8522  C.3     1  <O>11       0.0294
  32 C25       2.1391     1.8432    -2.7102  C.3     1  <O>11       0.0308
  33 H1        3.9445    -1.2181    -8.1529  H       1  <O>11       0.0377
  34 H2        4.7010    -2.6754    -7.4672  H       1  <O>11       0.0377
  35 H3        9.1513    -1.6418    -7.0572  H       1  <O>11       0.1921
  36 H4        4.1526     0.3289    -8.9983  H       1  <O>11       0.0314
  37 H5        4.3278     1.3687    -7.5628  H       1  <O>11       0.0314
  38 H6        5.3138     1.8833   -10.3820  H       1  <O>11       0.0268
  39 H7        4.1518     2.8361    -9.4269  H       1  <O>11       0.0268
  40 H8        6.3318     3.9510    -9.4670  H       1  <O>11       0.0269
  41 H9        5.9569     3.3898    -7.8196  H       1  <O>11       0.0269
  42 H10       7.8642     2.1785    -9.8351  H       1  <O>11       0.0315
  43 H11       8.2284     2.8129    -8.2110  H       1  <O>11       0.0315
  44 H12      -0.9251     2.0897    -4.1117  H       1  <O>11       0.0480
  45 H13      -0.5379     2.1678    -2.3758  H       1  <O>11       0.0480
  46 H14       0.4485     4.0619    -4.5620  H       1  <O>11       0.0480
  47 H15      -0.6863     4.4478    -3.2458  H       1  <O>11       0.0480
  48 H16       2.9607     3.4792    -3.8553  H       1  <O>11       0.0480
  49 H17       3.3389     3.5373    -2.1163  H       1  <O>11       0.0480
  50 H18       2.9851     1.2003    -2.9513  H       1  <O>11       0.0480
  51 H19       1.8252     1.6621    -1.6821  H       1  <O>11       0.0480
  52 H20       2.7314    -0.3513    -2.5897  H       1  <O>11       0.0625
  53 H21       4.8136    -1.5789    -2.7978  H       1  <O>11       0.0618
  54 H22       5.6826    -2.1490    -4.9959  H       1  <O>11       0.0620
  55 H23       2.3702    -0.2615    -6.7909  H       1  <O>11       0.0628
  56 H24      -0.0085     6.5052    -2.9021  H       1  <O>11       0.0652
  57 H25      -0.1661     8.3298    -1.2806  H       1  <O>11       0.0619
  58 H26       1.1040     8.1520     0.8057  H       1  <O>11       0.0633
  59 H27       2.4047     6.1662     1.2497  H       1  <O>11       0.0830
@<TRIPOS>BOND
     1     1     2    2
     2     2     3    1
     3     3     4   ar
     4     4     5   ar
     5     5     6   ar
     6     6     7   ar
     7     7     8    1
     8     8     9    1
     9     9    10   ar
    10    10    11   ar
    11    11    12   ar
    12    12    13    2
    13    12    14   ar
    14    14    15   ar
    15     9    15   ar
    16    15    16    1
    17    16    17    1
    18    17    18    1
    19    18    19    1
    20    14    19    1
    21     7    20   ar
    22     3    20   ar
    23     2    21   am
    24    21    22    1
    25    22    23    1
    26    23    24    1
    27    24    25    1
    28    25    26   ar
    29    26    27   ar
    30    27    28   ar
    31    28    29   ar
    32    29    30   ar
    33    25    30   ar
    34    24    31    1
    35    31    32    1
    36    21    32    1
    37     8    33    1
    38     8    34    1
    39    11    35    1
    40    16    36    1
    41    16    37    1
    42    17    38    1
    43    17    39    1
    44    18    40    1
    45    18    41    1
    46    19    42    1
    47    19    43    1
    48    22    44    1
    49    22    45    1
    50    23    46    1
    51    23    47    1
    52    31    48    1
    53    31    49    1
    54    32    50    1
    55    32    51    1
    56     4    52    1
    57     5    53    1
    58     6    54    1
    59    20    55    1
    60    26    56    1
    61    27    57    1
    62    28    58    1
    63    29    59    1
@<TRIPOS>MOLECULE
mol98_1_25
 59 63 0 0 0
SMALL
USER_CHARGES
****
VDW energy = -72.53
@<TRIPOS>ATOM
   1 O1        0.2060     0.3063    -5.2918  O.2     1  <O>11      -0.2700
   2 C1        1.1449     0.5535    -4.5497  C.2     1  <O>11       0.2467
   3 C2        2.3880    -0.1970    -4.6730  C.ar    1  <O>11       0.0372
   4 C3        3.0970    -0.5882    -3.5253  C.ar    1  <O>11      -0.0496
   5 C4        4.2962    -1.2974    -3.6452  C.ar    1  <O>11      -0.0608
   6 C5        4.7970    -1.6266    -4.9073  C.ar    1  <O>11      -0.0582
   7 C6        4.0869    -1.2416    -6.0512  C.ar    1  <O>11      -0.0408
   8 C7        4.6188    -1.5916    -7.3830  C.3     1  <O>11       0.0168
   9 C8        4.2635    -0.5254    -8.3545  C.ar    1  <O>11       0.0693
  10 N1        3.4921    -0.8313    -9.4702  N.ar    1  <O>11      -0.1753
  11 N2        3.1609     0.1366   -10.3622  N.ar    1  <O>11      -0.2427
  12 C9        3.5941     1.4004   -10.1674  C.ar    1  <O>11       0.2682
  13 O2        3.2012     2.3615   -11.1183  O.2     1  <O>11      -0.2661
  14 C10       4.3913     1.7755    -9.0887  C.ar    1  <O>11       0.0232
  15 C11       4.7044     0.7790    -8.1488  C.ar    1  <O>11      -0.0158
  16 C12       5.5605     1.0530    -6.9418  C.3     1  <O>11      -0.0255
  17 C13       5.6824     2.5408    -6.6180  C.3     1  <O>11      -0.0487
  18 C14       5.9997     3.3292    -7.8799  C.3     1  <O>11      -0.0486
  19 C15       4.8681     3.1923    -8.8978  C.3     1  <O>11      -0.0222
  20 C16       2.8883    -0.5352    -5.9413  C.ar    1  <O>11      -0.0461
  21 N3        1.0300     1.5280    -3.6100  N.am    1  <O>11      -0.2945
  22 C17       2.0762     1.9226    -2.6612  C.3     1  <O>11       0.0308
  23 C18       1.5733     1.7815    -1.2078  C.3     1  <O>11       0.0294
  24 N4        0.2620     2.5482    -1.0164  N.pl3   1  <O>11      -0.3122
  25 C19       0.1007     3.5223     0.0341  C.ar    1  <O>11       0.1213
  26 C20       0.7736     3.3312     1.2691  C.ar    1  <O>11      -0.0217
  27 C21       0.6209     4.2822     2.2754  C.ar    1  <O>11      -0.0571
  28 C22      -0.2151     5.3792     2.0312  C.ar    1  <O>11      -0.0435
  29 C23      -0.8465     5.5027     0.7937  C.ar    1  <O>11       0.0297
  30 N5       -0.6834     4.5926    -0.1785  N.ar    1  <O>11      -0.2403
  31 C24      -0.7910     2.1449    -2.0524  C.3     1  <O>11       0.0294
  32 C25      -0.2067     2.2954    -3.4660  C.3     1  <O>11       0.0308
  33 H1        4.1887    -2.5382    -7.7083  H       1  <O>11       0.0377
  34 H2        5.7034    -1.6860    -7.3269  H       1  <O>11       0.0377
  35 H3        2.5943    -0.0932   -11.1657  H       1  <O>11       0.1921
  36 H4        5.1212     0.5461    -6.0819  H       1  <O>11       0.0314
  37 H5        6.5589     0.6559    -7.1276  H       1  <O>11       0.0314
  38 H6        4.7407     2.8956    -6.1991  H       1  <O>11       0.0268
  39 H7        6.4819     2.6867    -5.8910  H       1  <O>11       0.0268
  40 H8        6.1249     4.3810    -7.6228  H       1  <O>11       0.0269
  41 H9        6.9225     2.9489    -8.3171  H       1  <O>11       0.0269
  42 H10       4.0258     3.7958    -8.5591  H       1  <O>11       0.0315
  43 H11       5.2233     3.5682    -9.8580  H       1  <O>11       0.0315
  44 H12       2.9477     1.2836    -2.8022  H       1  <O>11       0.0480
  45 H13       2.3535     2.9613    -2.8451  H       1  <O>11       0.0480
  46 H14       1.4071     0.7273    -0.9867  H       1  <O>11       0.0480
  47 H15       2.3250     2.1821    -0.5280  H       1  <O>11       0.0480
  48 H16      -1.0811     1.1069    -1.8892  H       1  <O>11       0.0480
  49 H17      -1.6644     2.7880    -1.9511  H       1  <O>11       0.0480
  50 H18      -0.9345     1.9349    -4.1924  H       1  <O>11       0.0480
  51 H19       0.0043     3.3482    -3.6533  H       1  <O>11       0.0480
  52 H20       2.7314    -0.3513    -2.5897  H       1  <O>11       0.0625
  53 H21       4.8136    -1.5789    -2.7978  H       1  <O>11       0.0618
  54 H22       5.6826    -2.1490    -4.9959  H       1  <O>11       0.0620
  55 H23       2.3702    -0.2615    -6.7909  H       1  <O>11       0.0628
  56 H24       1.3670     2.5003     1.4192  H       1  <O>11       0.0652
  57 H25       1.1113     4.1812     3.1778  H       1  <O>11       0.0619
  58 H26      -0.3632     6.0919     2.7627  H       1  <O>11       0.0633
  59 H27      -1.4562     6.3172     0.6210  H       1  <O>11       0.0830
@<TRIPOS>BOND
     1     1     2    2
     2     2     3    1
     3     3     4   ar
     4     4     5   ar
     5     5     6   ar
     6     6     7   ar
     7     7     8    1
     8     8     9    1
     9     9    10   ar
    10    10    11   ar
    11    11    12   ar
    12    12    13    2
    13    12    14   ar
    14    14    15   ar
    15     9    15   ar
    16    15    16    1
    17    16    17    1
    18    17    18    1
    19    18    19    1
    20    14    19    1
    21     7    20   ar
    22     3    20   ar
    23     2    21   am
    24    21    22    1
    25    22    23    1
    26    23    24    1
    27    24    25    1
    28    25    26   ar
    29    26    27   ar
    30    27    28   ar
    31    28    29   ar
    32    29    30   ar
    33    25    30   ar
    34    24    31    1
    35    31    32    1
    36    21    32    1
    37     8    33    1
    38     8    34    1
    39    11    35    1
    40    16    36    1
    41    16    37    1
    42    17    38    1
    43    17    39    1
    44    18    40    1
    45    18    41    1
    46    19    42    1
    47    19    43    1
    48    22    44    1
    49    22    45    1
    50    23    46    1
    51    23    47    1
    52    31    48    1
    53    31    49    1
    54    32    50    1
    55    32    51    1
    56     4    52    1
    57     5    53    1
    58     6    54    1
    59    20    55    1
    60    26    56    1
    61    27    57    1
    62    28    58    1
    63    29    59    1
@<TRIPOS>MOLECULE
mol98_1_26
 59 63 0 0 0
SMALL
USER_CHARGES
****
VDW energy = -72.45
@<TRIPOS>ATOM
   1 O1        0.2060     0.3063    -5.2918  O.2     1  <O>11      -0.2700
   2 C1        1.1449     0.5535    -4.5497  C.2     1  <O>11       0.2467
   3 C2        2.3880    -0.1970    -4.6730  C.ar    1  <O>11       0.0372
   4 C3        3.0970    -0.5882    -3.5253  C.ar    1  <O>11      -0.0496
   5 C4        4.2962    -1.2974    -3.6452  C.ar    1  <O>11      -0.0608
   6 C5        4.7970    -1.6266    -4.9073  C.ar    1  <O>11      -0.0582
   7 C6        4.0869    -1.2416    -6.0512  C.ar    1  <O>11      -0.0408
   8 C7        4.6188    -1.5916    -7.3830  C.3     1  <O>11       0.0168
   9 C8        4.2635    -0.5254    -8.3545  C.ar    1  <O>11       0.0693
  10 N1        5.1219     0.5509    -8.5494  N.ar    1  <O>11      -0.1753
  11 N2        4.8065     1.5287    -9.4362  N.ar    1  <O>11      -0.2427
  12 C9        3.6465     1.4580   -10.1234  C.ar    1  <O>11       0.2682
  13 O2        3.3864     2.4933   -11.0413  O.2     1  <O>11      -0.2661
  14 C10       2.7262     0.4251    -9.9616  C.ar    1  <O>11       0.0232
  15 C11       3.0705    -0.6031    -9.0680  C.ar    1  <O>11      -0.0158
  16 C12       2.1624    -1.7729    -8.8002  C.3     1  <O>11      -0.0255
  17 C13       1.0850    -1.9528    -9.8680  C.3     1  <O>11      -0.0487
  18 C14       0.4183    -0.6195   -10.1721  C.3     1  <O>11      -0.0486
  19 C15       1.4343     0.3732   -10.7358  C.3     1  <O>11      -0.0222
  20 C16       2.8883    -0.5352    -5.9413  C.ar    1  <O>11      -0.0461
  21 N3        1.0300     1.5280    -3.6100  N.am    1  <O>11      -0.2945
  22 C17       2.0762     1.9226    -2.6612  C.3     1  <O>11       0.0308
  23 C18       1.5733     1.7815    -1.2078  C.3     1  <O>11       0.0294
  24 N4        0.2620     2.5482    -1.0164  N.pl3   1  <O>11      -0.3122
  25 C19       0.1007     3.5223     0.0341  C.ar    1  <O>11       0.1213
  26 C20       0.7736     3.3312     1.2691  C.ar    1  <O>11      -0.0217
  27 C21       0.6209     4.2822     2.2754  C.ar    1  <O>11      -0.0571
  28 C22      -0.2151     5.3792     2.0312  C.ar    1  <O>11      -0.0435
  29 C23      -0.8465     5.5027     0.7937  C.ar    1  <O>11       0.0297
  30 N5       -0.6834     4.5926    -0.1785  N.ar    1  <O>11      -0.2403
  31 C24      -0.7910     2.1449    -2.0524  C.3     1  <O>11       0.0294
  32 C25      -0.2067     2.2954    -3.4660  C.3     1  <O>11       0.0308
  33 H1        4.1887    -2.5382    -7.7083  H       1  <O>11       0.0377
  34 H2        5.7034    -1.6860    -7.3269  H       1  <O>11       0.0377
  35 H3        5.4393     2.3029    -9.5766  H       1  <O>11       0.1921
  36 H4        2.7664    -2.6800    -8.7610  H       1  <O>11       0.0314
  37 H5        1.6738    -1.6190    -7.8375  H       1  <O>11       0.0314
  38 H6        1.5423    -2.3423   -10.7776  H       1  <O>11       0.0268
  39 H7        0.3349    -2.6572    -9.5075  H       1  <O>11       0.0268
  40 H8       -0.3749    -0.7746   -10.9035  H       1  <O>11       0.0269
  41 H9       -0.0069    -0.2144    -9.2542  H       1  <O>11       0.0269
  42 H10       1.6604     0.0878   -11.7633  H       1  <O>11       0.0315
  43 H11       0.9856     1.3671   -10.7237  H       1  <O>11       0.0315
  44 H12       2.9477     1.2836    -2.8022  H       1  <O>11       0.0480
  45 H13       2.3535     2.9613    -2.8451  H       1  <O>11       0.0480
  46 H14       1.4071     0.7273    -0.9867  H       1  <O>11       0.0480
  47 H15       2.3250     2.1821    -0.5280  H       1  <O>11       0.0480
  48 H16      -1.0811     1.1069    -1.8892  H       1  <O>11       0.0480
  49 H17      -1.6644     2.7880    -1.9511  H       1  <O>11       0.0480
  50 H18      -0.9345     1.9349    -4.1924  H       1  <O>11       0.0480
  51 H19       0.0043     3.3482    -3.6533  H       1  <O>11       0.0480
  52 H20       2.7314    -0.3513    -2.5897  H       1  <O>11       0.0625
  53 H21       4.8136    -1.5789    -2.7978  H       1  <O>11       0.0618
  54 H22       5.6826    -2.1490    -4.9959  H       1  <O>11       0.0620
  55 H23       2.3702    -0.2615    -6.7909  H       1  <O>11       0.0628
  56 H24       1.3670     2.5003     1.4192  H       1  <O>11       0.0652
  57 H25       1.1113     4.1812     3.1778  H       1  <O>11       0.0619
  58 H26      -0.3632     6.0919     2.7627  H       1  <O>11       0.0633
  59 H27      -1.4562     6.3172     0.6210  H       1  <O>11       0.0830
@<TRIPOS>BOND
     1     1     2    2
     2     2     3    1
     3     3     4   ar
     4     4     5   ar
     5     5     6   ar
     6     6     7   ar
     7     7     8    1
     8     8     9    1
     9     9    10   ar
    10    10    11   ar
    11    11    12   ar
    12    12    13    2
    13    12    14   ar
    14    14    15   ar
    15     9    15   ar
    16    15    16    1
    17    16    17    1
    18    17    18    1
    19    18    19    1
    20    14    19    1
    21     7    20   ar
    22     3    20   ar
    23     2    21   am
    24    21    22    1
    25    22    23    1
    26    23    24    1
    27    24    25    1
    28    25    26   ar
    29    26    27   ar
    30    27    28   ar
    31    28    29   ar
    32    29    30   ar
    33    25    30   ar
    34    24    31    1
    35    31    32    1
    36    21    32    1
    37     8    33    1
    38     8    34    1
    39    11    35    1
    40    16    36    1
    41    16    37    1
    42    17    38    1
    43    17    39    1
    44    18    40    1
    45    18    41    1
    46    19    42    1
    47    19    43    1
    48    22    44    1
    49    22    45    1
    50    23    46    1
    51    23    47    1
    52    31    48    1
    53    31    49    1
    54    32    50    1
    55    32    51    1
    56     4    52    1
    57     5    53    1
    58     6    54    1
    59    20    55    1
    60    26    56    1
    61    27    57    1
    62    28    58    1
    63    29    59    1
@<TRIPOS>MOLECULE
mol98_1_27
 59 63 0 0 0
SMALL
USER_CHARGES
****
VDW energy = -67.28
@<TRIPOS>ATOM
   1 O1        0.2060     0.3063    -5.2918  O.2     1  <O>11      -0.2700
   2 C1        1.1449     0.5535    -4.5497  C.2     1  <O>11       0.2467
   3 C2        2.3880    -0.1970    -4.6730  C.ar    1  <O>11       0.0372
   4 C3        3.0970    -0.5882    -3.5253  C.ar    1  <O>11      -0.0496
   5 C4        4.2962    -1.2974    -3.6452  C.ar    1  <O>11      -0.0608
   6 C5        4.7970    -1.6266    -4.9073  C.ar    1  <O>11      -0.0582
   7 C6        4.0869    -1.2416    -6.0512  C.ar    1  <O>11      -0.0408
   8 C7        4.6188    -1.5916    -7.3830  C.3     1  <O>11       0.0168
   9 C8        4.2635    -0.5254    -8.3545  C.ar    1  <O>11       0.0693
  10 N1        4.2233     0.8026    -7.9445  N.ar    1  <O>11      -0.1753
  11 N2        3.9017     1.7836    -8.8256  N.ar    1  <O>11      -0.2427
  12 C9        3.6088     1.4631   -10.1040  C.ar    1  <O>11       0.2682
  13 O2        3.3012     2.5276   -10.9725  O.2     1  <O>11      -0.2661
  14 C10       3.6026     0.1541   -10.5796  C.ar    1  <O>11       0.0232
  15 C11       3.9689    -0.8562    -9.6744  C.ar    1  <O>11      -0.0158
  16 C12       3.9980    -2.3103   -10.0613  C.3     1  <O>11      -0.0255
  17 C13       4.0195    -2.5286   -11.5730  C.3     1  <O>11      -0.0487
  18 C14       2.9674    -1.6587   -12.2447  C.3     1  <O>11      -0.0486
  19 C15       3.2647    -0.1781   -12.0102  C.3     1  <O>11      -0.0222
  20 C16       2.8883    -0.5352    -5.9413  C.ar    1  <O>11      -0.0461
  21 N3        1.0300     1.5280    -3.6100  N.am    1  <O>11      -0.2945
  22 C17      -0.1600     2.3540    -3.3820  C.3     1  <O>11       0.0308
  23 C18       0.1830     3.8530    -3.5260  C.3     1  <O>11       0.0294
  24 N4        1.3600     4.2240    -2.6200  N.pl3   1  <O>11      -0.3122
  25 C19       1.2780     5.3140    -1.6800  C.ar    1  <O>11       0.1213
  26 C20       0.4936     6.4523    -2.0018  C.ar    1  <O>11      -0.0217
  27 C21       0.4110     7.4969    -1.0839  C.ar    1  <O>11      -0.0571
  28 C22       1.1304     7.3875     0.1130  C.ar    1  <O>11      -0.0435
  29 C23       1.8823     6.2398     0.3630  C.ar    1  <O>11       0.0297
  30 N5        1.9457     5.2291    -0.5171  N.ar    1  <O>11      -0.2403
  31 C24       2.5680     3.3120    -2.8520  C.3     1  <O>11       0.0294
  32 C25       2.1390     1.8430    -2.7100  C.3     1  <O>11       0.0308
  33 H1        4.1887    -2.5382    -7.7083  H       1  <O>11       0.0377
  34 H2        5.7034    -1.6860    -7.3269  H       1  <O>11       0.0377
  35 H3        3.8821     2.7460    -8.5208  H       1  <O>11       0.1921
  36 H4        4.8912    -2.7662    -9.6327  H       1  <O>11       0.0314
  37 H5        3.1104    -2.7953    -9.6538  H       1  <O>11       0.0314
  38 H6        5.0041    -2.2660   -11.9599  H       1  <O>11       0.0268
  39 H7        3.8116    -3.5770   -11.7884  H       1  <O>11       0.0268
  40 H8        2.9685    -1.8589   -13.3162  H       1  <O>11       0.0269
  41 H9        1.9881    -1.8972   -11.8307  H       1  <O>11       0.0269
  42 H10       4.1092     0.1068   -12.6380  H       1  <O>11       0.0315
  43 H11       2.3850     0.3981   -12.2989  H       1  <O>11       0.0315
  44 H12      -0.9250     2.0900    -4.1120  H       1  <O>11       0.0480
  45 H13      -0.5380     2.1680    -2.3760  H       1  <O>11       0.0480
  46 H14       0.4490     4.0620    -4.5620  H       1  <O>11       0.0480
  47 H15      -0.6860     4.4480    -3.2460  H       1  <O>11       0.0480
  48 H16       2.9610     3.4790    -3.8550  H       1  <O>11       0.0480
  49 H17       3.3390     3.5370    -2.1160  H       1  <O>11       0.0480
  50 H18       2.9850     1.2000    -2.9510  H       1  <O>11       0.0480
  51 H19       1.8250     1.6620    -1.6820  H       1  <O>11       0.0480
  52 H20       2.7314    -0.3513    -2.5897  H       1  <O>11       0.0625
  53 H21       4.8136    -1.5789    -2.7978  H       1  <O>11       0.0618
  54 H22       5.6826    -2.1490    -4.9959  H       1  <O>11       0.0620
  55 H23       2.3702    -0.2615    -6.7909  H       1  <O>11       0.0628
  56 H24      -0.0079     6.5053    -2.9022  H       1  <O>11       0.0652
  57 H25      -0.1655     8.3299    -1.2806  H       1  <O>11       0.0619
  58 H26       1.1043     8.1519     0.8058  H       1  <O>11       0.0633
  59 H27       2.4046     6.1659     1.2499  H       1  <O>11       0.0830
@<TRIPOS>BOND
     1     1     2    2
     2     2     3    1
     3     3     4   ar
     4     4     5   ar
     5     5     6   ar
     6     6     7   ar
     7     7     8    1
     8     8     9    1
     9     9    10   ar
    10    10    11   ar
    11    11    12   ar
    12    12    13    2
    13    12    14   ar
    14    14    15   ar
    15     9    15   ar
    16    15    16    1
    17    16    17    1
    18    17    18    1
    19    18    19    1
    20    14    19    1
    21     7    20   ar
    22     3    20   ar
    23     2    21   am
    24    21    22    1
    25    22    23    1
    26    23    24    1
    27    24    25    1
    28    25    26   ar
    29    26    27   ar
    30    27    28   ar
    31    28    29   ar
    32    29    30   ar
    33    25    30   ar
    34    24    31    1
    35    31    32    1
    36    21    32    1
    37     8    33    1
    38     8    34    1
    39    11    35    1
    40    16    36    1
    41    16    37    1
    42    17    38    1
    43    17    39    1
    44    18    40    1
    45    18    41    1
    46    19    42    1
    47    19    43    1
    48    22    44    1
    49    22    45    1
    50    23    46    1
    51    23    47    1
    52    31    48    1
    53    31    49    1
    54    32    50    1
    55    32    51    1
    56     4    52    1
    57     5    53    1
    58     6    54    1
    59    20    55    1
    60    26    56    1
    61    27    57    1
    62    28    58    1
    63    29    59    1
@<TRIPOS>MOLECULE
mol98_1_28
 59 63 0 0 0
SMALL
USER_CHARGES
****
VDW energy = -67.14
@<TRIPOS>ATOM
   1 O1        0.2060     0.3063    -5.2918  O.2     1  <O>11      -0.2700
   2 C1        1.1449     0.5535    -4.5497  C.2     1  <O>11       0.2467
   3 C2        2.3880    -0.1970    -4.6730  C.ar    1  <O>11       0.0372
   4 C3        3.0970    -0.5882    -3.5253  C.ar    1  <O>11      -0.0496
   5 C4        4.2962    -1.2974    -3.6452  C.ar    1  <O>11      -0.0608
   6 C5        4.7970    -1.6266    -4.9073  C.ar    1  <O>11      -0.0582
   7 C6        4.0869    -1.2416    -6.0512  C.ar    1  <O>11      -0.0408
   8 C7        4.6188    -1.5916    -7.3830  C.3     1  <O>11       0.0168
   9 C8        5.9602    -0.9776    -7.5580  C.ar    1  <O>11       0.0693
  10 N1        6.8187    -0.8625    -6.4703  N.ar    1  <O>11      -0.1753
  11 N2        8.0468    -0.3047    -6.6211  N.ar    1  <O>11      -0.2427
  12 C9        8.4292     0.1498    -7.8335  C.ar    1  <O>11       0.2682
  13 O2        9.7215     0.7006    -7.9281  O.2     1  <O>11      -0.2661
  14 C10       7.6140     0.0925    -8.9613  C.ar    1  <O>11       0.0232
  15 C11       6.3565    -0.5159    -8.8102  C.ar    1  <O>11      -0.0158
  16 C12       5.3802    -0.6372    -9.9491  C.3     1  <O>11      -0.0255
  17 C13       6.0287    -0.4439   -11.3185  C.3     1  <O>11      -0.0487
  18 C14       6.9236     0.7865   -11.3074  C.3     1  <O>11      -0.0486
  19 C15       8.0619     0.6139   -10.3024  C.3     1  <O>11      -0.0222
  20 C16       2.8883    -0.5352    -5.9413  C.ar    1  <O>11      -0.0461
  21 N3        1.0300     1.5280    -3.6100  N.am    1  <O>11      -0.2945
  22 C17      -0.1601     2.3538    -3.3819  C.3     1  <O>11       0.0308
  23 C18       0.1827     3.8529    -3.5259  C.3     1  <O>11       0.0294
  24 N4        1.3598     4.2241    -2.6201  N.pl3   1  <O>11      -0.3122
  25 C19       1.2778     5.3141    -1.6801  C.ar    1  <O>11       0.1213
  26 C20       0.4932     6.4523    -2.0018  C.ar    1  <O>11      -0.0217
  27 C21       0.4106     7.4968    -1.0839  C.ar    1  <O>11      -0.0571
  28 C22       1.1302     7.3876     0.1128  C.ar    1  <O>11      -0.0435
  29 C23       1.8822     6.2400     0.3628  C.ar    1  <O>11       0.0297
  30 N5        1.9457     5.2293    -0.5173  N.ar    1  <O>11      -0.2403
  31 C24       2.5679     3.3122    -2.8522  C.3     1  <O>11       0.0294
  32 C25       2.1391     1.8432    -2.7102  C.3     1  <O>11       0.0308
  33 H1        3.9445    -1.2181    -8.1529  H       1  <O>11       0.0377
  34 H2        4.7010    -2.6754    -7.4672  H       1  <O>11       0.0377
  35 H3        8.6664    -0.2318    -5.8273  H       1  <O>11       0.1921
  36 H4        4.9294    -1.6297    -9.9162  H       1  <O>11       0.0314
  37 H5        4.6048     0.1192    -9.8229  H       1  <O>11       0.0314
  38 H6        6.6274    -1.3223   -11.5596  H       1  <O>11       0.0268
  39 H7        5.2499    -0.3166   -12.0709  H       1  <O>11       0.0268
  40 H8        7.3435     0.9326   -12.3026  H       1  <O>11       0.0269
  41 H9        6.3307     1.6579   -11.0307  H       1  <O>11       0.0269
  42 H10       8.7857    -0.0866   -10.7194  H       1  <O>11       0.0315
  43 H11       8.5375     1.5839   -10.1532  H       1  <O>11       0.0315
  44 H12      -0.9251     2.0897    -4.1117  H       1  <O>11       0.0480
  45 H13      -0.5379     2.1678    -2.3758  H       1  <O>11       0.0480
  46 H14       0.4485     4.0619    -4.5620  H       1  <O>11       0.0480
  47 H15      -0.6863     4.4478    -3.2458  H       1  <O>11       0.0480
  48 H16       2.9607     3.4792    -3.8553  H       1  <O>11       0.0480
  49 H17       3.3389     3.5373    -2.1163  H       1  <O>11       0.0480
  50 H18       2.9851     1.2003    -2.9513  H       1  <O>11       0.0480
  51 H19       1.8252     1.6621    -1.6821  H       1  <O>11       0.0480
  52 H20       2.7314    -0.3513    -2.5897  H       1  <O>11       0.0625
  53 H21       4.8136    -1.5789    -2.7978  H       1  <O>11       0.0618
  54 H22       5.6826    -2.1490    -4.9959  H       1  <O>11       0.0620
  55 H23       2.3702    -0.2615    -6.7909  H       1  <O>11       0.0628
  56 H24      -0.0085     6.5052    -2.9021  H       1  <O>11       0.0652
  57 H25      -0.1661     8.3298    -1.2806  H       1  <O>11       0.0619
  58 H26       1.1040     8.1520     0.8057  H       1  <O>11       0.0633
  59 H27       2.4047     6.1662     1.2497  H       1  <O>11       0.0830
@<TRIPOS>BOND
     1     1     2    2
     2     2     3    1
     3     3     4   ar
     4     4     5   ar
     5     5     6   ar
     6     6     7   ar
     7     7     8    1
     8     8     9    1
     9     9    10   ar
    10    10    11   ar
    11    11    12   ar
    12    12    13    2
    13    12    14   ar
    14    14    15   ar
    15     9    15   ar
    16    15    16    1
    17    16    17    1
    18    17    18    1
    19    18    19    1
    20    14    19    1
    21     7    20   ar
    22     3    20   ar
    23     2    21   am
    24    21    22    1
    25    22    23    1
    26    23    24    1
    27    24    25    1
    28    25    26   ar
    29    26    27   ar
    30    27    28   ar
    31    28    29   ar
    32    29    30   ar
    33    25    30   ar
    34    24    31    1
    35    31    32    1
    36    21    32    1
    37     8    33    1
    38     8    34    1
    39    11    35    1
    40    16    36    1
    41    16    37    1
    42    17    38    1
    43    17    39    1
    44    18    40    1
    45    18    41    1
    46    19    42    1
    47    19    43    1
    48    22    44    1
    49    22    45    1
    50    23    46    1
    51    23    47    1
    52    31    48    1
    53    31    49    1
    54    32    50    1
    55    32    51    1
    56     4    52    1
    57     5    53    1
    58     6    54    1
    59    20    55    1
    60    26    56    1
    61    27    57    1
    62    28    58    1
    63    29    59    1
@<TRIPOS>MOLECULE
mol98_1_29
 59 63 0 0 0
SMALL
USER_CHARGES
****
VDW energy = -64.11
@<TRIPOS>ATOM
   1 O1        0.2060     0.3063    -5.2918  O.2     1  <O>11      -0.2700
   2 C1        1.1449     0.5535    -4.5497  C.2     1  <O>11       0.2467
   3 C2        2.3880    -0.1970    -4.6730  C.ar    1  <O>11       0.0372
   4 C3        3.6255     0.4543    -4.5417  C.ar    1  <O>11      -0.0496
   5 C4        4.8178    -0.2646    -4.6728  C.ar    1  <O>11      -0.0608
   6 C5        4.7881    -1.6375    -4.9310  C.ar    1  <O>11      -0.0582
   7 C6        3.5541    -2.2875    -5.0559  C.ar    1  <O>11      -0.0408
   8 C7        3.5267    -3.7381    -5.3282  C.3     1  <O>11       0.0168
   9 C8        2.3449    -4.0625    -6.1679  C.ar    1  <O>11       0.0693
  10 N1        1.9105    -3.1614    -7.1337  N.ar    1  <O>11      -0.1753
  11 N2        0.8330    -3.4501    -7.9067  N.ar    1  <O>11      -0.2427
  12 C9        0.1750    -4.6152    -7.7265  C.ar    1  <O>11       0.2682
  13 O2       -0.9229    -4.8634    -8.5722  O.2     1  <O>11      -0.2661
  14 C10       0.5355    -5.5533    -6.7623  C.ar    1  <O>11       0.0232
  15 C11       1.6715    -5.2675    -5.9863  C.ar    1  <O>11      -0.0158
  16 C12       2.1633    -6.1958    -4.9087  C.3     1  <O>11      -0.0255
  17 C13       1.6002    -7.6104    -5.0325  C.3     1  <O>11      -0.0487
  18 C14       0.0973    -7.5596    -5.2639  C.3     1  <O>11      -0.0486
  19 C15      -0.2204    -6.8436    -6.5761  C.3     1  <O>11      -0.0222
  20 C16       2.3591    -1.5786    -4.9249  C.ar    1  <O>11      -0.0461
  21 N3        1.0300     1.5280    -3.6100  N.am    1  <O>11      -0.2945
  22 C17      -0.1601     2.3538    -3.3819  C.3     1  <O>11       0.0308
  23 C18       0.1827     3.8529    -3.5259  C.3     1  <O>11       0.0294
  24 N4        1.3598     4.2241    -2.6201  N.pl3   1  <O>11      -0.3122
  25 C19       1.2778     5.3141    -1.6801  C.ar    1  <O>11       0.1213
  26 C20       0.4932     6.4523    -2.0018  C.ar    1  <O>11      -0.0217
  27 C21       0.4106     7.4968    -1.0839  C.ar    1  <O>11      -0.0571
  28 C22       1.1302     7.3876     0.1128  C.ar    1  <O>11      -0.0435
  29 C23       1.8822     6.2400     0.3628  C.ar    1  <O>11       0.0297
  30 N5        1.9457     5.2293    -0.5173  N.ar    1  <O>11      -0.2403
  31 C24       2.5679     3.3122    -2.8522  C.3     1  <O>11       0.0294
  32 C25       2.1391     1.8432    -2.7102  C.3     1  <O>11       0.0308
  33 H1        3.4647    -4.2831    -4.3869  H       1  <O>11       0.0377
  34 H2        4.4370    -4.0255    -5.8547  H       1  <O>11       0.0377
  35 H3        0.5291    -2.7931    -8.6105  H       1  <O>11       0.1921
  36 H4        3.2510    -6.2496    -4.9661  H       1  <O>11       0.0314
  37 H5        1.8694    -5.7894    -3.9404  H       1  <O>11       0.0314
  38 H6        2.0769    -8.1145    -5.8731  H       1  <O>11       0.0268
  39 H7        1.8052    -8.1612    -4.1141  H       1  <O>11       0.0268
  40 H8       -0.2927    -8.5765    -5.3071  H       1  <O>11       0.0269
  41 H9       -0.3738    -7.0235    -4.4404  H       1  <O>11       0.0269
  42 H10       0.0296    -7.5107    -7.4013  H       1  <O>11       0.0315
  43 H11      -1.2883    -6.6230    -6.5965  H       1  <O>11       0.0315
  44 H12      -0.9251     2.0897    -4.1117  H       1  <O>11       0.0480
  45 H13      -0.5379     2.1678    -2.3758  H       1  <O>11       0.0480
  46 H14       0.4485     4.0619    -4.5620  H       1  <O>11       0.0480
  47 H15      -0.6863     4.4478    -3.2458  H       1  <O>11       0.0480
  48 H16       2.9607     3.4792    -3.8553  H       1  <O>11       0.0480
  49 H17       3.3389     3.5373    -2.1163  H       1  <O>11       0.0480
  50 H18       2.9851     1.2003    -2.9513  H       1  <O>11       0.0480
  51 H19       1.8252     1.6621    -1.6821  H       1  <O>11       0.0480
  52 H20       3.6550     1.4675    -4.3478  H       1  <O>11       0.0625
  53 H21       5.7235     0.2208    -4.5783  H       1  <O>11       0.0618
  54 H22       5.6680    -2.1678    -5.0288  H       1  <O>11       0.0620
  55 H23       1.4553    -2.0690    -5.0131  H       1  <O>11       0.0628
  56 H24      -0.0085     6.5052    -2.9021  H       1  <O>11       0.0652
  57 H25      -0.1661     8.3298    -1.2806  H       1  <O>11       0.0619
  58 H26       1.1040     8.1520     0.8057  H       1  <O>11       0.0633
  59 H27       2.4047     6.1662     1.2497  H       1  <O>11       0.0830
@<TRIPOS>BOND
     1     1     2    2
     2     2     3    1
     3     3     4   ar
     4     4     5   ar
     5     5     6   ar
     6     6     7   ar
     7     7     8    1
     8     8     9    1
     9     9    10   ar
    10    10    11   ar
    11    11    12   ar
    12    12    13    2
    13    12    14   ar
    14    14    15   ar
    15     9    15   ar
    16    15    16    1
    17    16    17    1
    18    17    18    1
    19    18    19    1
    20    14    19    1
    21     7    20   ar
    22     3    20   ar
    23     2    21   am
    24    21    22    1
    25    22    23    1
    26    23    24    1
    27    24    25    1
    28    25    26   ar
    29    26    27   ar
    30    27    28   ar
    31    28    29   ar
    32    29    30   ar
    33    25    30   ar
    34    24    31    1
    35    31    32    1
    36    21    32    1
    37     8    33    1
    38     8    34    1
    39    11    35    1
    40    16    36    1
    41    16    37    1
    42    17    38    1
    43    17    39    1
    44    18    40    1
    45    18    41    1
    46    19    42    1
    47    19    43    1
    48    22    44    1
    49    22    45    1
    50    23    46    1
    51    23    47    1
    52    31    48    1
    53    31    49    1
    54    32    50    1
    55    32    51    1
    56     4    52    1
    57     5    53    1
    58     6    54    1
    59    20    55    1
    60    26    56    1
    61    27    57    1
    62    28    58    1
    63    29    59    1
@<TRIPOS>MOLECULE
mol98_1_30
 59 63 0 0 0
SMALL
USER_CHARGES
****
VDW energy = -63.44
@<TRIPOS>ATOM
   1 O1        0.2060     0.3063    -5.2918  O.2     1  <O>11      -0.2700
   2 C1        1.1449     0.5535    -4.5497  C.2     1  <O>11       0.2467
   3 C2        2.3880    -0.1970    -4.6730  C.ar    1  <O>11       0.0372
   4 C3        3.0970    -0.5882    -3.5253  C.ar    1  <O>11      -0.0496
   5 C4        4.2962    -1.2974    -3.6452  C.ar    1  <O>11      -0.0608
   6 C5        4.7970    -1.6266    -4.9073  C.ar    1  <O>11      -0.0582
   7 C6        4.0869    -1.2416    -6.0512  C.ar    1  <O>11      -0.0408
   8 C7        4.6188    -1.5916    -7.3830  C.3     1  <O>11       0.0168
   9 C8        4.2635    -0.5254    -8.3545  C.ar    1  <O>11       0.0693
  10 N1        5.1219     0.5509    -8.5494  N.ar    1  <O>11      -0.1753
  11 N2        4.8065     1.5287    -9.4362  N.ar    1  <O>11      -0.2427
  12 C9        3.6465     1.4580   -10.1234  C.ar    1  <O>11       0.2682
  13 O2        3.3864     2.4933   -11.0413  O.2     1  <O>11      -0.2661
  14 C10       2.7262     0.4251    -9.9616  C.ar    1  <O>11       0.0232
  15 C11       3.0705    -0.6031    -9.0680  C.ar    1  <O>11      -0.0158
  16 C12       2.1624    -1.7729    -8.8002  C.3     1  <O>11      -0.0255
  17 C13       1.0850    -1.9528    -9.8680  C.3     1  <O>11      -0.0487
  18 C14       0.4183    -0.6195   -10.1721  C.3     1  <O>11      -0.0486
  19 C15       1.4343     0.3732   -10.7358  C.3     1  <O>11      -0.0222
  20 C16       2.8883    -0.5352    -5.9413  C.ar    1  <O>11      -0.0461
  21 N3        1.0300     1.5280    -3.6100  N.am    1  <O>11      -0.2945
  22 C17      -0.1601     2.3538    -3.3819  C.3     1  <O>11       0.0308
  23 C18       0.1827     3.8529    -3.5259  C.3     1  <O>11       0.0294
  24 N4        1.3598     4.2241    -2.6201  N.pl3   1  <O>11      -0.3122
  25 C19       1.2778     5.3141    -1.6801  C.ar    1  <O>11       0.1213
  26 C20       0.4932     6.4523    -2.0018  C.ar    1  <O>11      -0.0217
  27 C21       0.4106     7.4968    -1.0839  C.ar    1  <O>11      -0.0571
  28 C22       1.1302     7.3876     0.1128  C.ar    1  <O>11      -0.0435
  29 C23       1.8822     6.2400     0.3628  C.ar    1  <O>11       0.0297
  30 N5        1.9457     5.2293    -0.5173  N.ar    1  <O>11      -0.2403
  31 C24       2.5679     3.3122    -2.8522  C.3     1  <O>11       0.0294
  32 C25       2.1391     1.8432    -2.7102  C.3     1  <O>11       0.0308
  33 H1        4.1887    -2.5382    -7.7083  H       1  <O>11       0.0377
  34 H2        5.7034    -1.6860    -7.3269  H       1  <O>11       0.0377
  35 H3        5.4393     2.3029    -9.5766  H       1  <O>11       0.1921
  36 H4        2.7664    -2.6800    -8.7610  H       1  <O>11       0.0314
  37 H5        1.6738    -1.6190    -7.8375  H       1  <O>11       0.0314
  38 H6        1.5423    -2.3423   -10.7776  H       1  <O>11       0.0268
  39 H7        0.3349    -2.6572    -9.5075  H       1  <O>11       0.0268
  40 H8       -0.3749    -0.7746   -10.9035  H       1  <O>11       0.0269
  41 H9       -0.0069    -0.2144    -9.2542  H       1  <O>11       0.0269
  42 H10       1.6604     0.0878   -11.7633  H       1  <O>11       0.0315
  43 H11       0.9856     1.3671   -10.7237  H       1  <O>11       0.0315
  44 H12      -0.9251     2.0897    -4.1117  H       1  <O>11       0.0480
  45 H13      -0.5379     2.1678    -2.3758  H       1  <O>11       0.0480
  46 H14       0.4485     4.0619    -4.5620  H       1  <O>11       0.0480
  47 H15      -0.6863     4.4478    -3.2458  H       1  <O>11       0.0480
  48 H16       2.9607     3.4792    -3.8553  H       1  <O>11       0.0480
  49 H17       3.3389     3.5373    -2.1163  H       1  <O>11       0.0480
  50 H18       2.9851     1.2003    -2.9513  H       1  <O>11       0.0480
  51 H19       1.8252     1.6621    -1.6821  H       1  <O>11       0.0480
  52 H20       2.7314    -0.3513    -2.5897  H       1  <O>11       0.0625
  53 H21       4.8136    -1.5789    -2.7978  H       1  <O>11       0.0618
  54 H22       5.6826    -2.1490    -4.9959  H       1  <O>11       0.0620
  55 H23       2.3702    -0.2615    -6.7909  H       1  <O>11       0.0628
  56 H24      -0.0085     6.5052    -2.9021  H       1  <O>11       0.0652
  57 H25      -0.1661     8.3298    -1.2806  H       1  <O>11       0.0619
  58 H26       1.1040     8.1520     0.8057  H       1  <O>11       0.0633
  59 H27       2.4047     6.1662     1.2497  H       1  <O>11       0.0830
@<TRIPOS>BOND
     1     1     2    2
     2     2     3    1
     3     3     4   ar
     4     4     5   ar
     5     5     6   ar
     6     6     7   ar
     7     7     8    1
     8     8     9    1
     9     9    10   ar
    10    10    11   ar
    11    11    12   ar
    12    12    13    2
    13    12    14   ar
    14    14    15   ar
    15     9    15   ar
    16    15    16    1
    17    16    17    1
    18    17    18    1
    19    18    19    1
    20    14    19    1
    21     7    20   ar
    22     3    20   ar
    23     2    21   am
    24    21    22    1
    25    22    23    1
    26    23    24    1
    27    24    25    1
    28    25    26   ar
    29    26    27   ar
    30    27    28   ar
    31    28    29   ar
    32    29    30   ar
    33    25    30   ar
    34    24    31    1
    35    31    32    1
    36    21    32    1
    37     8    33    1
    38     8    34    1
    39    11    35    1
    40    16    36    1
    41    16    37    1
    42    17    38    1
    43    17    39    1
    44    18    40    1
    45    18    41    1
    46    19    42    1
    47    19    43    1
    48    22    44    1
    49    22    45    1
    50    23    46    1
    51    23    47    1
    52    31    48    1
    53    31    49    1
    54    32    50    1
    55    32    51    1
    56     4    52    1
    57     5    53    1
    58     6    54    1
    59    20    55    1
    60    26    56    1
    61    27    57    1
    62    28    58    1
    63    29    59    1
