@<TRIPOS>MOLECULE
mol95_1_1
 44 46 0 0 0
SMALL
USER_CHARGES
****
VDW energy = 99.52
@<TRIPOS>ATOM
   1 O1        0.4027     6.1580     2.7719  O.2     1  <O>11      -0.2687
   2 C1        0.6752     6.0132     3.9543  C.2     1  <O>11       0.2602
   3 N1       -0.1260     6.5700     4.9150  N.am    1  <O>11      -0.2301
   4 N2       -1.2360     7.2920     4.5490  N.am    1  <O>11      -0.2301
   5 C2       -1.9328     8.0023     5.4903  C.2     1  <O>11       0.2602
   6 O2       -1.5679     7.9933     6.6558  O.2     1  <O>11      -0.2687
   7 C3       -3.1098     8.7682     5.1013  C.ar    1  <O>11       0.0400
   8 C4       -3.1343    10.1625     5.2639  C.ar    1  <O>11      -0.0495
   9 C5       -4.2697    10.8959     4.9016  C.ar    1  <O>11      -0.0592
  10 C6       -5.3873    10.2461     4.3708  C.ar    1  <O>11      -0.0350
  11 C7       -5.3589     8.8570     4.2030  C.ar    1  <O>11       0.1092
  12 S1       -6.7695     8.0425     3.5342  S.O2    1  <O>11       0.0724
  13 O3       -6.2986     6.6317     2.7972  O.2     1  <O>11      -0.1500
  14 O4       -7.5014     9.0322     2.4178  O.2     1  <O>11      -0.1500
  15 N3       -7.8351     7.6999     4.7486  N.pl3   1  <O>11      -0.2135
  16 C8       -8.7166     6.5528     4.6382  C.ar    1  <O>11       0.0831
  17 C9       -9.7306     6.5280     3.6651  C.ar    1  <O>11      -0.0365
  18 C10     -10.5900     5.4282     3.5680  C.ar    1  <O>11      -0.0598
  19 C11     -10.4405     4.3412     4.4357  C.ar    1  <O>11      -0.0589
  20 C12      -9.4272     4.3644     5.4004  C.ar    1  <O>11      -0.0246
  21 C13      -8.5665     5.4560     5.5032  C.ar    1  <O>11       0.1456
  22 F1       -7.5678     5.4743     6.4437  F       1  <O>11      -0.2035
  23 C14      -4.2321     8.1172     4.5594  C.ar    1  <O>11      -0.0229
  24 C15       1.8450     5.2530     4.3400  C.ar    1  <O>11       0.0410
  25 C16       3.1262     5.7903     4.2478  C.ar    1  <O>11      -0.0314
  26 C17       4.1974     4.9943     4.6127  C.ar    1  <O>11       0.0283
  27 N4        4.0735     3.7275     5.0602  N.ar    1  <O>11      -0.2632
  28 C18       2.8384     3.2117     5.1638  C.ar    1  <O>11       0.0283
  29 C19       1.7039     3.9454     4.8181  C.ar    1  <O>11      -0.0314
  30 H1        0.1010     6.4490     5.9020  H       1  <O>11       0.1731
  31 H2       -1.5414     7.2995     3.5758  H       1  <O>11       0.1731
  32 H3       -7.8742     8.2939     5.5757  H       1  <O>11       0.1738
  33 H4       -2.3111    10.6488     5.6523  H       1  <O>11       0.0625
  34 H5       -4.2818    11.9201     5.0268  H       1  <O>11       0.0618
  35 H6       -6.2258    10.7858     4.1050  H       1  <O>11       0.0637
  36 H7       -9.8418     7.3251     3.0191  H       1  <O>11       0.0637
  37 H8      -11.3357     5.4188     2.8546  H       1  <O>11       0.0618
  38 H9      -11.0727     3.5285     4.3649  H       1  <O>11       0.0618
  39 H10      -9.3158     3.5644     6.0429  H       1  <O>11       0.0647
  40 H11      -4.2218     7.0939     4.4259  H       1  <O>11       0.0645
  41 H12       3.2729     6.7565     3.9162  H       1  <O>11       0.0640
  42 H13       5.1465     5.3927     4.5382  H       1  <O>11       0.0830
  43 H14       2.7254     2.2456     5.5087  H       1  <O>11       0.0830
  44 H15       0.7658     3.5265     4.9144  H       1  <O>11       0.0640
@<TRIPOS>BOND
     1     1     2    2
     2     2     3   am
     3     3     4    1
     4     4     5   am
     5     5     6    2
     6     5     7    1
     7     7     8   ar
     8     8     9   ar
     9     9    10   ar
    10    10    11   ar
    11    11    12    1
    12    12    13    2
    13    12    14    2
    14    12    15    1
    15    15    16    1
    16    16    17   ar
    17    17    18   ar
    18    18    19   ar
    19    19    20   ar
    20    20    21   ar
    21    16    21   ar
    22    21    22    1
    23    11    23   ar
    24     7    23   ar
    25     2    24    1
    26    24    25   ar
    27    25    26   ar
    28    26    27   ar
    29    27    28   ar
    30    28    29   ar
    31    24    29   ar
    32     3    30    1
    33     4    31    1
    34    15    32    1
    35     8    33    1
    36     9    34    1
    37    10    35    1
    38    17    36    1
    39    18    37    1
    40    19    38    1
    41    20    39    1
    42    23    40    1
    43    25    41    1
    44    26    42    1
    45    28    43    1
    46    29    44    1
@<TRIPOS>MOLECULE
mol95_1_2
 44 46 0 0 0
SMALL
USER_CHARGES
****
VDW energy = 100.42
@<TRIPOS>ATOM
   1 O1        0.4027     6.1580     2.7719  O.2     1  <O>11      -0.2687
   2 C1        0.6752     6.0132     3.9543  C.2     1  <O>11       0.2602
   3 N1       -0.1260     6.5700     4.9150  N.am    1  <O>11      -0.2301
   4 N2       -1.2360     7.2920     4.5490  N.am    1  <O>11      -0.2301
   5 C2       -1.9328     8.0023     5.4903  C.2     1  <O>11       0.2602
   6 O2       -1.5679     7.9933     6.6558  O.2     1  <O>11      -0.2687
   7 C3       -3.1098     8.7682     5.1013  C.ar    1  <O>11       0.0400
   8 C4       -3.1343    10.1625     5.2639  C.ar    1  <O>11      -0.0495
   9 C5       -4.2697    10.8959     4.9016  C.ar    1  <O>11      -0.0592
  10 C6       -5.3873    10.2461     4.3708  C.ar    1  <O>11      -0.0350
  11 C7       -5.3589     8.8570     4.2030  C.ar    1  <O>11       0.1092
  12 S1       -6.7695     8.0425     3.5342  S.O2    1  <O>11       0.0724
  13 O3       -8.0821     8.3106     4.5141  O.2     1  <O>11      -0.1500
  14 O4       -6.4725     6.4100     3.4417  O.2     1  <O>11      -0.1500
  15 N3       -7.0812     8.6318     2.0232  N.pl3   1  <O>11      -0.2135
  16 C8       -8.4393     8.6385     1.5130  C.ar    1  <O>11       0.0831
  17 C9       -9.1003     7.4287     1.2387  C.ar    1  <O>11      -0.0365
  18 C10     -10.4049     7.4352     0.7330  C.ar    1  <O>11      -0.0598
  19 C11     -11.0632     8.6479     0.5034  C.ar    1  <O>11      -0.0589
  20 C12     -10.4064     9.8516     0.7820  C.ar    1  <O>11      -0.0246
  21 C13      -9.1070     9.8537     1.2867  C.ar    1  <O>11       0.1456
  22 F1       -8.4667    11.0341     1.5676  F       1  <O>11      -0.2035
  23 C14      -4.2321     8.1172     4.5594  C.ar    1  <O>11      -0.0229
  24 C15       1.8450     5.2530     4.3400  C.ar    1  <O>11       0.0410
  25 C16       3.1262     5.7903     4.2478  C.ar    1  <O>11      -0.0314
  26 C17       4.1974     4.9943     4.6127  C.ar    1  <O>11       0.0283
  27 N4        4.0735     3.7275     5.0602  N.ar    1  <O>11      -0.2632
  28 C18       2.8384     3.2117     5.1638  C.ar    1  <O>11       0.0283
  29 C19       1.7039     3.9454     4.8181  C.ar    1  <O>11      -0.0314
  30 H1        0.1010     6.4490     5.9020  H       1  <O>11       0.1731
  31 H2       -1.5414     7.2995     3.5758  H       1  <O>11       0.1731
  32 H3       -6.3200     8.9909     1.4486  H       1  <O>11       0.1738
  33 H4       -2.3111    10.6488     5.6523  H       1  <O>11       0.0625
  34 H5       -4.2818    11.9201     5.0268  H       1  <O>11       0.0618
  35 H6       -6.2258    10.7858     4.1050  H       1  <O>11       0.0637
  36 H7       -8.6210     6.5313     1.4113  H       1  <O>11       0.0637
  37 H8      -10.8824     6.5433     0.5289  H       1  <O>11       0.0618
  38 H9      -12.0259     8.6548     0.1315  H       1  <O>11       0.0618
  39 H10     -10.8893    10.7478     0.6120  H       1  <O>11       0.0647
  40 H11      -4.2218     7.0939     4.4259  H       1  <O>11       0.0645
  41 H12       3.2729     6.7565     3.9162  H       1  <O>11       0.0640
  42 H13       5.1465     5.3927     4.5382  H       1  <O>11       0.0830
  43 H14       2.7254     2.2456     5.5087  H       1  <O>11       0.0830
  44 H15       0.7658     3.5265     4.9144  H       1  <O>11       0.0640
@<TRIPOS>BOND
     1     1     2    2
     2     2     3   am
     3     3     4    1
     4     4     5   am
     5     5     6    2
     6     5     7    1
     7     7     8   ar
     8     8     9   ar
     9     9    10   ar
    10    10    11   ar
    11    11    12    1
    12    12    13    2
    13    12    14    2
    14    12    15    1
    15    15    16    1
    16    16    17   ar
    17    17    18   ar
    18    18    19   ar
    19    19    20   ar
    20    20    21   ar
    21    16    21   ar
    22    21    22    1
    23    11    23   ar
    24     7    23   ar
    25     2    24    1
    26    24    25   ar
    27    25    26   ar
    28    26    27   ar
    29    27    28   ar
    30    28    29   ar
    31    24    29   ar
    32     3    30    1
    33     4    31    1
    34    15    32    1
    35     8    33    1
    36     9    34    1
    37    10    35    1
    38    17    36    1
    39    18    37    1
    40    19    38    1
    41    20    39    1
    42    23    40    1
    43    25    41    1
    44    26    42    1
    45    28    43    1
    46    29    44    1
@<TRIPOS>MOLECULE
mol95_1_3
 44 46 0 0 0
SMALL
USER_CHARGES
****
VDW energy = 100.56
@<TRIPOS>ATOM
   1 O1        0.4027     6.1580     2.7719  O.2     1  <O>11      -0.2687
   2 C1        0.6752     6.0132     3.9543  C.2     1  <O>11       0.2602
   3 N1       -0.1260     6.5700     4.9150  N.am    1  <O>11      -0.2301
   4 N2       -1.2360     7.2920     4.5490  N.am    1  <O>11      -0.2301
   5 C2       -1.9328     8.0023     5.4903  C.2     1  <O>11       0.2602
   6 O2       -1.5679     7.9933     6.6558  O.2     1  <O>11      -0.2687
   7 C3       -3.1098     8.7682     5.1013  C.ar    1  <O>11       0.0400
   8 C4       -3.1343    10.1625     5.2639  C.ar    1  <O>11      -0.0495
   9 C5       -4.2697    10.8959     4.9016  C.ar    1  <O>11      -0.0592
  10 C6       -5.3873    10.2461     4.3708  C.ar    1  <O>11      -0.0350
  11 C7       -5.3589     8.8570     4.2030  C.ar    1  <O>11       0.1092
  12 S1       -6.7695     8.0425     3.5342  S.O2    1  <O>11       0.0724
  13 O3       -8.1416     8.8820     3.9436  O.2     1  <O>11      -0.1500
  14 O4       -6.8602     6.5010     4.1485  O.2     1  <O>11      -0.1500
  15 N3       -6.6371     7.9727     1.8894  N.pl3   1  <O>11      -0.2135
  16 C8       -7.8313     7.9527     1.0657  C.ar    1  <O>11       0.0831
  17 C9       -8.6981     6.8468     1.0991  C.ar    1  <O>11      -0.0365
  18 C10      -9.8421     6.8211     0.2940  C.ar    1  <O>11      -0.0598
  19 C11     -10.1346     7.9010    -0.5455  C.ar    1  <O>11      -0.0589
  20 C12      -9.2740     9.0041    -0.5740  C.ar    1  <O>11      -0.0246
  21 C13      -8.1327     9.0377     0.2255  C.ar    1  <O>11       0.1456
  22 F1       -7.2939    10.1231     0.2035  F       1  <O>11      -0.2035
  23 C14      -4.2321     8.1172     4.5594  C.ar    1  <O>11      -0.0229
  24 C15       1.8450     5.2530     4.3400  C.ar    1  <O>11       0.0410
  25 C16       3.1262     5.7903     4.2478  C.ar    1  <O>11      -0.0314
  26 C17       4.1974     4.9943     4.6127  C.ar    1  <O>11       0.0283
  27 N4        4.0735     3.7275     5.0602  N.ar    1  <O>11      -0.2632
  28 C18       2.8384     3.2117     5.1638  C.ar    1  <O>11       0.0283
  29 C19       1.7039     3.9454     4.8181  C.ar    1  <O>11      -0.0314
  30 H1        0.1010     6.4490     5.9020  H       1  <O>11       0.1731
  31 H2       -1.5414     7.2995     3.5758  H       1  <O>11       0.1731
  32 H3       -5.7169     7.9435     1.4525  H       1  <O>11       0.1738
  33 H4       -2.3111    10.6488     5.6523  H       1  <O>11       0.0625
  34 H5       -4.2818    11.9201     5.0268  H       1  <O>11       0.0618
  35 H6       -6.2258    10.7858     4.1050  H       1  <O>11       0.0637
  36 H7       -8.4897     6.0498     1.7206  H       1  <O>11       0.0637
  37 H8      -10.4715     6.0035     0.3196  H       1  <O>11       0.0618
  38 H9      -10.9785     7.8845    -1.1393  H       1  <O>11       0.0618
  39 H10      -9.4867     9.8014    -1.1937  H       1  <O>11       0.0647
  40 H11      -4.2218     7.0939     4.4259  H       1  <O>11       0.0645
  41 H12       3.2729     6.7565     3.9162  H       1  <O>11       0.0640
  42 H13       5.1465     5.3927     4.5382  H       1  <O>11       0.0830
  43 H14       2.7254     2.2456     5.5087  H       1  <O>11       0.0830
  44 H15       0.7658     3.5265     4.9144  H       1  <O>11       0.0640
@<TRIPOS>BOND
     1     1     2    2
     2     2     3   am
     3     3     4    1
     4     4     5   am
     5     5     6    2
     6     5     7    1
     7     7     8   ar
     8     8     9   ar
     9     9    10   ar
    10    10    11   ar
    11    11    12    1
    12    12    13    2
    13    12    14    2
    14    12    15    1
    15    15    16    1
    16    16    17   ar
    17    17    18   ar
    18    18    19   ar
    19    19    20   ar
    20    20    21   ar
    21    16    21   ar
    22    21    22    1
    23    11    23   ar
    24     7    23   ar
    25     2    24    1
    26    24    25   ar
    27    25    26   ar
    28    26    27   ar
    29    27    28   ar
    30    28    29   ar
    31    24    29   ar
    32     3    30    1
    33     4    31    1
    34    15    32    1
    35     8    33    1
    36     9    34    1
    37    10    35    1
    38    17    36    1
    39    18    37    1
    40    19    38    1
    41    20    39    1
    42    23    40    1
    43    25    41    1
    44    26    42    1
    45    28    43    1
    46    29    44    1
@<TRIPOS>MOLECULE
mol95_1_4
 44 46 0 0 0
SMALL
USER_CHARGES
****
VDW energy = 100.68
@<TRIPOS>ATOM
   1 O1        0.4027     6.1580     2.7719  O.2     1  <O>11      -0.2687
   2 C1        0.6752     6.0132     3.9543  C.2     1  <O>11       0.2602
   3 N1       -0.1260     6.5700     4.9150  N.am    1  <O>11      -0.2301
   4 N2       -1.2360     7.2920     4.5490  N.am    1  <O>11      -0.2301
   5 C2       -1.9328     8.0023     5.4903  C.2     1  <O>11       0.2602
   6 O2       -1.5679     7.9933     6.6558  O.2     1  <O>11      -0.2687
   7 C3       -3.1098     8.7682     5.1013  C.ar    1  <O>11       0.0400
   8 C4       -3.1343    10.1625     5.2639  C.ar    1  <O>11      -0.0495
   9 C5       -4.2697    10.8959     4.9016  C.ar    1  <O>11      -0.0592
  10 C6       -5.3873    10.2461     4.3708  C.ar    1  <O>11      -0.0350
  11 C7       -5.3589     8.8570     4.2030  C.ar    1  <O>11       0.1092
  12 S1       -6.7695     8.0425     3.5342  S.O2    1  <O>11       0.0724
  13 O3       -6.2986     6.6317     2.7972  O.2     1  <O>11      -0.1500
  14 O4       -7.5014     9.0322     2.4178  O.2     1  <O>11      -0.1500
  15 N3       -7.8351     7.6999     4.7486  N.pl3   1  <O>11      -0.2135
  16 C8       -8.7166     6.5528     4.6382  C.ar    1  <O>11       0.0831
  17 C9       -8.3108     5.2968     5.1212  C.ar    1  <O>11      -0.0365
  18 C10      -9.1549     4.1874     5.0018  C.ar    1  <O>11      -0.0598
  19 C11     -10.4133     4.3231     4.4061  C.ar    1  <O>11      -0.0589
  20 C12     -10.8187     5.5752     3.9306  C.ar    1  <O>11      -0.0246
  21 C13      -9.9839     6.6854     4.0464  C.ar    1  <O>11       0.1456
  22 F1      -10.3855     7.9145     3.5876  F       1  <O>11      -0.2035
  23 C14      -4.2321     8.1172     4.5594  C.ar    1  <O>11      -0.0229
  24 C15       1.8450     5.2530     4.3400  C.ar    1  <O>11       0.0410
  25 C16       3.1262     5.7903     4.2478  C.ar    1  <O>11      -0.0314
  26 C17       4.1974     4.9943     4.6127  C.ar    1  <O>11       0.0283
  27 N4        4.0735     3.7275     5.0602  N.ar    1  <O>11      -0.2632
  28 C18       2.8384     3.2117     5.1638  C.ar    1  <O>11       0.0283
  29 C19       1.7039     3.9454     4.8181  C.ar    1  <O>11      -0.0314
  30 H1        0.1010     6.4490     5.9020  H       1  <O>11       0.1731
  31 H2       -1.5414     7.2995     3.5758  H       1  <O>11       0.1731
  32 H3       -7.8742     8.2939     5.5757  H       1  <O>11       0.1738
  33 H4       -2.3111    10.6488     5.6523  H       1  <O>11       0.0625
  34 H5       -4.2818    11.9201     5.0268  H       1  <O>11       0.0618
  35 H6       -6.2258    10.7858     4.1050  H       1  <O>11       0.0637
  36 H7       -7.3856     5.1924     5.5662  H       1  <O>11       0.0637
  37 H8       -8.8485     3.2669     5.3539  H       1  <O>11       0.0618
  38 H9      -11.0379     3.5063     4.3181  H       1  <O>11       0.0618
  39 H10     -11.7460     5.6777     3.4892  H       1  <O>11       0.0647
  40 H11      -4.2218     7.0939     4.4259  H       1  <O>11       0.0645
  41 H12       3.2729     6.7565     3.9162  H       1  <O>11       0.0640
  42 H13       5.1465     5.3927     4.5382  H       1  <O>11       0.0830
  43 H14       2.7254     2.2456     5.5087  H       1  <O>11       0.0830
  44 H15       0.7658     3.5265     4.9144  H       1  <O>11       0.0640
@<TRIPOS>BOND
     1     1     2    2
     2     2     3   am
     3     3     4    1
     4     4     5   am
     5     5     6    2
     6     5     7    1
     7     7     8   ar
     8     8     9   ar
     9     9    10   ar
    10    10    11   ar
    11    11    12    1
    12    12    13    2
    13    12    14    2
    14    12    15    1
    15    15    16    1
    16    16    17   ar
    17    17    18   ar
    18    18    19   ar
    19    19    20   ar
    20    20    21   ar
    21    16    21   ar
    22    21    22    1
    23    11    23   ar
    24     7    23   ar
    25     2    24    1
    26    24    25   ar
    27    25    26   ar
    28    26    27   ar
    29    27    28   ar
    30    28    29   ar
    31    24    29   ar
    32     3    30    1
    33     4    31    1
    34    15    32    1
    35     8    33    1
    36     9    34    1
    37    10    35    1
    38    17    36    1
    39    18    37    1
    40    19    38    1
    41    20    39    1
    42    23    40    1
    43    25    41    1
    44    26    42    1
    45    28    43    1
    46    29    44    1
@<TRIPOS>MOLECULE
mol95_1_5
 44 46 0 0 0
SMALL
USER_CHARGES
****
VDW energy = 100.96
@<TRIPOS>ATOM
   1 O1        0.4027     6.1580     2.7719  O.2     1  <O>11      -0.2687
   2 C1        0.6752     6.0132     3.9543  C.2     1  <O>11       0.2602
   3 N1       -0.1260     6.5700     4.9150  N.am    1  <O>11      -0.2301
   4 N2       -1.2360     7.2920     4.5490  N.am    1  <O>11      -0.2301
   5 C2       -1.9328     8.0023     5.4903  C.2     1  <O>11       0.2602
   6 O2       -1.5679     7.9933     6.6558  O.2     1  <O>11      -0.2687
   7 C3       -3.1098     8.7682     5.1013  C.ar    1  <O>11       0.0400
   8 C4       -4.3817     8.1743     5.1240  C.ar    1  <O>11      -0.0495
   9 C5       -5.5101     8.9067     4.7384  C.ar    1  <O>11      -0.0592
  10 C6       -5.3801    10.2372     4.3315  C.ar    1  <O>11      -0.0350
  11 C7       -4.1125    10.8300     4.3158  C.ar    1  <O>11       0.1092
  12 S1       -3.9533    12.5066     3.8020  S.O2    1  <O>11       0.0724
  13 O3       -4.4988    12.6636     2.2422  O.2     1  <O>11      -0.1500
  14 O4       -2.3557    12.9583     3.8774  O.2     1  <O>11      -0.1500
  15 N3       -4.8467    13.4752     4.7976  N.pl3   1  <O>11      -0.2135
  16 C8       -4.5597    13.5159     6.2192  C.ar    1  <O>11       0.0831
  17 C9       -4.7878    12.3849     7.0219  C.ar    1  <O>11      -0.0365
  18 C10      -4.5247    12.4285     8.3954  C.ar    1  <O>11      -0.0598
  19 C11      -4.0253    13.5980     8.9781  C.ar    1  <O>11      -0.0589
  20 C12      -3.7932    14.7218     8.1772  C.ar    1  <O>11      -0.0246
  21 C13      -4.0521    14.6862     6.8080  C.ar    1  <O>11       0.1456
  22 F1       -3.8164    15.7855     6.0219  F       1  <O>11      -0.2035
  23 C14      -2.9820    10.1095     4.6995  C.ar    1  <O>11      -0.0229
  24 C15       1.8450     5.2530     4.3400  C.ar    1  <O>11       0.0410
  25 C16       3.1262     5.7903     4.2478  C.ar    1  <O>11      -0.0314
  26 C17       4.1974     4.9943     4.6127  C.ar    1  <O>11       0.0283
  27 N4        4.0735     3.7275     5.0602  N.ar    1  <O>11      -0.2632
  28 C18       2.8384     3.2117     5.1638  C.ar    1  <O>11       0.0283
  29 C19       1.7039     3.9454     4.8181  C.ar    1  <O>11      -0.0314
  30 H1        0.1010     6.4490     5.9020  H       1  <O>11       0.1731
  31 H2       -1.5414     7.2995     3.5758  H       1  <O>11       0.1731
  32 H3       -5.5999    14.0445     4.4140  H       1  <O>11       0.1738
  33 H4       -4.4850     7.1930     5.4264  H       1  <O>11       0.0625
  34 H5       -6.4415     8.4626     4.7545  H       1  <O>11       0.0618
  35 H6       -6.2113    10.7777     4.0451  H       1  <O>11       0.0637
  36 H7       -5.1511    11.5179     6.5960  H       1  <O>11       0.0637
  37 H8       -4.6994    11.5960     8.9798  H       1  <O>11       0.0618
  38 H9       -3.8295    13.6319     9.9909  H       1  <O>11       0.0618
  39 H10      -3.4264    15.5864     8.6049  H       1  <O>11       0.0647
  40 H11      -2.0535    10.5598     4.6885  H       1  <O>11       0.0645
  41 H12       3.2729     6.7565     3.9162  H       1  <O>11       0.0640
  42 H13       5.1465     5.3927     4.5382  H       1  <O>11       0.0830
  43 H14       2.7254     2.2456     5.5087  H       1  <O>11       0.0830
  44 H15       0.7658     3.5265     4.9144  H       1  <O>11       0.0640
@<TRIPOS>BOND
     1     1     2    2
     2     2     3   am
     3     3     4    1
     4     4     5   am
     5     5     6    2
     6     5     7    1
     7     7     8   ar
     8     8     9   ar
     9     9    10   ar
    10    10    11   ar
    11    11    12    1
    12    12    13    2
    13    12    14    2
    14    12    15    1
    15    15    16    1
    16    16    17   ar
    17    17    18   ar
    18    18    19   ar
    19    19    20   ar
    20    20    21   ar
    21    16    21   ar
    22    21    22    1
    23    11    23   ar
    24     7    23   ar
    25     2    24    1
    26    24    25   ar
    27    25    26   ar
    28    26    27   ar
    29    27    28   ar
    30    28    29   ar
    31    24    29   ar
    32     3    30    1
    33     4    31    1
    34    15    32    1
    35     8    33    1
    36     9    34    1
    37    10    35    1
    38    17    36    1
    39    18    37    1
    40    19    38    1
    41    20    39    1
    42    23    40    1
    43    25    41    1
    44    26    42    1
    45    28    43    1
    46    29    44    1
@<TRIPOS>MOLECULE
mol95_1_6
 44 46 0 0 0
SMALL
USER_CHARGES
****
VDW energy = 101.81
@<TRIPOS>ATOM
   1 O1        0.4027     6.1580     2.7719  O.2     1  <O>11      -0.2687
   2 C1        0.6752     6.0132     3.9543  C.2     1  <O>11       0.2602
   3 N1       -0.1260     6.5700     4.9150  N.am    1  <O>11      -0.2301
   4 N2        0.1812     6.4066     6.2440  N.am    1  <O>11      -0.2301
   5 C2       -0.7101     6.7999     7.2069  C.2     1  <O>11       0.2602
   6 O2       -1.7780     7.2969     6.8842  O.2     1  <O>11      -0.2687
   7 C3       -0.3837     6.6259     8.6164  C.ar    1  <O>11       0.0400
   8 C4       -1.1726     5.7971     9.4300  C.ar    1  <O>11      -0.0495
   9 C5       -0.8659     5.6403    10.7863  C.ar    1  <O>11      -0.0592
  10 C6        0.2314     6.3046    11.3410  C.ar    1  <O>11      -0.0350
  11 C7        1.0208     7.1252    10.5273  C.ar    1  <O>11       0.1092
  12 S1        2.4020     7.9606    11.2305  S.O2    1  <O>11       0.0724
  13 O3        3.5298     8.2602    10.0500  O.2     1  <O>11      -0.1500
  14 O4        3.0790     7.0100    12.4136  O.2     1  <O>11      -0.1500
  15 N3        1.9036     9.3900    11.8909  N.pl3   1  <O>11      -0.2135
  16 C8        2.8177    10.5145    11.9614  C.ar    1  <O>11       0.0831
  17 C9        3.9482    10.4589    12.7946  C.ar    1  <O>11      -0.0365
  18 C10       4.8220    11.5489    12.8737  C.ar    1  <O>11      -0.0598
  19 C11       4.5791    12.7001    12.1171  C.ar    1  <O>11      -0.0589
  20 C12       3.4564    12.7523    11.2835  C.ar    1  <O>11      -0.0246
  21 C13       2.5815    11.6705    11.1986  C.ar    1  <O>11       0.1456
  22 F1        1.4856    11.7190    10.3747  F       1  <O>11      -0.2035
  23 C14       0.7247     7.2870     9.1744  C.ar    1  <O>11      -0.0229
  24 C15       1.8450     5.2530     4.3400  C.ar    1  <O>11       0.0410
  25 C16       3.1262     5.7903     4.2478  C.ar    1  <O>11      -0.0314
  26 C17       4.1974     4.9943     4.6127  C.ar    1  <O>11       0.0283
  27 N4        4.0735     3.7275     5.0602  N.ar    1  <O>11      -0.2632
  28 C18       2.8384     3.2117     5.1638  C.ar    1  <O>11       0.0283
  29 C19       1.7039     3.9454     4.8181  C.ar    1  <O>11      -0.0314
  30 H1       -0.9506     7.1058     4.6443  H       1  <O>11       0.1731
  31 H2        1.0731     5.9920     6.5141  H       1  <O>11       0.1731
  32 H3        0.9541     9.4827    12.2493  H       1  <O>11       0.1738
  33 H4       -1.9824     5.3012     9.0258  H       1  <O>11       0.0625
  34 H5       -1.4520     5.0320    11.3790  H       1  <O>11       0.0618
  35 H6        0.4574     6.1912    12.3415  H       1  <O>11       0.0637
  36 H7        4.1348     9.6100    13.3509  H       1  <O>11       0.0637
  37 H8        5.6474    11.5034    13.4916  H       1  <O>11       0.0618
  38 H9        5.2230    13.5047    12.1731  H       1  <O>11       0.0618
  39 H10       3.2741    13.6011    10.7255  H       1  <O>11       0.0647
  40 H11       1.3177     7.8908     8.5838  H       1  <O>11       0.0645
  41 H12       3.2729     6.7565     3.9162  H       1  <O>11       0.0640
  42 H13       5.1465     5.3927     4.5382  H       1  <O>11       0.0830
  43 H14       2.7254     2.2456     5.5087  H       1  <O>11       0.0830
  44 H15       0.7658     3.5265     4.9144  H       1  <O>11       0.0640
@<TRIPOS>BOND
     1     1     2    2
     2     2     3   am
     3     3     4    1
     4     4     5   am
     5     5     6    2
     6     5     7    1
     7     7     8   ar
     8     8     9   ar
     9     9    10   ar
    10    10    11   ar
    11    11    12    1
    12    12    13    2
    13    12    14    2
    14    12    15    1
    15    15    16    1
    16    16    17   ar
    17    17    18   ar
    18    18    19   ar
    19    19    20   ar
    20    20    21   ar
    21    16    21   ar
    22    21    22    1
    23    11    23   ar
    24     7    23   ar
    25     2    24    1
    26    24    25   ar
    27    25    26   ar
    28    26    27   ar
    29    27    28   ar
    30    28    29   ar
    31    24    29   ar
    32     3    30    1
    33     4    31    1
    34    15    32    1
    35     8    33    1
    36     9    34    1
    37    10    35    1
    38    17    36    1
    39    18    37    1
    40    19    38    1
    41    20    39    1
    42    23    40    1
    43    25    41    1
    44    26    42    1
    45    28    43    1
    46    29    44    1
@<TRIPOS>MOLECULE
mol95_1_7
 44 46 0 0 0
SMALL
USER_CHARGES
****
VDW energy = 102.75
@<TRIPOS>ATOM
   1 O1        0.4027     6.1580     2.7719  O.2     1  <O>11      -0.2687
   2 C1        0.6752     6.0132     3.9543  C.2     1  <O>11       0.2602
   3 N1       -0.1260     6.5700     4.9150  N.am    1  <O>11      -0.2301
   4 N2       -1.2360     7.2920     4.5490  N.am    1  <O>11      -0.2301
   5 C2       -1.9328     8.0023     5.4903  C.2     1  <O>11       0.2602
   6 O2       -2.9191     8.6445     5.1643  O.2     1  <O>11      -0.2687
   7 C3       -1.4967     7.9924     6.8807  C.ar    1  <O>11       0.0400
   8 C4       -2.3339     7.4768     7.8829  C.ar    1  <O>11      -0.0495
   9 C5       -1.9195     7.4790     9.2195  C.ar    1  <O>11      -0.0592
  10 C6       -0.6665     7.9908     9.5669  C.ar    1  <O>11      -0.0350
  11 C7        0.1698     8.4983     8.5660  C.ar    1  <O>11       0.1092
  12 S1        1.7476     9.1426     9.0083  S.O2    1  <O>11       0.0724
  13 O3        2.7799     9.0208     7.7142  O.2     1  <O>11      -0.1500
  14 O4        2.3595     8.2759    10.2874  O.2     1  <O>11      -0.1500
  15 N3        1.5932    10.7288     9.4417  N.pl3   1  <O>11      -0.2135
  16 C8        1.0751    11.6938     8.4903  C.ar    1  <O>11       0.0831
  17 C9        1.8122    12.0217     7.3393  C.ar    1  <O>11      -0.0365
  18 C10       1.3194    12.9630     6.4290  C.ar    1  <O>11      -0.0598
  19 C11       0.0843    13.5795     6.6555  C.ar    1  <O>11      -0.0589
  20 C12      -0.6513    13.2483     7.7988  C.ar    1  <O>11      -0.0246
  21 C13      -0.1676    12.3110     8.7102  C.ar    1  <O>11       0.1456
  22 F1       -0.8934    11.9804     9.8265  F       1  <O>11      -0.2035
  23 C14      -0.2330     8.4994     7.2311  C.ar    1  <O>11      -0.0229
  24 C15       1.8450     5.2530     4.3400  C.ar    1  <O>11       0.0410
  25 C16       3.1262     5.7903     4.2478  C.ar    1  <O>11      -0.0314
  26 C17       4.1974     4.9943     4.6127  C.ar    1  <O>11       0.0283
  27 N4        4.0735     3.7275     5.0602  N.ar    1  <O>11      -0.2632
  28 C18       2.8384     3.2117     5.1638  C.ar    1  <O>11       0.0283
  29 C19       1.7039     3.9454     4.8181  C.ar    1  <O>11      -0.0314
  30 H1        0.1010     6.4490     5.9020  H       1  <O>11       0.1731
  31 H2       -1.5414     7.2995     3.5758  H       1  <O>11       0.1731
  32 H3        1.8619    11.0304    10.3774  H       1  <O>11       0.1738
  33 H4       -3.2592     7.0945     7.6326  H       1  <O>11       0.0625
  34 H5       -2.5415     7.1013     9.9512  H       1  <O>11       0.0618
  35 H6       -0.3606     7.9946    10.5525  H       1  <O>11       0.0637
  36 H7        2.7214    11.5658     7.1648  H       1  <O>11       0.0637
  37 H8        1.8682    13.2030     5.5885  H       1  <O>11       0.0618
  38 H9       -0.2815    14.2733     5.9847  H       1  <O>11       0.0618
  39 H10      -1.5621    13.7029     7.9692  H       1  <O>11       0.0647
  40 H11       0.3952     8.8717     6.5017  H       1  <O>11       0.0645
  41 H12       3.2729     6.7565     3.9162  H       1  <O>11       0.0640
  42 H13       5.1465     5.3927     4.5382  H       1  <O>11       0.0830
  43 H14       2.7254     2.2456     5.5087  H       1  <O>11       0.0830
  44 H15       0.7658     3.5265     4.9144  H       1  <O>11       0.0640
@<TRIPOS>BOND
     1     1     2    2
     2     2     3   am
     3     3     4    1
     4     4     5   am
     5     5     6    2
     6     5     7    1
     7     7     8   ar
     8     8     9   ar
     9     9    10   ar
    10    10    11   ar
    11    11    12    1
    12    12    13    2
    13    12    14    2
    14    12    15    1
    15    15    16    1
    16    16    17   ar
    17    17    18   ar
    18    18    19   ar
    19    19    20   ar
    20    20    21   ar
    21    16    21   ar
    22    21    22    1
    23    11    23   ar
    24     7    23   ar
    25     2    24    1
    26    24    25   ar
    27    25    26   ar
    28    26    27   ar
    29    27    28   ar
    30    28    29   ar
    31    24    29   ar
    32     3    30    1
    33     4    31    1
    34    15    32    1
    35     8    33    1
    36     9    34    1
    37    10    35    1
    38    17    36    1
    39    18    37    1
    40    19    38    1
    41    20    39    1
    42    23    40    1
    43    25    41    1
    44    26    42    1
    45    28    43    1
    46    29    44    1
@<TRIPOS>MOLECULE
mol95_1_8
 44 46 0 0 0
SMALL
USER_CHARGES
****
VDW energy = 103.08
@<TRIPOS>ATOM
   1 O1        0.4027     6.1580     2.7719  O.2     1  <O>11      -0.2687
   2 C1        0.6752     6.0132     3.9543  C.2     1  <O>11       0.2602
   3 N1       -0.1260     6.5700     4.9150  N.am    1  <O>11      -0.2301
   4 N2       -1.2360     7.2920     4.5490  N.am    1  <O>11      -0.2301
   5 C2       -1.9328     8.0023     5.4903  C.2     1  <O>11       0.2602
   6 O2       -1.5679     7.9933     6.6558  O.2     1  <O>11      -0.2687
   7 C3       -3.1098     8.7682     5.1013  C.ar    1  <O>11       0.0400
   8 C4       -3.1343    10.1625     5.2639  C.ar    1  <O>11      -0.0495
   9 C5       -4.2697    10.8959     4.9016  C.ar    1  <O>11      -0.0592
  10 C6       -5.3873    10.2461     4.3708  C.ar    1  <O>11      -0.0350
  11 C7       -5.3589     8.8570     4.2030  C.ar    1  <O>11       0.1092
  12 S1       -6.7695     8.0425     3.5342  S.O2    1  <O>11       0.0724
  13 O3       -6.2986     6.6317     2.7972  O.2     1  <O>11      -0.1500
  14 O4       -7.5014     9.0322     2.4178  O.2     1  <O>11      -0.1500
  15 N3       -7.8351     7.6999     4.7486  N.pl3   1  <O>11      -0.2135
  16 C8       -8.3964     8.7742     5.5459  C.ar    1  <O>11       0.0831
  17 C9       -7.5745     9.5259     6.4031  C.ar    1  <O>11      -0.0365
  18 C10      -8.1182    10.5526     7.1829  C.ar    1  <O>11      -0.0598
  19 C11      -9.4847    10.8424     7.1087  C.ar    1  <O>11      -0.0589
  20 C12     -10.3012    10.0972     6.2507  C.ar    1  <O>11      -0.0246
  21 C13      -9.7671     9.0733     5.4702  C.ar    1  <O>11       0.1456
  22 F1      -10.5667     8.3487     4.6229  F       1  <O>11      -0.2035
  23 C14      -4.2321     8.1172     4.5594  C.ar    1  <O>11      -0.0229
  24 C15       1.8450     5.2530     4.3400  C.ar    1  <O>11       0.0410
  25 C16       3.1262     5.7903     4.2478  C.ar    1  <O>11      -0.0314
  26 C17       4.1974     4.9943     4.6127  C.ar    1  <O>11       0.0283
  27 N4        4.0735     3.7275     5.0602  N.ar    1  <O>11      -0.2632
  28 C18       2.8384     3.2117     5.1638  C.ar    1  <O>11       0.0283
  29 C19       1.7039     3.9454     4.8181  C.ar    1  <O>11      -0.0314
  30 H1        0.1010     6.4490     5.9020  H       1  <O>11       0.1731
  31 H2       -1.5414     7.2995     3.5758  H       1  <O>11       0.1731
  32 H3       -8.0988     6.7340     4.9385  H       1  <O>11       0.1738
  33 H4       -2.3111    10.6488     5.6523  H       1  <O>11       0.0625
  34 H5       -4.2818    11.9201     5.0268  H       1  <O>11       0.0618
  35 H6       -6.2258    10.7858     4.1050  H       1  <O>11       0.0637
  36 H7       -6.5648     9.3196     6.4576  H       1  <O>11       0.0637
  37 H8       -7.5098    11.0971     7.8141  H       1  <O>11       0.0618
  38 H9       -9.8875    11.6000     7.6822  H       1  <O>11       0.0618
  39 H10     -11.3100    10.3080     6.1954  H       1  <O>11       0.0647
  40 H11      -4.2218     7.0939     4.4259  H       1  <O>11       0.0645
  41 H12       3.2729     6.7565     3.9162  H       1  <O>11       0.0640
  42 H13       5.1465     5.3927     4.5382  H       1  <O>11       0.0830
  43 H14       2.7254     2.2456     5.5087  H       1  <O>11       0.0830
  44 H15       0.7658     3.5265     4.9144  H       1  <O>11       0.0640
@<TRIPOS>BOND
     1     1     2    2
     2     2     3   am
     3     3     4    1
     4     4     5   am
     5     5     6    2
     6     5     7    1
     7     7     8   ar
     8     8     9   ar
     9     9    10   ar
    10    10    11   ar
    11    11    12    1
    12    12    13    2
    13    12    14    2
    14    12    15    1
    15    15    16    1
    16    16    17   ar
    17    17    18   ar
    18    18    19   ar
    19    19    20   ar
    20    20    21   ar
    21    16    21   ar
    22    21    22    1
    23    11    23   ar
    24     7    23   ar
    25     2    24    1
    26    24    25   ar
    27    25    26   ar
    28    26    27   ar
    29    27    28   ar
    30    28    29   ar
    31    24    29   ar
    32     3    30    1
    33     4    31    1
    34    15    32    1
    35     8    33    1
    36     9    34    1
    37    10    35    1
    38    17    36    1
    39    18    37    1
    40    19    38    1
    41    20    39    1
    42    23    40    1
    43    25    41    1
    44    26    42    1
    45    28    43    1
    46    29    44    1
@<TRIPOS>MOLECULE
mol95_1_9
 44 46 0 0 0
SMALL
USER_CHARGES
****
VDW energy = 103.15
@<TRIPOS>ATOM
   1 O1        0.4027     6.1580     2.7719  O.2     1  <O>11      -0.2687
   2 C1        0.6752     6.0132     3.9543  C.2     1  <O>11       0.2602
   3 N1       -0.1260     6.5700     4.9150  N.am    1  <O>11      -0.2301
   4 N2       -1.2360     7.2920     4.5490  N.am    1  <O>11      -0.2301
   5 C2       -1.9328     8.0023     5.4903  C.2     1  <O>11       0.2602
   6 O2       -1.5679     7.9933     6.6558  O.2     1  <O>11      -0.2687
   7 C3       -3.1098     8.7682     5.1013  C.ar    1  <O>11       0.0400
   8 C4       -4.3817     8.1743     5.1240  C.ar    1  <O>11      -0.0495
   9 C5       -5.5101     8.9067     4.7384  C.ar    1  <O>11      -0.0592
  10 C6       -5.3801    10.2372     4.3315  C.ar    1  <O>11      -0.0350
  11 C7       -4.1125    10.8300     4.3158  C.ar    1  <O>11       0.1092
  12 S1       -3.9533    12.5066     3.8020  S.O2    1  <O>11       0.0724
  13 O3       -2.6033    13.1753     4.4989  O.2     1  <O>11      -0.1500
  14 O4       -5.2994    13.3593     4.2739  O.2     1  <O>11      -0.1500
  15 N3       -3.8113    12.5679     2.1577  N.pl3   1  <O>11      -0.2135
  16 C8       -4.8718    12.0434     1.3179  C.ar    1  <O>11       0.0831
  17 C9       -5.1463    10.6651     1.2991  C.ar    1  <O>11      -0.0365
  18 C10      -6.1594    10.1574     0.4784  C.ar    1  <O>11      -0.0598
  19 C11      -6.9116    11.0210    -0.3248  C.ar    1  <O>11      -0.0589
  20 C12      -6.6413    12.3938    -0.3012  C.ar    1  <O>11      -0.0246
  21 C13      -5.6342    12.9075     0.5141  C.ar    1  <O>11       0.1456
  22 F1       -5.3755    14.2545     0.5431  F       1  <O>11      -0.2035
  23 C14      -2.9820    10.1095     4.6995  C.ar    1  <O>11      -0.0229
  24 C15       1.8450     5.2530     4.3400  C.ar    1  <O>11       0.0410
  25 C16       3.1262     5.7903     4.2478  C.ar    1  <O>11      -0.0314
  26 C17       4.1974     4.9943     4.6127  C.ar    1  <O>11       0.0283
  27 N4        4.0735     3.7275     5.0602  N.ar    1  <O>11      -0.2632
  28 C18       2.8384     3.2117     5.1638  C.ar    1  <O>11       0.0283
  29 C19       1.7039     3.9454     4.8181  C.ar    1  <O>11      -0.0314
  30 H1        0.1010     6.4490     5.9020  H       1  <O>11       0.1731
  31 H2       -1.5414     7.2995     3.5758  H       1  <O>11       0.1731
  32 H3       -2.9790    12.9738     1.7322  H       1  <O>11       0.1738
  33 H4       -4.4850     7.1930     5.4264  H       1  <O>11       0.0625
  34 H5       -6.4415     8.4626     4.7545  H       1  <O>11       0.0618
  35 H6       -6.2113    10.7777     4.0451  H       1  <O>11       0.0637
  36 H7       -4.5978    10.0243     1.8937  H       1  <O>11       0.0637
  37 H8       -6.3521     9.1436     0.4656  H       1  <O>11       0.0618
  38 H9       -7.6600    10.6487    -0.9300  H       1  <O>11       0.0618
  39 H10      -7.1937    13.0330    -0.8941  H       1  <O>11       0.0647
  40 H11      -2.0535    10.5598     4.6885  H       1  <O>11       0.0645
  41 H12       3.2729     6.7565     3.9162  H       1  <O>11       0.0640
  42 H13       5.1465     5.3927     4.5382  H       1  <O>11       0.0830
  43 H14       2.7254     2.2456     5.5087  H       1  <O>11       0.0830
  44 H15       0.7658     3.5265     4.9144  H       1  <O>11       0.0640
@<TRIPOS>BOND
     1     1     2    2
     2     2     3   am
     3     3     4    1
     4     4     5   am
     5     5     6    2
     6     5     7    1
     7     7     8   ar
     8     8     9   ar
     9     9    10   ar
    10    10    11   ar
    11    11    12    1
    12    12    13    2
    13    12    14    2
    14    12    15    1
    15    15    16    1
    16    16    17   ar
    17    17    18   ar
    18    18    19   ar
    19    19    20   ar
    20    20    21   ar
    21    16    21   ar
    22    21    22    1
    23    11    23   ar
    24     7    23   ar
    25     2    24    1
    26    24    25   ar
    27    25    26   ar
    28    26    27   ar
    29    27    28   ar
    30    28    29   ar
    31    24    29   ar
    32     3    30    1
    33     4    31    1
    34    15    32    1
    35     8    33    1
    36     9    34    1
    37    10    35    1
    38    17    36    1
    39    18    37    1
    40    19    38    1
    41    20    39    1
    42    23    40    1
    43    25    41    1
    44    26    42    1
    45    28    43    1
    46    29    44    1
@<TRIPOS>MOLECULE
mol95_1_10
 44 46 0 0 0
SMALL
USER_CHARGES
****
VDW energy = 103.17
@<TRIPOS>ATOM
   1 O1        0.4027     6.1580     2.7719  O.2     1  <O>11      -0.2687
   2 C1        0.6752     6.0132     3.9543  C.2     1  <O>11       0.2602
   3 N1       -0.1260     6.5700     4.9150  N.am    1  <O>11      -0.2301
   4 N2        0.1812     6.4066     6.2440  N.am    1  <O>11      -0.2301
   5 C2       -0.7101     6.7999     7.2069  C.2     1  <O>11       0.2602
   6 O2       -1.7780     7.2969     6.8842  O.2     1  <O>11      -0.2687
   7 C3       -0.3837     6.6259     8.6164  C.ar    1  <O>11       0.0400
   8 C4       -1.1726     5.7971     9.4300  C.ar    1  <O>11      -0.0495
   9 C5       -0.8659     5.6403    10.7863  C.ar    1  <O>11      -0.0592
  10 C6        0.2314     6.3046    11.3410  C.ar    1  <O>11      -0.0350
  11 C7        1.0208     7.1252    10.5273  C.ar    1  <O>11       0.1092
  12 S1        2.4020     7.9606    11.2305  S.O2    1  <O>11       0.0724
  13 O3        1.8836     8.9651    12.4459  O.2     1  <O>11      -0.1500
  14 O4        3.1608     8.8590    10.0562  O.2     1  <O>11      -0.1500
  15 N3        3.4610     6.8528    11.8462  N.pl3   1  <O>11      -0.2135
  16 C8        4.3050     7.2041    12.9728  C.ar    1  <O>11       0.0831
  17 C9        5.3139     8.1721    12.8290  C.ar    1  <O>11      -0.0365
  18 C10       6.1375     8.5006    13.9114  C.ar    1  <O>11      -0.0598
  19 C11       5.9568     7.8715    15.1477  C.ar    1  <O>11      -0.0589
  20 C12       4.9485     6.9120    15.2914  C.ar    1  <O>11      -0.0246
  21 C13       4.1235     6.5797    14.2181  C.ar    1  <O>11       0.1456
  22 F1        3.1296     5.6450    14.3620  F       1  <O>11      -0.2035
  23 C14       0.7247     7.2870     9.1744  C.ar    1  <O>11      -0.0229
  24 C15       1.8450     5.2530     4.3400  C.ar    1  <O>11       0.0410
  25 C16       3.1262     5.7903     4.2478  C.ar    1  <O>11      -0.0314
  26 C17       4.1974     4.9943     4.6127  C.ar    1  <O>11       0.0283
  27 N4        4.0735     3.7275     5.0602  N.ar    1  <O>11      -0.2632
  28 C18       2.8384     3.2117     5.1638  C.ar    1  <O>11       0.0283
  29 C19       1.7039     3.9454     4.8181  C.ar    1  <O>11      -0.0314
  30 H1       -0.9506     7.1058     4.6443  H       1  <O>11       0.1731
  31 H2        1.0731     5.9920     6.5141  H       1  <O>11       0.1731
  32 H3        3.5222     5.9223    11.4352  H       1  <O>11       0.1738
  33 H4       -1.9824     5.3012     9.0258  H       1  <O>11       0.0625
  34 H5       -1.4520     5.0320    11.3790  H       1  <O>11       0.0618
  35 H6        0.4574     6.1912    12.3415  H       1  <O>11       0.0637
  36 H7        5.4479     8.6430    11.9205  H       1  <O>11       0.0637
  37 H8        6.8797     9.2085    13.7974  H       1  <O>11       0.0618
  38 H9        6.5625     8.1132    15.9476  H       1  <O>11       0.0618
  39 H10       4.8142     6.4452    16.2020  H       1  <O>11       0.0647
  40 H11       1.3177     7.8908     8.5838  H       1  <O>11       0.0645
  41 H12       3.2729     6.7565     3.9162  H       1  <O>11       0.0640
  42 H13       5.1465     5.3927     4.5382  H       1  <O>11       0.0830
  43 H14       2.7254     2.2456     5.5087  H       1  <O>11       0.0830
  44 H15       0.7658     3.5265     4.9144  H       1  <O>11       0.0640
@<TRIPOS>BOND
     1     1     2    2
     2     2     3   am
     3     3     4    1
     4     4     5   am
     5     5     6    2
     6     5     7    1
     7     7     8   ar
     8     8     9   ar
     9     9    10   ar
    10    10    11   ar
    11    11    12    1
    12    12    13    2
    13    12    14    2
    14    12    15    1
    15    15    16    1
    16    16    17   ar
    17    17    18   ar
    18    18    19   ar
    19    19    20   ar
    20    20    21   ar
    21    16    21   ar
    22    21    22    1
    23    11    23   ar
    24     7    23   ar
    25     2    24    1
    26    24    25   ar
    27    25    26   ar
    28    26    27   ar
    29    27    28   ar
    30    28    29   ar
    31    24    29   ar
    32     3    30    1
    33     4    31    1
    34    15    32    1
    35     8    33    1
    36     9    34    1
    37    10    35    1
    38    17    36    1
    39    18    37    1
    40    19    38    1
    41    20    39    1
    42    23    40    1
    43    25    41    1
    44    26    42    1
    45    28    43    1
    46    29    44    1
@<TRIPOS>MOLECULE
mol95_1_11
 44 46 0 0 0
SMALL
USER_CHARGES
****
VDW energy = 103.38
@<TRIPOS>ATOM
   1 O1        0.4027     6.1580     2.7719  O.2     1  <O>11      -0.2687
   2 C1        0.6752     6.0132     3.9543  C.2     1  <O>11       0.2602
   3 N1       -0.1260     6.5700     4.9150  N.am    1  <O>11      -0.2301
   4 N2       -1.2360     7.2920     4.5490  N.am    1  <O>11      -0.2301
   5 C2       -1.9328     8.0023     5.4903  C.2     1  <O>11       0.2602
   6 O2       -2.9191     8.6445     5.1643  O.2     1  <O>11      -0.2687
   7 C3       -1.4967     7.9924     6.8807  C.ar    1  <O>11       0.0400
   8 C4       -0.5857     8.9544     7.3451  C.ar    1  <O>11      -0.0495
   9 C5       -0.1579     8.9366     8.6774  C.ar    1  <O>11      -0.0592
  10 C6       -0.6378     7.9632     9.5577  C.ar    1  <O>11      -0.0350
  11 C7       -1.5511     7.0090     9.0951  C.ar    1  <O>11       0.1092
  12 S1       -2.1527     5.7840    10.2076  S.O2    1  <O>11       0.0724
  13 O3       -3.6441     5.2592     9.7020  O.2     1  <O>11      -0.1500
  14 O4       -2.2830     6.4367    11.7303  O.2     1  <O>11      -0.1500
  15 N3       -1.1036     4.5090    10.2431  N.pl3   1  <O>11      -0.2135
  16 C8       -1.5933     3.1743    10.5324  C.ar    1  <O>11       0.0831
  17 C9       -2.1004     2.8650    11.8063  C.ar    1  <O>11      -0.0365
  18 C10      -2.5593     1.5740    12.0899  C.ar    1  <O>11      -0.0598
  19 C11      -2.5228     0.5831    11.1032  C.ar    1  <O>11      -0.0589
  20 C12      -2.0229     0.8934     9.8336  C.ar    1  <O>11      -0.0246
  21 C13      -1.5645     2.1773     9.5430  C.ar    1  <O>11       0.1456
  22 F1       -1.0824     2.4831     8.2954  F       1  <O>11      -0.2035
  23 C14      -1.9848     7.0187     7.7699  C.ar    1  <O>11      -0.0229
  24 C15       1.8450     5.2530     4.3400  C.ar    1  <O>11       0.0410
  25 C16       3.1262     5.7903     4.2478  C.ar    1  <O>11      -0.0314
  26 C17       4.1974     4.9943     4.6127  C.ar    1  <O>11       0.0283
  27 N4        4.0735     3.7275     5.0602  N.ar    1  <O>11      -0.2632
  28 C18       2.8384     3.2117     5.1638  C.ar    1  <O>11       0.0283
  29 C19       1.7039     3.9454     4.8181  C.ar    1  <O>11      -0.0314
  30 H1        0.1010     6.4490     5.9020  H       1  <O>11       0.1731
  31 H2       -1.5414     7.2995     3.5758  H       1  <O>11       0.1731
  32 H3       -0.1120     4.6591    10.0620  H       1  <O>11       0.1738
  33 H4       -0.2299     9.6779     6.7010  H       1  <O>11       0.0625
  34 H5        0.5144     9.6449     9.0110  H       1  <O>11       0.0618
  35 H6       -0.3215     7.9480    10.5399  H       1  <O>11       0.0637
  36 H7       -2.1345     3.5938    12.5361  H       1  <O>11       0.0637
  37 H8       -2.9256     1.3524    13.0289  H       1  <O>11       0.0618
  38 H9       -2.8618    -0.3695    11.3101  H       1  <O>11       0.0618
  39 H10      -1.9933     0.1636     9.1044  H       1  <O>11       0.0647
  40 H11      -2.6626     6.3128     7.4424  H       1  <O>11       0.0645
  41 H12       3.2729     6.7565     3.9162  H       1  <O>11       0.0640
  42 H13       5.1465     5.3927     4.5382  H       1  <O>11       0.0830
  43 H14       2.7254     2.2456     5.5087  H       1  <O>11       0.0830
  44 H15       0.7658     3.5265     4.9144  H       1  <O>11       0.0640
@<TRIPOS>BOND
     1     1     2    2
     2     2     3   am
     3     3     4    1
     4     4     5   am
     5     5     6    2
     6     5     7    1
     7     7     8   ar
     8     8     9   ar
     9     9    10   ar
    10    10    11   ar
    11    11    12    1
    12    12    13    2
    13    12    14    2
    14    12    15    1
    15    15    16    1
    16    16    17   ar
    17    17    18   ar
    18    18    19   ar
    19    19    20   ar
    20    20    21   ar
    21    16    21   ar
    22    21    22    1
    23    11    23   ar
    24     7    23   ar
    25     2    24    1
    26    24    25   ar
    27    25    26   ar
    28    26    27   ar
    29    27    28   ar
    30    28    29   ar
    31    24    29   ar
    32     3    30    1
    33     4    31    1
    34    15    32    1
    35     8    33    1
    36     9    34    1
    37    10    35    1
    38    17    36    1
    39    18    37    1
    40    19    38    1
    41    20    39    1
    42    23    40    1
    43    25    41    1
    44    26    42    1
    45    28    43    1
    46    29    44    1
@<TRIPOS>MOLECULE
mol95_1_12
 44 46 0 0 0
SMALL
USER_CHARGES
****
VDW energy = 103.40
@<TRIPOS>ATOM
   1 O1        0.4027     6.1580     2.7719  O.2     1  <O>11      -0.2687
   2 C1        0.6752     6.0132     3.9543  C.2     1  <O>11       0.2602
   3 N1       -0.1260     6.5700     4.9150  N.am    1  <O>11      -0.2301
   4 N2       -1.2360     7.2920     4.5490  N.am    1  <O>11      -0.2301
   5 C2       -1.9328     8.0023     5.4903  C.2     1  <O>11       0.2602
   6 O2       -2.9191     8.6445     5.1643  O.2     1  <O>11      -0.2687
   7 C3       -1.4967     7.9924     6.8807  C.ar    1  <O>11       0.0400
   8 C4       -2.3339     7.4768     7.8829  C.ar    1  <O>11      -0.0495
   9 C5       -1.9195     7.4790     9.2195  C.ar    1  <O>11      -0.0592
  10 C6       -0.6665     7.9908     9.5669  C.ar    1  <O>11      -0.0350
  11 C7        0.1698     8.4983     8.5660  C.ar    1  <O>11       0.1092
  12 S1        1.7476     9.1426     9.0083  S.O2    1  <O>11       0.0724
  13 O3        2.7799     9.0208     7.7142  O.2     1  <O>11      -0.1500
  14 O4        2.3595     8.2759    10.2874  O.2     1  <O>11      -0.1500
  15 N3        1.5932    10.7288     9.4417  N.pl3   1  <O>11      -0.2135
  16 C8        2.7007    11.6454     9.2462  C.ar    1  <O>11       0.0831
  17 C9        3.8835    11.4986     9.9913  C.ar    1  <O>11      -0.0365
  18 C10       4.9461    12.3913     9.8132  C.ar    1  <O>11      -0.0598
  19 C11       4.8404    13.4331     8.8858  C.ar    1  <O>11      -0.0589
  20 C12       3.6647    13.5750     8.1405  C.ar    1  <O>11      -0.0246
  21 C13       2.6018    12.6896     8.3114  C.ar    1  <O>11       0.1456
  22 F1        1.4526    12.8242     7.5743  F       1  <O>11      -0.2035
  23 C14      -0.2330     8.4994     7.2311  C.ar    1  <O>11      -0.0229
  24 C15       1.8450     5.2530     4.3400  C.ar    1  <O>11       0.0410
  25 C16       3.1262     5.7903     4.2478  C.ar    1  <O>11      -0.0314
  26 C17       4.1974     4.9943     4.6127  C.ar    1  <O>11       0.0283
  27 N4        4.0735     3.7275     5.0602  N.ar    1  <O>11      -0.2632
  28 C18       2.8384     3.2117     5.1638  C.ar    1  <O>11       0.0283
  29 C19       1.7039     3.9454     4.8181  C.ar    1  <O>11      -0.0314
  30 H1        0.1010     6.4490     5.9020  H       1  <O>11       0.1731
  31 H2       -1.5414     7.2995     3.5758  H       1  <O>11       0.1731
  32 H3        0.7203    11.0643     9.8467  H       1  <O>11       0.1738
  33 H4       -3.2592     7.0945     7.6326  H       1  <O>11       0.0625
  34 H5       -2.5415     7.1013     9.9512  H       1  <O>11       0.0618
  35 H6       -0.3606     7.9946    10.5525  H       1  <O>11       0.0637
  36 H7        3.9685    10.7286    10.6730  H       1  <O>11       0.0637
  37 H8        5.8097    12.2808    10.3674  H       1  <O>11       0.0618
  38 H9        5.6236    14.0918     8.7522  H       1  <O>11       0.0618
  39 H10       3.5835    14.3438     7.4567  H       1  <O>11       0.0647
  40 H11       0.3952     8.8717     6.5017  H       1  <O>11       0.0645
  41 H12       3.2729     6.7565     3.9162  H       1  <O>11       0.0640
  42 H13       5.1465     5.3927     4.5382  H       1  <O>11       0.0830
  43 H14       2.7254     2.2456     5.5087  H       1  <O>11       0.0830
  44 H15       0.7658     3.5265     4.9144  H       1  <O>11       0.0640
@<TRIPOS>BOND
     1     1     2    2
     2     2     3   am
     3     3     4    1
     4     4     5   am
     5     5     6    2
     6     5     7    1
     7     7     8   ar
     8     8     9   ar
     9     9    10   ar
    10    10    11   ar
    11    11    12    1
    12    12    13    2
    13    12    14    2
    14    12    15    1
    15    15    16    1
    16    16    17   ar
    17    17    18   ar
    18    18    19   ar
    19    19    20   ar
    20    20    21   ar
    21    16    21   ar
    22    21    22    1
    23    11    23   ar
    24     7    23   ar
    25     2    24    1
    26    24    25   ar
    27    25    26   ar
    28    26    27   ar
    29    27    28   ar
    30    28    29   ar
    31    24    29   ar
    32     3    30    1
    33     4    31    1
    34    15    32    1
    35     8    33    1
    36     9    34    1
    37    10    35    1
    38    17    36    1
    39    18    37    1
    40    19    38    1
    41    20    39    1
    42    23    40    1
    43    25    41    1
    44    26    42    1
    45    28    43    1
    46    29    44    1
@<TRIPOS>MOLECULE
mol95_1_13
 44 46 0 0 0
SMALL
USER_CHARGES
****
VDW energy = 103.73
@<TRIPOS>ATOM
   1 O1        0.4027     6.1580     2.7719  O.2     1  <O>11      -0.2687
   2 C1        0.6752     6.0132     3.9543  C.2     1  <O>11       0.2602
   3 N1       -0.1260     6.5700     4.9150  N.am    1  <O>11      -0.2301
   4 N2        0.1812     6.4066     6.2440  N.am    1  <O>11      -0.2301
   5 C2       -0.7101     6.7999     7.2069  C.2     1  <O>11       0.2602
   6 O2       -1.7780     7.2969     6.8842  O.2     1  <O>11      -0.2687
   7 C3       -0.3837     6.6259     8.6164  C.ar    1  <O>11       0.0400
   8 C4       -1.1726     5.7971     9.4300  C.ar    1  <O>11      -0.0495
   9 C5       -0.8659     5.6403    10.7863  C.ar    1  <O>11      -0.0592
  10 C6        0.2314     6.3046    11.3410  C.ar    1  <O>11      -0.0350
  11 C7        1.0208     7.1252    10.5273  C.ar    1  <O>11       0.1092
  12 S1        2.4020     7.9606    11.2305  S.O2    1  <O>11       0.0724
  13 O3        2.0992     8.2856    12.8298  O.2     1  <O>11      -0.1500
  14 O4        2.6592     9.3858    10.4155  O.2     1  <O>11      -0.1500
  15 N3        3.7443     7.0062    11.1075  N.pl3   1  <O>11      -0.2135
  16 C8        4.8068     7.1184    12.0891  C.ar    1  <O>11       0.0831
  17 C9        5.5785     8.2904    12.1687  C.ar    1  <O>11      -0.0365
  18 C10       6.6126     8.3933    13.1056  C.ar    1  <O>11      -0.0598
  19 C11       6.8807     7.3309    13.9753  C.ar    1  <O>11      -0.0589
  20 C12       6.1082     6.1666    13.8989  C.ar    1  <O>11      -0.0246
  21 C13       5.0759     6.0566    12.9689  C.ar    1  <O>11       0.1456
  22 F1        4.3134     4.9182    12.9003  F       1  <O>11      -0.2035
  23 C14       0.7247     7.2870     9.1744  C.ar    1  <O>11      -0.0229
  24 C15       1.8450     5.2530     4.3400  C.ar    1  <O>11       0.0410
  25 C16       3.1262     5.7903     4.2478  C.ar    1  <O>11      -0.0314
  26 C17       4.1974     4.9943     4.6127  C.ar    1  <O>11       0.0283
  27 N4        4.0735     3.7275     5.0602  N.ar    1  <O>11      -0.2632
  28 C18       2.8384     3.2117     5.1638  C.ar    1  <O>11       0.0283
  29 C19       1.7039     3.9454     4.8181  C.ar    1  <O>11      -0.0314
  30 H1       -0.9506     7.1058     4.6443  H       1  <O>11       0.1731
  31 H2        1.0731     5.9920     6.5141  H       1  <O>11       0.1731
  32 H3        3.8270     6.3383    10.3422  H       1  <O>11       0.1738
  33 H4       -1.9824     5.3012     9.0258  H       1  <O>11       0.0625
  34 H5       -1.4520     5.0320    11.3790  H       1  <O>11       0.0618
  35 H6        0.4574     6.1912    12.3415  H       1  <O>11       0.0637
  36 H7        5.3814     9.0791    11.5330  H       1  <O>11       0.0637
  37 H8        7.1787     9.2548    13.1552  H       1  <O>11       0.0618
  38 H9        7.6423     7.4052    14.6678  H       1  <O>11       0.0618
  39 H10       6.3051     5.3807    14.5383  H       1  <O>11       0.0647
  40 H11       1.3177     7.8908     8.5838  H       1  <O>11       0.0645
  41 H12       3.2729     6.7565     3.9162  H       1  <O>11       0.0640
  42 H13       5.1465     5.3927     4.5382  H       1  <O>11       0.0830
  43 H14       2.7254     2.2456     5.5087  H       1  <O>11       0.0830
  44 H15       0.7658     3.5265     4.9144  H       1  <O>11       0.0640
@<TRIPOS>BOND
     1     1     2    2
     2     2     3   am
     3     3     4    1
     4     4     5   am
     5     5     6    2
     6     5     7    1
     7     7     8   ar
     8     8     9   ar
     9     9    10   ar
    10    10    11   ar
    11    11    12    1
    12    12    13    2
    13    12    14    2
    14    12    15    1
    15    15    16    1
    16    16    17   ar
    17    17    18   ar
    18    18    19   ar
    19    19    20   ar
    20    20    21   ar
    21    16    21   ar
    22    21    22    1
    23    11    23   ar
    24     7    23   ar
    25     2    24    1
    26    24    25   ar
    27    25    26   ar
    28    26    27   ar
    29    27    28   ar
    30    28    29   ar
    31    24    29   ar
    32     3    30    1
    33     4    31    1
    34    15    32    1
    35     8    33    1
    36     9    34    1
    37    10    35    1
    38    17    36    1
    39    18    37    1
    40    19    38    1
    41    20    39    1
    42    23    40    1
    43    25    41    1
    44    26    42    1
    45    28    43    1
    46    29    44    1
@<TRIPOS>MOLECULE
mol95_1_14
 44 46 0 0 0
SMALL
USER_CHARGES
****
VDW energy = 104.51
@<TRIPOS>ATOM
   1 O1        0.4027     6.1580     2.7719  O.2     1  <O>11      -0.2687
   2 C1        0.6752     6.0132     3.9543  C.2     1  <O>11       0.2602
   3 N1       -0.1260     6.5700     4.9150  N.am    1  <O>11      -0.2301
   4 N2       -1.2360     7.2920     4.5490  N.am    1  <O>11      -0.2301
   5 C2       -1.9328     8.0023     5.4903  C.2     1  <O>11       0.2602
   6 O2       -1.5679     7.9933     6.6558  O.2     1  <O>11      -0.2687
   7 C3       -3.1098     8.7682     5.1013  C.ar    1  <O>11       0.0400
   8 C4       -4.3817     8.1743     5.1240  C.ar    1  <O>11      -0.0495
   9 C5       -5.5101     8.9067     4.7384  C.ar    1  <O>11      -0.0592
  10 C6       -5.3801    10.2372     4.3315  C.ar    1  <O>11      -0.0350
  11 C7       -4.1125    10.8300     4.3158  C.ar    1  <O>11       0.1092
  12 S1       -3.9533    12.5066     3.8020  S.O2    1  <O>11       0.0724
  13 O3       -2.6033    13.1753     4.4989  O.2     1  <O>11      -0.1500
  14 O4       -5.2994    13.3593     4.2739  O.2     1  <O>11      -0.1500
  15 N3       -3.8113    12.5679     2.1577  N.pl3   1  <O>11      -0.2135
  16 C8       -4.8718    12.0434     1.3179  C.ar    1  <O>11       0.0831
  17 C9       -5.6194    12.9057     0.4974  C.ar    1  <O>11      -0.0365
  18 C10      -6.6517    12.4022    -0.3017  C.ar    1  <O>11      -0.0598
  19 C11      -6.9420    11.0338    -0.2943  C.ar    1  <O>11      -0.0589
  20 C12      -6.1935    10.1754     0.5187  C.ar    1  <O>11      -0.0246
  21 C13      -5.1631    10.6690     1.3171  C.ar    1  <O>11       0.1456
  22 F1       -4.4241     9.8256     2.1074  F       1  <O>11      -0.2035
  23 C14      -2.9820    10.1095     4.6995  C.ar    1  <O>11      -0.0229
  24 C15       1.8450     5.2530     4.3400  C.ar    1  <O>11       0.0410
  25 C16       3.1262     5.7903     4.2478  C.ar    1  <O>11      -0.0314
  26 C17       4.1974     4.9943     4.6127  C.ar    1  <O>11       0.0283
  27 N4        4.0735     3.7275     5.0602  N.ar    1  <O>11      -0.2632
  28 C18       2.8384     3.2117     5.1638  C.ar    1  <O>11       0.0283
  29 C19       1.7039     3.9454     4.8181  C.ar    1  <O>11      -0.0314
  30 H1        0.1010     6.4490     5.9020  H       1  <O>11       0.1731
  31 H2       -1.5414     7.2995     3.5758  H       1  <O>11       0.1731
  32 H3       -2.9790    12.9738     1.7322  H       1  <O>11       0.1738
  33 H4       -4.4850     7.1930     5.4264  H       1  <O>11       0.0625
  34 H5       -6.4415     8.4626     4.7545  H       1  <O>11       0.0618
  35 H6       -6.2113    10.7777     4.0451  H       1  <O>11       0.0637
  36 H7       -5.4058    13.9152     0.4843  H       1  <O>11       0.0637
  37 H8       -7.2001    13.0417    -0.8978  H       1  <O>11       0.0618
  38 H9       -7.7023    10.6603    -0.8838  H       1  <O>11       0.0618
  39 H10      -6.4068     9.1656     0.5272  H       1  <O>11       0.0647
  40 H11      -2.0535    10.5598     4.6885  H       1  <O>11       0.0645
  41 H12       3.2729     6.7565     3.9162  H       1  <O>11       0.0640
  42 H13       5.1465     5.3927     4.5382  H       1  <O>11       0.0830
  43 H14       2.7254     2.2456     5.5087  H       1  <O>11       0.0830
  44 H15       0.7658     3.5265     4.9144  H       1  <O>11       0.0640
@<TRIPOS>BOND
     1     1     2    2
     2     2     3   am
     3     3     4    1
     4     4     5   am
     5     5     6    2
     6     5     7    1
     7     7     8   ar
     8     8     9   ar
     9     9    10   ar
    10    10    11   ar
    11    11    12    1
    12    12    13    2
    13    12    14    2
    14    12    15    1
    15    15    16    1
    16    16    17   ar
    17    17    18   ar
    18    18    19   ar
    19    19    20   ar
    20    20    21   ar
    21    16    21   ar
    22    21    22    1
    23    11    23   ar
    24     7    23   ar
    25     2    24    1
    26    24    25   ar
    27    25    26   ar
    28    26    27   ar
    29    27    28   ar
    30    28    29   ar
    31    24    29   ar
    32     3    30    1
    33     4    31    1
    34    15    32    1
    35     8    33    1
    36     9    34    1
    37    10    35    1
    38    17    36    1
    39    18    37    1
    40    19    38    1
    41    20    39    1
    42    23    40    1
    43    25    41    1
    44    26    42    1
    45    28    43    1
    46    29    44    1
@<TRIPOS>MOLECULE
mol95_1_15
 44 46 0 0 0
SMALL
USER_CHARGES
****
VDW energy = 104.65
@<TRIPOS>ATOM
   1 O1        0.4027     6.1580     2.7719  O.2     1  <O>11      -0.2687
   2 C1        0.6752     6.0132     3.9543  C.2     1  <O>11       0.2602
   3 N1       -0.1260     6.5700     4.9150  N.am    1  <O>11      -0.2301
   4 N2        0.1812     6.4066     6.2440  N.am    1  <O>11      -0.2301
   5 C2       -0.7101     6.7999     7.2069  C.2     1  <O>11       0.2602
   6 O2       -1.7780     7.2969     6.8842  O.2     1  <O>11      -0.2687
   7 C3       -0.3837     6.6259     8.6164  C.ar    1  <O>11       0.0400
   8 C4       -1.1726     5.7971     9.4300  C.ar    1  <O>11      -0.0495
   9 C5       -0.8659     5.6403    10.7863  C.ar    1  <O>11      -0.0592
  10 C6        0.2314     6.3046    11.3410  C.ar    1  <O>11      -0.0350
  11 C7        1.0208     7.1252    10.5273  C.ar    1  <O>11       0.1092
  12 S1        2.4020     7.9606    11.2305  S.O2    1  <O>11       0.0724
  13 O3        3.4667     6.8485    11.8509  O.2     1  <O>11      -0.1500
  14 O4        1.8795     8.9648    12.4472  O.2     1  <O>11      -0.1500
  15 N3        3.1571     8.8546    10.0650  N.pl3   1  <O>11      -0.2135
  16 C8        4.5811     9.1156    10.1596  C.ar    1  <O>11       0.0831
  17 C9        5.0869     9.9275    11.1894  C.ar    1  <O>11      -0.0365
  18 C10       6.4585    10.1912    11.2723  C.ar    1  <O>11      -0.0598
  19 C11       7.3374     9.6415    10.3331  C.ar    1  <O>11      -0.0589
  20 C12       6.8336     8.8287     9.3115  C.ar    1  <O>11      -0.0246
  21 C13       5.4686     8.5608     9.2224  C.ar    1  <O>11       0.1456
  22 F1        4.9763     7.7569     8.2256  F       1  <O>11      -0.2035
  23 C14       0.7247     7.2870     9.1744  C.ar    1  <O>11      -0.0229
  24 C15       1.8450     5.2530     4.3400  C.ar    1  <O>11       0.0410
  25 C16       3.1262     5.7903     4.2478  C.ar    1  <O>11      -0.0314
  26 C17       4.1974     4.9943     4.6127  C.ar    1  <O>11       0.0283
  27 N4        4.0735     3.7275     5.0602  N.ar    1  <O>11      -0.2632
  28 C18       2.8384     3.2117     5.1638  C.ar    1  <O>11       0.0283
  29 C19       1.7039     3.9454     4.8181  C.ar    1  <O>11      -0.0314
  30 H1       -0.9506     7.1058     4.6443  H       1  <O>11       0.1731
  31 H2        1.0731     5.9920     6.5141  H       1  <O>11       0.1731
  32 H3        2.6232     9.2233     9.2791  H       1  <O>11       0.1738
  33 H4       -1.9824     5.3012     9.0258  H       1  <O>11       0.0625
  34 H5       -1.4520     5.0320    11.3790  H       1  <O>11       0.0618
  35 H6        0.4574     6.1912    12.3415  H       1  <O>11       0.0637
  36 H7        4.4434    10.3312    11.8879  H       1  <O>11       0.0637
  37 H8        6.8225    10.7925    12.0280  H       1  <O>11       0.0618
  38 H9        8.3496     9.8338    10.3931  H       1  <O>11       0.0618
  39 H10       7.4797     8.4233     8.6163  H       1  <O>11       0.0647
  40 H11       1.3177     7.8908     8.5838  H       1  <O>11       0.0645
  41 H12       3.2729     6.7565     3.9162  H       1  <O>11       0.0640
  42 H13       5.1465     5.3927     4.5382  H       1  <O>11       0.0830
  43 H14       2.7254     2.2456     5.5087  H       1  <O>11       0.0830
  44 H15       0.7658     3.5265     4.9144  H       1  <O>11       0.0640
@<TRIPOS>BOND
     1     1     2    2
     2     2     3   am
     3     3     4    1
     4     4     5   am
     5     5     6    2
     6     5     7    1
     7     7     8   ar
     8     8     9   ar
     9     9    10   ar
    10    10    11   ar
    11    11    12    1
    12    12    13    2
    13    12    14    2
    14    12    15    1
    15    15    16    1
    16    16    17   ar
    17    17    18   ar
    18    18    19   ar
    19    19    20   ar
    20    20    21   ar
    21    16    21   ar
    22    21    22    1
    23    11    23   ar
    24     7    23   ar
    25     2    24    1
    26    24    25   ar
    27    25    26   ar
    28    26    27   ar
    29    27    28   ar
    30    28    29   ar
    31    24    29   ar
    32     3    30    1
    33     4    31    1
    34    15    32    1
    35     8    33    1
    36     9    34    1
    37    10    35    1
    38    17    36    1
    39    18    37    1
    40    19    38    1
    41    20    39    1
    42    23    40    1
    43    25    41    1
    44    26    42    1
    45    28    43    1
    46    29    44    1
@<TRIPOS>MOLECULE
mol95_1_16
 44 46 0 0 0
SMALL
USER_CHARGES
****
VDW energy = 105.12
@<TRIPOS>ATOM
   1 O1        0.4027     6.1580     2.7719  O.2     1  <O>11      -0.2687
   2 C1        0.6752     6.0132     3.9543  C.2     1  <O>11       0.2602
   3 N1       -0.1260     6.5700     4.9150  N.am    1  <O>11      -0.2301
   4 N2       -1.2360     7.2920     4.5490  N.am    1  <O>11      -0.2301
   5 C2       -1.9328     8.0023     5.4903  C.2     1  <O>11       0.2602
   6 O2       -1.5679     7.9933     6.6558  O.2     1  <O>11      -0.2687
   7 C3       -3.1098     8.7682     5.1013  C.ar    1  <O>11       0.0400
   8 C4       -3.1233     9.4831     3.8931  C.ar    1  <O>11      -0.0495
   9 C5       -4.2494    10.2284     3.5260  C.ar    1  <O>11      -0.0592
  10 C6       -5.3717    10.2635     4.3579  C.ar    1  <O>11      -0.0350
  11 C7       -5.3594     9.5450     5.5588  C.ar    1  <O>11       0.1092
  12 S1       -6.7756     9.5925     6.6040  S.O2    1  <O>11       0.0724
  13 O3       -6.8325     8.2127     7.5251  O.2     1  <O>11      -0.1500
  14 O4       -8.1475     9.6920     5.6715  O.2     1  <O>11      -0.1500
  15 N3       -6.6858    10.9115     7.5938  N.pl3   1  <O>11      -0.2135
  16 C8       -6.6270    12.2441     7.0232  C.ar    1  <O>11       0.0831
  17 C9       -5.5021    12.6511     6.2853  C.ar    1  <O>11      -0.0365
  18 C10      -5.4388    13.9412     5.7472  C.ar    1  <O>11      -0.0598
  19 C11      -6.5000    14.8331     5.9346  C.ar    1  <O>11      -0.0589
  20 C12      -7.6219    14.4251     6.6646  C.ar    1  <O>11      -0.0246
  21 C13      -7.6929    13.1415     7.2033  C.ar    1  <O>11       0.1456
  22 F1       -8.7968    12.7393     7.9116  F       1  <O>11      -0.2035
  23 C14      -4.2430     8.7981     5.9331  C.ar    1  <O>11      -0.0229
  24 C15       1.8450     5.2530     4.3400  C.ar    1  <O>11       0.0410
  25 C16       3.1262     5.7903     4.2478  C.ar    1  <O>11      -0.0314
  26 C17       4.1974     4.9943     4.6127  C.ar    1  <O>11       0.0283
  27 N4        4.0735     3.7275     5.0602  N.ar    1  <O>11      -0.2632
  28 C18       2.8384     3.2117     5.1638  C.ar    1  <O>11       0.0283
  29 C19       1.7039     3.9454     4.8181  C.ar    1  <O>11      -0.0314
  30 H1        0.1010     6.4490     5.9020  H       1  <O>11       0.1731
  31 H2       -1.5414     7.2995     3.5758  H       1  <O>11       0.1731
  32 H3       -6.6716    10.7901     8.6056  H       1  <O>11       0.1738
  33 H4       -2.2989     9.4587     3.2727  H       1  <O>11       0.0625
  34 H5       -4.2510    10.7540     2.6379  H       1  <O>11       0.0618
  35 H6       -6.2020    10.8143     4.0891  H       1  <O>11       0.0637
  36 H7       -4.7188    11.9952     6.1397  H       1  <O>11       0.0637
  37 H8       -4.6076    14.2352     5.2109  H       1  <O>11       0.0618
  38 H9       -6.4558    15.7847     5.5375  H       1  <O>11       0.0618
  39 H10      -8.4055    15.0818     6.8056  H       1  <O>11       0.0647
  40 H11      -4.2485     8.2684     6.8187  H       1  <O>11       0.0645
  41 H12       3.2729     6.7565     3.9162  H       1  <O>11       0.0640
  42 H13       5.1465     5.3927     4.5382  H       1  <O>11       0.0830
  43 H14       2.7254     2.2456     5.5087  H       1  <O>11       0.0830
  44 H15       0.7658     3.5265     4.9144  H       1  <O>11       0.0640
@<TRIPOS>BOND
     1     1     2    2
     2     2     3   am
     3     3     4    1
     4     4     5   am
     5     5     6    2
     6     5     7    1
     7     7     8   ar
     8     8     9   ar
     9     9    10   ar
    10    10    11   ar
    11    11    12    1
    12    12    13    2
    13    12    14    2
    14    12    15    1
    15    15    16    1
    16    16    17   ar
    17    17    18   ar
    18    18    19   ar
    19    19    20   ar
    20    20    21   ar
    21    16    21   ar
    22    21    22    1
    23    11    23   ar
    24     7    23   ar
    25     2    24    1
    26    24    25   ar
    27    25    26   ar
    28    26    27   ar
    29    27    28   ar
    30    28    29   ar
    31    24    29   ar
    32     3    30    1
    33     4    31    1
    34    15    32    1
    35     8    33    1
    36     9    34    1
    37    10    35    1
    38    17    36    1
    39    18    37    1
    40    19    38    1
    41    20    39    1
    42    23    40    1
    43    25    41    1
    44    26    42    1
    45    28    43    1
    46    29    44    1
@<TRIPOS>MOLECULE
mol95_1_17
 44 46 0 0 0
SMALL
USER_CHARGES
****
VDW energy = 106.12
@<TRIPOS>ATOM
   1 O1        0.4027     6.1580     2.7719  O.2     1  <O>11      -0.2687
   2 C1        0.6752     6.0132     3.9543  C.2     1  <O>11       0.2602
   3 N1       -0.1260     6.5700     4.9150  N.am    1  <O>11      -0.2301
   4 N2       -1.2360     7.2920     4.5490  N.am    1  <O>11      -0.2301
   5 C2       -1.9328     8.0023     5.4903  C.2     1  <O>11       0.2602
   6 O2       -1.5679     7.9933     6.6558  O.2     1  <O>11      -0.2687
   7 C3       -3.1098     8.7682     5.1013  C.ar    1  <O>11       0.0400
   8 C4       -3.8293     9.4988     6.0602  C.ar    1  <O>11      -0.0495
   9 C5       -4.9668    10.2241     5.6881  C.ar    1  <O>11      -0.0592
  10 C6       -5.3932    10.2301     4.3573  C.ar    1  <O>11      -0.0350
  11 C7       -4.6711     9.5069     3.4013  C.ar    1  <O>11       0.1092
  12 S1       -5.2123     9.5170     1.7258  S.O2    1  <O>11       0.0724
  13 O3       -3.9202     9.2333     0.7231  O.2     1  <O>11      -0.1500
  14 O4       -5.8752    10.9984     1.3682  O.2     1  <O>11      -0.1500
  15 N3       -6.3482     8.3383     1.5065  N.pl3   1  <O>11      -0.2135
  16 C8       -6.4998     7.7093     0.2079  C.ar    1  <O>11       0.0831
  17 C9       -6.9752     8.4498    -0.8881  C.ar    1  <O>11      -0.0365
  18 C10      -7.1352     7.8397    -2.1371  C.ar    1  <O>11      -0.0598
  19 C11      -6.8157     6.4882    -2.3047  C.ar    1  <O>11      -0.0589
  20 C12      -6.3371     5.7533    -1.2143  C.ar    1  <O>11      -0.0246
  21 C13      -6.1743     6.3539     0.0329  C.ar    1  <O>11       0.1456
  22 F1       -5.6970     5.6349     1.0995  F       1  <O>11      -0.2035
  23 C14      -3.5356     8.7822     3.7614  C.ar    1  <O>11      -0.0229
  24 C15       1.8450     5.2530     4.3400  C.ar    1  <O>11       0.0410
  25 C16       3.1262     5.7903     4.2478  C.ar    1  <O>11      -0.0314
  26 C17       4.1974     4.9943     4.6127  C.ar    1  <O>11       0.0283
  27 N4        4.0735     3.7275     5.0602  N.ar    1  <O>11      -0.2632
  28 C18       2.8384     3.2117     5.1638  C.ar    1  <O>11       0.0283
  29 C19       1.7039     3.9454     4.8181  C.ar    1  <O>11      -0.0314
  30 H1        0.1010     6.4490     5.9020  H       1  <O>11       0.1731
  31 H2       -1.5414     7.2995     3.5758  H       1  <O>11       0.1731
  32 H3       -6.9431     8.0523     2.2830  H       1  <O>11       0.1738
  33 H4       -3.5179     9.5011     7.0441  H       1  <O>11       0.0625
  34 H5       -5.4926    10.7563     6.3989  H       1  <O>11       0.0618
  35 H6       -6.2330    10.7631     4.0821  H       1  <O>11       0.0637
  36 H7       -7.2074     9.4485    -0.7710  H       1  <O>11       0.0637
  37 H8       -7.4897     8.3881    -2.9363  H       1  <O>11       0.0618
  38 H9       -6.9319     6.0367    -3.2254  H       1  <O>11       0.0618
  39 H10      -6.1022     4.7556    -1.3350  H       1  <O>11       0.0647
  40 H11      -3.0088     8.2571     3.0459  H       1  <O>11       0.0645
  41 H12       3.2729     6.7565     3.9162  H       1  <O>11       0.0640
  42 H13       5.1465     5.3927     4.5382  H       1  <O>11       0.0830
  43 H14       2.7254     2.2456     5.5087  H       1  <O>11       0.0830
  44 H15       0.7658     3.5265     4.9144  H       1  <O>11       0.0640
@<TRIPOS>BOND
     1     1     2    2
     2     2     3   am
     3     3     4    1
     4     4     5   am
     5     5     6    2
     6     5     7    1
     7     7     8   ar
     8     8     9   ar
     9     9    10   ar
    10    10    11   ar
    11    11    12    1
    12    12    13    2
    13    12    14    2
    14    12    15    1
    15    15    16    1
    16    16    17   ar
    17    17    18   ar
    18    18    19   ar
    19    19    20   ar
    20    20    21   ar
    21    16    21   ar
    22    21    22    1
    23    11    23   ar
    24     7    23   ar
    25     2    24    1
    26    24    25   ar
    27    25    26   ar
    28    26    27   ar
    29    27    28   ar
    30    28    29   ar
    31    24    29   ar
    32     3    30    1
    33     4    31    1
    34    15    32    1
    35     8    33    1
    36     9    34    1
    37    10    35    1
    38    17    36    1
    39    18    37    1
    40    19    38    1
    41    20    39    1
    42    23    40    1
    43    25    41    1
    44    26    42    1
    45    28    43    1
    46    29    44    1
@<TRIPOS>MOLECULE
mol95_1_18
 44 46 0 0 0
SMALL
USER_CHARGES
****
VDW energy = 106.26
@<TRIPOS>ATOM
   1 O1        0.4027     6.1580     2.7719  O.2     1  <O>11      -0.2687
   2 C1        0.6752     6.0132     3.9543  C.2     1  <O>11       0.2602
   3 N1       -0.1260     6.5700     4.9150  N.am    1  <O>11      -0.2301
   4 N2       -1.2360     7.2920     4.5490  N.am    1  <O>11      -0.2301
   5 C2       -1.9328     8.0023     5.4903  C.2     1  <O>11       0.2602
   6 O2       -1.5679     7.9933     6.6558  O.2     1  <O>11      -0.2687
   7 C3       -3.1098     8.7682     5.1013  C.ar    1  <O>11       0.0400
   8 C4       -3.8293     9.4988     6.0602  C.ar    1  <O>11      -0.0495
   9 C5       -4.9668    10.2241     5.6881  C.ar    1  <O>11      -0.0592
  10 C6       -5.3932    10.2301     4.3573  C.ar    1  <O>11      -0.0350
  11 C7       -4.6711     9.5069     3.4013  C.ar    1  <O>11       0.1092
  12 S1       -5.2123     9.5170     1.7258  S.O2    1  <O>11       0.0724
  13 O3       -6.8616     9.6973     1.6760  O.2     1  <O>11      -0.1500
  14 O4       -4.7905     8.0826     1.0003  O.2     1  <O>11      -0.1500
  15 N3       -4.4971    10.7709     0.9233  N.pl3   1  <O>11      -0.2135
  16 C8       -5.1739    11.3948    -0.1981  C.ar    1  <O>11       0.0831
  17 C9       -5.3828    10.6781    -1.3890  C.ar    1  <O>11      -0.0365
  18 C10      -6.0225    11.2844    -2.4757  C.ar    1  <O>11      -0.0598
  19 C11      -6.4654    12.6079    -2.3809  C.ar    1  <O>11      -0.0589
  20 C12      -6.2619    13.3188    -1.1930  C.ar    1  <O>11      -0.0246
  21 C13      -5.6261    12.7218    -0.1057  C.ar    1  <O>11       0.1456
  22 F1       -5.4345    13.4167     1.0617  F       1  <O>11      -0.2035
  23 C14      -3.5356     8.7822     3.7614  C.ar    1  <O>11      -0.0229
  24 C15       1.8450     5.2530     4.3400  C.ar    1  <O>11       0.0410
  25 C16       3.1262     5.7903     4.2478  C.ar    1  <O>11      -0.0314
  26 C17       4.1974     4.9943     4.6127  C.ar    1  <O>11       0.0283
  27 N4        4.0735     3.7275     5.0602  N.ar    1  <O>11      -0.2632
  28 C18       2.8384     3.2117     5.1638  C.ar    1  <O>11       0.0283
  29 C19       1.7039     3.9454     4.8181  C.ar    1  <O>11      -0.0314
  30 H1        0.1010     6.4490     5.9020  H       1  <O>11       0.1731
  31 H2       -1.5414     7.2995     3.5758  H       1  <O>11       0.1731
  32 H3       -3.5803    11.1068     1.2153  H       1  <O>11       0.1738
  33 H4       -3.5179     9.5011     7.0441  H       1  <O>11       0.0625
  34 H5       -5.4926    10.7563     6.3989  H       1  <O>11       0.0618
  35 H6       -6.2330    10.7631     4.0821  H       1  <O>11       0.0637
  36 H7       -5.0627     9.6998    -1.4622  H       1  <O>11       0.0637
  37 H8       -6.1680    10.7540    -3.3489  H       1  <O>11       0.0618
  38 H9       -6.9384    13.0565    -3.1809  H       1  <O>11       0.0618
  39 H10      -6.5862    14.2960    -1.1210  H       1  <O>11       0.0647
  40 H11      -3.0088     8.2571     3.0459  H       1  <O>11       0.0645
  41 H12       3.2729     6.7565     3.9162  H       1  <O>11       0.0640
  42 H13       5.1465     5.3927     4.5382  H       1  <O>11       0.0830
  43 H14       2.7254     2.2456     5.5087  H       1  <O>11       0.0830
  44 H15       0.7658     3.5265     4.9144  H       1  <O>11       0.0640
@<TRIPOS>BOND
     1     1     2    2
     2     2     3   am
     3     3     4    1
     4     4     5   am
     5     5     6    2
     6     5     7    1
     7     7     8   ar
     8     8     9   ar
     9     9    10   ar
    10    10    11   ar
    11    11    12    1
    12    12    13    2
    13    12    14    2
    14    12    15    1
    15    15    16    1
    16    16    17   ar
    17    17    18   ar
    18    18    19   ar
    19    19    20   ar
    20    20    21   ar
    21    16    21   ar
    22    21    22    1
    23    11    23   ar
    24     7    23   ar
    25     2    24    1
    26    24    25   ar
    27    25    26   ar
    28    26    27   ar
    29    27    28   ar
    30    28    29   ar
    31    24    29   ar
    32     3    30    1
    33     4    31    1
    34    15    32    1
    35     8    33    1
    36     9    34    1
    37    10    35    1
    38    17    36    1
    39    18    37    1
    40    19    38    1
    41    20    39    1
    42    23    40    1
    43    25    41    1
    44    26    42    1
    45    28    43    1
    46    29    44    1
@<TRIPOS>MOLECULE
mol95_1_19
 44 46 0 0 0
SMALL
USER_CHARGES
****
VDW energy = 106.84
@<TRIPOS>ATOM
   1 O1        0.4027     6.1580     2.7719  O.2     1  <O>11      -0.2687
   2 C1        0.6752     6.0132     3.9543  C.2     1  <O>11       0.2602
   3 N1       -0.1260     6.5700     4.9150  N.am    1  <O>11      -0.2301
   4 N2       -1.2360     7.2920     4.5490  N.am    1  <O>11      -0.2301
   5 C2       -1.9328     8.0023     5.4903  C.2     1  <O>11       0.2602
   6 O2       -2.9191     8.6445     5.1643  O.2     1  <O>11      -0.2687
   7 C3       -1.4967     7.9924     6.8807  C.ar    1  <O>11       0.0400
   8 C4       -0.5857     8.9544     7.3451  C.ar    1  <O>11      -0.0495
   9 C5       -0.1579     8.9366     8.6774  C.ar    1  <O>11      -0.0592
  10 C6       -0.6378     7.9632     9.5577  C.ar    1  <O>11      -0.0350
  11 C7       -1.5511     7.0090     9.0951  C.ar    1  <O>11       0.1092
  12 S1       -2.1527     5.7840    10.2076  S.O2    1  <O>11       0.0724
  13 O3       -3.6441     5.2592     9.7020  O.2     1  <O>11      -0.1500
  14 O4       -2.2830     6.4367    11.7303  O.2     1  <O>11      -0.1500
  15 N3       -1.1036     4.5090    10.2431  N.pl3   1  <O>11      -0.2135
  16 C8        0.2720     4.7126    10.6570  C.ar    1  <O>11       0.0831
  17 C9        1.1444     5.4811     9.8672  C.ar    1  <O>11      -0.0365
  18 C10       2.4749     5.6655    10.2589  C.ar    1  <O>11      -0.0598
  19 C11       2.9441     5.0910    11.4450  C.ar    1  <O>11      -0.0589
  20 C12       2.0732     4.3308    12.2335  C.ar    1  <O>11      -0.0246
  21 C13       0.7462     4.1429    11.8505  C.ar    1  <O>11       0.1456
  22 F1       -0.1094     3.4045    12.6284  F       1  <O>11      -0.2035
  23 C14      -1.9848     7.0187     7.7699  C.ar    1  <O>11      -0.0229
  24 C15       1.8450     5.2530     4.3400  C.ar    1  <O>11       0.0410
  25 C16       3.1262     5.7903     4.2478  C.ar    1  <O>11      -0.0314
  26 C17       4.1974     4.9943     4.6127  C.ar    1  <O>11       0.0283
  27 N4        4.0735     3.7275     5.0602  N.ar    1  <O>11      -0.2632
  28 C18       2.8384     3.2117     5.1638  C.ar    1  <O>11       0.0283
  29 C19       1.7039     3.9454     4.8181  C.ar    1  <O>11      -0.0314
  30 H1        0.1010     6.4490     5.9020  H       1  <O>11       0.1731
  31 H2       -1.5414     7.2995     3.5758  H       1  <O>11       0.1731
  32 H3       -1.4217     3.5789     9.9742  H       1  <O>11       0.1738
  33 H4       -0.2299     9.6779     6.7010  H       1  <O>11       0.0625
  34 H5        0.5144     9.6449     9.0110  H       1  <O>11       0.0618
  35 H6       -0.3215     7.9480    10.5399  H       1  <O>11       0.0637
  36 H7        0.8020     5.9114     8.9941  H       1  <O>11       0.0637
  37 H8        3.1116     6.2266     9.6716  H       1  <O>11       0.0618
  38 H9        3.9248     5.2268    11.7362  H       1  <O>11       0.0618
  39 H10       2.4172     3.9045    13.1081  H       1  <O>11       0.0647
  40 H11      -2.6626     6.3128     7.4424  H       1  <O>11       0.0645
  41 H12       3.2729     6.7565     3.9162  H       1  <O>11       0.0640
  42 H13       5.1465     5.3927     4.5382  H       1  <O>11       0.0830
  43 H14       2.7254     2.2456     5.5087  H       1  <O>11       0.0830
  44 H15       0.7658     3.5265     4.9144  H       1  <O>11       0.0640
@<TRIPOS>BOND
     1     1     2    2
     2     2     3   am
     3     3     4    1
     4     4     5   am
     5     5     6    2
     6     5     7    1
     7     7     8   ar
     8     8     9   ar
     9     9    10   ar
    10    10    11   ar
    11    11    12    1
    12    12    13    2
    13    12    14    2
    14    12    15    1
    15    15    16    1
    16    16    17   ar
    17    17    18   ar
    18    18    19   ar
    19    19    20   ar
    20    20    21   ar
    21    16    21   ar
    22    21    22    1
    23    11    23   ar
    24     7    23   ar
    25     2    24    1
    26    24    25   ar
    27    25    26   ar
    28    26    27   ar
    29    27    28   ar
    30    28    29   ar
    31    24    29   ar
    32     3    30    1
    33     4    31    1
    34    15    32    1
    35     8    33    1
    36     9    34    1
    37    10    35    1
    38    17    36    1
    39    18    37    1
    40    19    38    1
    41    20    39    1
    42    23    40    1
    43    25    41    1
    44    26    42    1
    45    28    43    1
    46    29    44    1
@<TRIPOS>MOLECULE
mol95_1_20
 44 46 0 0 0
SMALL
USER_CHARGES
****
VDW energy = 106.87
@<TRIPOS>ATOM
   1 O1        0.4027     6.1580     2.7719  O.2     1  <O>11      -0.2687
   2 C1        0.6752     6.0132     3.9543  C.2     1  <O>11       0.2602
   3 N1       -0.1260     6.5700     4.9150  N.am    1  <O>11      -0.2301
   4 N2       -1.2360     7.2920     4.5490  N.am    1  <O>11      -0.2301
   5 C2       -1.9328     8.0023     5.4903  C.2     1  <O>11       0.2602
   6 O2       -2.9191     8.6445     5.1643  O.2     1  <O>11      -0.2687
   7 C3       -1.4967     7.9924     6.8807  C.ar    1  <O>11       0.0400
   8 C4       -2.3339     7.4768     7.8829  C.ar    1  <O>11      -0.0495
   9 C5       -1.9195     7.4790     9.2195  C.ar    1  <O>11      -0.0592
  10 C6       -0.6665     7.9908     9.5669  C.ar    1  <O>11      -0.0350
  11 C7        0.1698     8.4983     8.5660  C.ar    1  <O>11       0.1092
  12 S1        1.7476     9.1426     9.0083  S.O2    1  <O>11       0.0724
  13 O3        2.7799     9.0208     7.7142  O.2     1  <O>11      -0.1500
  14 O4        2.3595     8.2759    10.2874  O.2     1  <O>11      -0.1500
  15 N3        1.5932    10.7288     9.4417  N.pl3   1  <O>11      -0.2135
  16 C8        0.7399    11.0967    10.5559  C.ar    1  <O>11       0.0831
  17 C9       -0.6526    10.9264    10.4697  C.ar    1  <O>11      -0.0365
  18 C10      -1.4771    11.2946    11.5386  C.ar    1  <O>11      -0.0598
  19 C11      -0.9188    11.8290    12.7046  C.ar    1  <O>11      -0.0589
  20 C12       0.4682    11.9930    12.7915  C.ar    1  <O>11      -0.0246
  21 C13       1.2964    11.6280    11.7314  C.ar    1  <O>11       0.1456
  22 F1        2.6568    11.7811    11.8207  F       1  <O>11      -0.2035
  23 C14      -0.2330     8.4994     7.2311  C.ar    1  <O>11      -0.0229
  24 C15       1.8450     5.2530     4.3400  C.ar    1  <O>11       0.0410
  25 C16       3.1262     5.7903     4.2478  C.ar    1  <O>11      -0.0314
  26 C17       4.1974     4.9943     4.6127  C.ar    1  <O>11       0.0283
  27 N4        4.0735     3.7275     5.0602  N.ar    1  <O>11      -0.2632
  28 C18       2.8384     3.2117     5.1638  C.ar    1  <O>11       0.0283
  29 C19       1.7039     3.9454     4.8181  C.ar    1  <O>11      -0.0314
  30 H1        0.1010     6.4490     5.9020  H       1  <O>11       0.1731
  31 H2       -1.5414     7.2995     3.5758  H       1  <O>11       0.1731
  32 H3        2.0971    11.4497     8.9269  H       1  <O>11       0.1738
  33 H4       -3.2592     7.0945     7.6326  H       1  <O>11       0.0625
  34 H5       -2.5415     7.1013     9.9512  H       1  <O>11       0.0618
  35 H6       -0.3606     7.9946    10.5525  H       1  <O>11       0.0637
  36 H7       -1.0691    10.5277     9.6138  H       1  <O>11       0.0637
  37 H8       -2.4992    11.1717    11.4666  H       1  <O>11       0.0618
  38 H9       -1.5250    12.1002    13.4945  H       1  <O>11       0.0618
  39 H10       0.8825    12.3886    13.6501  H       1  <O>11       0.0647
  40 H11       0.3952     8.8717     6.5017  H       1  <O>11       0.0645
  41 H12       3.2729     6.7565     3.9162  H       1  <O>11       0.0640
  42 H13       5.1465     5.3927     4.5382  H       1  <O>11       0.0830
  43 H14       2.7254     2.2456     5.5087  H       1  <O>11       0.0830
  44 H15       0.7658     3.5265     4.9144  H       1  <O>11       0.0640
@<TRIPOS>BOND
     1     1     2    2
     2     2     3   am
     3     3     4    1
     4     4     5   am
     5     5     6    2
     6     5     7    1
     7     7     8   ar
     8     8     9   ar
     9     9    10   ar
    10    10    11   ar
    11    11    12    1
    12    12    13    2
    13    12    14    2
    14    12    15    1
    15    15    16    1
    16    16    17   ar
    17    17    18   ar
    18    18    19   ar
    19    19    20   ar
    20    20    21   ar
    21    16    21   ar
    22    21    22    1
    23    11    23   ar
    24     7    23   ar
    25     2    24    1
    26    24    25   ar
    27    25    26   ar
    28    26    27   ar
    29    27    28   ar
    30    28    29   ar
    31    24    29   ar
    32     3    30    1
    33     4    31    1
    34    15    32    1
    35     8    33    1
    36     9    34    1
    37    10    35    1
    38    17    36    1
    39    18    37    1
    40    19    38    1
    41    20    39    1
    42    23    40    1
    43    25    41    1
    44    26    42    1
    45    28    43    1
    46    29    44    1
@<TRIPOS>MOLECULE
mol95_1_21
 44 46 0 0 0
SMALL
USER_CHARGES
****
VDW energy = 107.27
@<TRIPOS>ATOM
   1 O1        0.4027     6.1580     2.7719  O.2     1  <O>11      -0.2687
   2 C1        0.6752     6.0132     3.9543  C.2     1  <O>11       0.2602
   3 N1       -0.1260     6.5700     4.9150  N.am    1  <O>11      -0.2301
   4 N2       -1.2360     7.2920     4.5490  N.am    1  <O>11      -0.2301
   5 C2       -1.9328     8.0023     5.4903  C.2     1  <O>11       0.2602
   6 O2       -2.9191     8.6445     5.1643  O.2     1  <O>11      -0.2687
   7 C3       -1.4967     7.9924     6.8807  C.ar    1  <O>11       0.0400
   8 C4       -2.3339     7.4768     7.8829  C.ar    1  <O>11      -0.0495
   9 C5       -1.9195     7.4790     9.2195  C.ar    1  <O>11      -0.0592
  10 C6       -0.6665     7.9908     9.5669  C.ar    1  <O>11      -0.0350
  11 C7        0.1698     8.4983     8.5660  C.ar    1  <O>11       0.1092
  12 S1        1.7476     9.1426     9.0083  S.O2    1  <O>11       0.0724
  13 O3        1.6806     9.7705    10.5434  O.2     1  <O>11      -0.1500
  14 O4        2.1748    10.3406     7.9387  O.2     1  <O>11      -0.1500
  15 N3        2.8708     7.9328     8.9572  N.pl3   1  <O>11      -0.2135
  16 C8        4.0336     7.9853     9.8233  C.ar    1  <O>11       0.0831
  17 C9        5.0117     8.9777     9.6389  C.ar    1  <O>11      -0.0365
  18 C10       6.1403     9.0197    10.4649  C.ar    1  <O>11      -0.0598
  19 C11       6.2990     8.0767    11.4858  C.ar    1  <O>11      -0.0589
  20 C12       5.3219     7.0924    11.6722  C.ar    1  <O>11      -0.0246
  21 C13       4.1944     7.0443    10.8541  C.ar    1  <O>11       0.1456
  22 F1        3.2327     6.0842    11.0428  F       1  <O>11      -0.2035
  23 C14      -0.2330     8.4994     7.2311  C.ar    1  <O>11      -0.0229
  24 C15       1.8450     5.2530     4.3400  C.ar    1  <O>11       0.0410
  25 C16       3.1262     5.7903     4.2478  C.ar    1  <O>11      -0.0314
  26 C17       4.1974     4.9943     4.6127  C.ar    1  <O>11       0.0283
  27 N4        4.0735     3.7275     5.0602  N.ar    1  <O>11      -0.2632
  28 C18       2.8384     3.2117     5.1638  C.ar    1  <O>11       0.0283
  29 C19       1.7039     3.9454     4.8181  C.ar    1  <O>11      -0.0314
  30 H1        0.1010     6.4490     5.9020  H       1  <O>11       0.1731
  31 H2       -1.5414     7.2995     3.5758  H       1  <O>11       0.1731
  32 H3        2.7478     7.1492     8.3173  H       1  <O>11       0.1738
  33 H4       -3.2592     7.0945     7.6326  H       1  <O>11       0.0625
  34 H5       -2.5415     7.1013     9.9512  H       1  <O>11       0.0618
  35 H6       -0.3606     7.9946    10.5525  H       1  <O>11       0.0637
  36 H7        4.8968     9.6790     8.8906  H       1  <O>11       0.0637
  37 H8        6.8572     9.7479    10.3206  H       1  <O>11       0.0618
  38 H9        7.1301     8.1066    12.0968  H       1  <O>11       0.0618
  39 H10       5.4374     6.3945    12.4237  H       1  <O>11       0.0647
  40 H11       0.3952     8.8717     6.5017  H       1  <O>11       0.0645
  41 H12       3.2729     6.7565     3.9162  H       1  <O>11       0.0640
  42 H13       5.1465     5.3927     4.5382  H       1  <O>11       0.0830
  43 H14       2.7254     2.2456     5.5087  H       1  <O>11       0.0830
  44 H15       0.7658     3.5265     4.9144  H       1  <O>11       0.0640
@<TRIPOS>BOND
     1     1     2    2
     2     2     3   am
     3     3     4    1
     4     4     5   am
     5     5     6    2
     6     5     7    1
     7     7     8   ar
     8     8     9   ar
     9     9    10   ar
    10    10    11   ar
    11    11    12    1
    12    12    13    2
    13    12    14    2
    14    12    15    1
    15    15    16    1
    16    16    17   ar
    17    17    18   ar
    18    18    19   ar
    19    19    20   ar
    20    20    21   ar
    21    16    21   ar
    22    21    22    1
    23    11    23   ar
    24     7    23   ar
    25     2    24    1
    26    24    25   ar
    27    25    26   ar
    28    26    27   ar
    29    27    28   ar
    30    28    29   ar
    31    24    29   ar
    32     3    30    1
    33     4    31    1
    34    15    32    1
    35     8    33    1
    36     9    34    1
    37    10    35    1
    38    17    36    1
    39    18    37    1
    40    19    38    1
    41    20    39    1
    42    23    40    1
    43    25    41    1
    44    26    42    1
    45    28    43    1
    46    29    44    1
@<TRIPOS>MOLECULE
mol95_1_22
 44 46 0 0 0
SMALL
USER_CHARGES
****
VDW energy = 108.89
@<TRIPOS>ATOM
   1 O1        0.4027     6.1580     2.7719  O.2     1  <O>11      -0.2687
   2 C1        0.6752     6.0132     3.9543  C.2     1  <O>11       0.2602
   3 N1       -0.1260     6.5700     4.9150  N.am    1  <O>11      -0.2301
   4 N2       -1.2360     7.2920     4.5490  N.am    1  <O>11      -0.2301
   5 C2       -1.9328     8.0023     5.4903  C.2     1  <O>11       0.2602
   6 O2       -1.5679     7.9933     6.6558  O.2     1  <O>11      -0.2687
   7 C3       -3.1098     8.7682     5.1013  C.ar    1  <O>11       0.0400
   8 C4       -3.8293     9.4988     6.0602  C.ar    1  <O>11      -0.0495
   9 C5       -4.9668    10.2241     5.6881  C.ar    1  <O>11      -0.0592
  10 C6       -5.3932    10.2301     4.3573  C.ar    1  <O>11      -0.0350
  11 C7       -4.6711     9.5069     3.4013  C.ar    1  <O>11       0.1092
  12 S1       -5.2123     9.5170     1.7258  S.O2    1  <O>11       0.0724
  13 O3       -5.2116    11.0743     1.1514  O.2     1  <O>11      -0.1500
  14 O4       -6.7512     8.8958     1.6385  O.2     1  <O>11      -0.1500
  15 N3       -4.1931     8.5929     0.8120  N.pl3   1  <O>11      -0.2135
  16 C8       -3.9988     8.8996    -0.5927  C.ar    1  <O>11       0.0831
  17 C9       -5.0544     8.7392    -1.5067  C.ar    1  <O>11      -0.0365
  18 C10      -4.8631     9.0211    -2.8638  C.ar    1  <O>11      -0.0598
  19 C11      -3.6196     9.4719    -3.3190  C.ar    1  <O>11      -0.0589
  20 C12      -2.5708     9.6366    -2.4074  C.ar    1  <O>11      -0.0246
  21 C13      -2.7536     9.3586    -1.0538  C.ar    1  <O>11       0.1456
  22 F1       -1.7274     9.5285    -0.1592  F       1  <O>11      -0.2035
  23 C14      -3.5356     8.7822     3.7614  C.ar    1  <O>11      -0.0229
  24 C15       1.8450     5.2530     4.3400  C.ar    1  <O>11       0.0410
  25 C16       3.1262     5.7903     4.2478  C.ar    1  <O>11      -0.0314
  26 C17       4.1974     4.9943     4.6127  C.ar    1  <O>11       0.0283
  27 N4        4.0735     3.7275     5.0602  N.ar    1  <O>11      -0.2632
  28 C18       2.8384     3.2117     5.1638  C.ar    1  <O>11       0.0283
  29 C19       1.7039     3.9454     4.8181  C.ar    1  <O>11      -0.0314
  30 H1        0.1010     6.4490     5.9020  H       1  <O>11       0.1731
  31 H2       -1.5414     7.2995     3.5758  H       1  <O>11       0.1731
  32 H3       -3.7004     7.8071     1.2342  H       1  <O>11       0.1738
  33 H4       -3.5179     9.5011     7.0441  H       1  <O>11       0.0625
  34 H5       -5.4926    10.7563     6.3989  H       1  <O>11       0.0618
  35 H6       -6.2330    10.7631     4.0821  H       1  <O>11       0.0637
  36 H7       -5.9753     8.4120    -1.1753  H       1  <O>11       0.0637
  37 H8       -5.6410     8.8962    -3.5304  H       1  <O>11       0.0618
  38 H9       -3.4767     9.6814    -4.3194  H       1  <O>11       0.0618
  39 H10      -1.6519     9.9675    -2.7409  H       1  <O>11       0.0647
  40 H11      -3.0088     8.2571     3.0459  H       1  <O>11       0.0645
  41 H12       3.2729     6.7565     3.9162  H       1  <O>11       0.0640
  42 H13       5.1465     5.3927     4.5382  H       1  <O>11       0.0830
  43 H14       2.7254     2.2456     5.5087  H       1  <O>11       0.0830
  44 H15       0.7658     3.5265     4.9144  H       1  <O>11       0.0640
@<TRIPOS>BOND
     1     1     2    2
     2     2     3   am
     3     3     4    1
     4     4     5   am
     5     5     6    2
     6     5     7    1
     7     7     8   ar
     8     8     9   ar
     9     9    10   ar
    10    10    11   ar
    11    11    12    1
    12    12    13    2
    13    12    14    2
    14    12    15    1
    15    15    16    1
    16    16    17   ar
    17    17    18   ar
    18    18    19   ar
    19    19    20   ar
    20    20    21   ar
    21    16    21   ar
    22    21    22    1
    23    11    23   ar
    24     7    23   ar
    25     2    24    1
    26    24    25   ar
    27    25    26   ar
    28    26    27   ar
    29    27    28   ar
    30    28    29   ar
    31    24    29   ar
    32     3    30    1
    33     4    31    1
    34    15    32    1
    35     8    33    1
    36     9    34    1
    37    10    35    1
    38    17    36    1
    39    18    37    1
    40    19    38    1
    41    20    39    1
    42    23    40    1
    43    25    41    1
    44    26    42    1
    45    28    43    1
    46    29    44    1
@<TRIPOS>MOLECULE
mol95_1_23
 44 46 0 0 0
SMALL
USER_CHARGES
****
VDW energy = 110.65
@<TRIPOS>ATOM
   1 O1        0.4027     6.1580     2.7719  O.2     1  <O>11      -0.2687
   2 C1        0.6752     6.0132     3.9543  C.2     1  <O>11       0.2602
   3 N1       -0.1260     6.5700     4.9150  N.am    1  <O>11      -0.2301
   4 N2       -1.2360     7.2920     4.5490  N.am    1  <O>11      -0.2301
   5 C2       -2.2312     6.6968     3.8200  C.2     1  <O>11       0.2602
   6 O2       -2.1316     5.5239     3.4942  O.2     1  <O>11      -0.2687
   7 C3       -3.4084     7.4631     3.4325  C.ar    1  <O>11       0.0400
   8 C4       -4.6818     7.0855     3.8873  C.ar    1  <O>11      -0.0495
   9 C5       -5.8133     7.8146     3.5047  C.ar    1  <O>11      -0.0592
  10 C6       -5.6840     8.9276     2.6697  C.ar    1  <O>11      -0.0350
  11 C7       -4.4133     9.3070     2.2225  C.ar    1  <O>11       0.1092
  12 S1       -4.2550    10.7098     1.1702  S.O2    1  <O>11       0.0724
  13 O3       -2.7399    11.3654     1.3428  O.2     1  <O>11      -0.1500
  14 O4       -5.3985    11.8425     1.5838  O.2     1  <O>11      -0.1500
  15 N3       -4.4795    10.2489    -0.3998  N.pl3   1  <O>11      -0.2135
  16 C8       -3.8248    10.9770    -1.4704  C.ar    1  <O>11       0.0831
  17 C9       -4.1868    12.3060    -1.7498  C.ar    1  <O>11      -0.0365
  18 C10      -3.5657    13.0035    -2.7916  C.ar    1  <O>11      -0.0598
  19 C11      -2.5735    12.3836    -3.5584  C.ar    1  <O>11      -0.0589
  20 C12      -2.2097    11.0623    -3.2759  C.ar    1  <O>11      -0.0246
  21 C13      -2.8233    10.3608    -2.2393  C.ar    1  <O>11       0.1456
  22 F1       -2.4601     9.0682    -1.9574  F       1  <O>11      -0.2035
  23 C14      -3.2793     8.5882     2.5991  C.ar    1  <O>11      -0.0229
  24 C15       1.8450     5.2530     4.3400  C.ar    1  <O>11       0.0410
  25 C16       3.1262     5.7903     4.2478  C.ar    1  <O>11      -0.0314
  26 C17       4.1974     4.9943     4.6127  C.ar    1  <O>11       0.0283
  27 N4        4.0735     3.7275     5.0602  N.ar    1  <O>11      -0.2632
  28 C18       2.8384     3.2117     5.1638  C.ar    1  <O>11       0.0283
  29 C19       1.7039     3.9454     4.8181  C.ar    1  <O>11      -0.0314
  30 H1        0.1010     6.4490     5.9020  H       1  <O>11       0.1731
  31 H2       -1.3194     8.2716     4.8204  H       1  <O>11       0.1731
  32 H3       -5.0780     9.4532    -0.6173  H       1  <O>11       0.1738
  33 H4       -4.7839     6.2664     4.5067  H       1  <O>11       0.0625
  34 H5       -6.7466     7.5293     3.8403  H       1  <O>11       0.0618
  35 H6       -6.5179     9.4650     2.3853  H       1  <O>11       0.0637
  36 H7       -4.9145    12.7697    -1.1837  H       1  <O>11       0.0637
  37 H8       -3.8401    13.9775    -2.9947  H       1  <O>11       0.0618
  38 H9       -2.1133    12.8967    -4.3265  H       1  <O>11       0.0618
  39 H10      -1.4791    10.6020    -3.8412  H       1  <O>11       0.0647
  40 H11      -2.3473     8.8812     2.2668  H       1  <O>11       0.0645
  41 H12       3.2729     6.7565     3.9162  H       1  <O>11       0.0640
  42 H13       5.1465     5.3927     4.5382  H       1  <O>11       0.0830
  43 H14       2.7254     2.2456     5.5087  H       1  <O>11       0.0830
  44 H15       0.7658     3.5265     4.9144  H       1  <O>11       0.0640
@<TRIPOS>BOND
     1     1     2    2
     2     2     3   am
     3     3     4    1
     4     4     5   am
     5     5     6    2
     6     5     7    1
     7     7     8   ar
     8     8     9   ar
     9     9    10   ar
    10    10    11   ar
    11    11    12    1
    12    12    13    2
    13    12    14    2
    14    12    15    1
    15    15    16    1
    16    16    17   ar
    17    17    18   ar
    18    18    19   ar
    19    19    20   ar
    20    20    21   ar
    21    16    21   ar
    22    21    22    1
    23    11    23   ar
    24     7    23   ar
    25     2    24    1
    26    24    25   ar
    27    25    26   ar
    28    26    27   ar
    29    27    28   ar
    30    28    29   ar
    31    24    29   ar
    32     3    30    1
    33     4    31    1
    34    15    32    1
    35     8    33    1
    36     9    34    1
    37    10    35    1
    38    17    36    1
    39    18    37    1
    40    19    38    1
    41    20    39    1
    42    23    40    1
    43    25    41    1
    44    26    42    1
    45    28    43    1
    46    29    44    1
@<TRIPOS>MOLECULE
mol95_1_24
 44 46 0 0 0
SMALL
USER_CHARGES
****
VDW energy = 111.49
@<TRIPOS>ATOM
   1 O1        0.4027     6.1580     2.7719  O.2     1  <O>11      -0.2687
   2 C1        0.6752     6.0132     3.9543  C.2     1  <O>11       0.2602
   3 N1       -0.1260     6.5700     4.9150  N.am    1  <O>11      -0.2301
   4 N2       -1.2360     7.2920     4.5490  N.am    1  <O>11      -0.2301
   5 C2       -1.1001     8.4105     3.7701  C.2     1  <O>11       0.2602
   6 O2        0.0084     8.7669     3.4014  O.2     1  <O>11      -0.2687
   7 C3       -2.2779     9.1756     3.3820  C.ar    1  <O>11       0.0400
   8 C4       -2.7377    10.2280     4.1895  C.ar    1  <O>11      -0.0495
   9 C5       -3.8762    10.9543     3.8224  C.ar    1  <O>11      -0.0592
  10 C6       -4.5623    10.6401     2.6462  C.ar    1  <O>11      -0.0350
  11 C7       -4.0989     9.5952     1.8388  C.ar    1  <O>11       0.1092
  12 S1       -4.9668     9.2026     0.3580  S.O2    1  <O>11       0.0724
  13 O3       -3.9267     8.4931    -0.7238  O.2     1  <O>11      -0.1500
  14 O4       -5.5883    10.5946    -0.3037  O.2     1  <O>11      -0.1500
  15 N3       -6.1994     8.1586     0.7020  N.pl3   1  <O>11      -0.2135
  16 C8       -5.9111     6.8650     1.2924  C.ar    1  <O>11       0.0831
  17 C9       -5.2145     5.8894     0.5586  C.ar    1  <O>11      -0.0365
  18 C10      -4.9490     4.6367     1.1225  C.ar    1  <O>11      -0.0598
  19 C11      -5.3699     4.3495     2.4253  C.ar    1  <O>11      -0.0589
  20 C12      -6.0584     5.3234     3.1571  C.ar    1  <O>11      -0.0246
  21 C13      -6.3262     6.5740     2.6026  C.ar    1  <O>11       0.1456
  22 F1       -6.9938     7.5313     3.3237  F       1  <O>11      -0.2035
  23 C14      -2.9648     8.8663     2.1948  C.ar    1  <O>11      -0.0229
  24 C15       1.8450     5.2530     4.3400  C.ar    1  <O>11       0.0410
  25 C16       3.1262     5.7903     4.2478  C.ar    1  <O>11      -0.0314
  26 C17       4.1974     4.9943     4.6127  C.ar    1  <O>11       0.0283
  27 N4        4.0735     3.7275     5.0602  N.ar    1  <O>11      -0.2632
  28 C18       2.8384     3.2117     5.1638  C.ar    1  <O>11       0.0283
  29 C19       1.7039     3.9454     4.8181  C.ar    1  <O>11      -0.0314
  30 H1        0.1010     6.4490     5.9020  H       1  <O>11       0.1731
  31 H2       -2.1619     6.9950     4.8570  H       1  <O>11       0.1731
  32 H3       -7.1628     8.4223     0.4997  H       1  <O>11       0.1738
  33 H4       -2.2338    10.4671     5.0577  H       1  <O>11       0.0625
  34 H5       -4.2103    11.7245     4.4225  H       1  <O>11       0.0618
  35 H6       -5.4031    11.1739     2.3755  H       1  <O>11       0.0637
  36 H7       -4.8972     6.0980    -0.4010  H       1  <O>11       0.0637
  37 H8       -4.4416     3.9231     0.5762  H       1  <O>11       0.0618
  38 H9       -5.1741     3.4265     2.8435  H       1  <O>11       0.0618
  39 H10      -6.3715     5.1135     4.1178  H       1  <O>11       0.0647
  40 H11      -2.6302     8.1015     1.5881  H       1  <O>11       0.0645
  41 H12       3.2729     6.7565     3.9162  H       1  <O>11       0.0640
  42 H13       5.1465     5.3927     4.5382  H       1  <O>11       0.0830
  43 H14       2.7254     2.2456     5.5087  H       1  <O>11       0.0830
  44 H15       0.7658     3.5265     4.9144  H       1  <O>11       0.0640
@<TRIPOS>BOND
     1     1     2    2
     2     2     3   am
     3     3     4    1
     4     4     5   am
     5     5     6    2
     6     5     7    1
     7     7     8   ar
     8     8     9   ar
     9     9    10   ar
    10    10    11   ar
    11    11    12    1
    12    12    13    2
    13    12    14    2
    14    12    15    1
    15    15    16    1
    16    16    17   ar
    17    17    18   ar
    18    18    19   ar
    19    19    20   ar
    20    20    21   ar
    21    16    21   ar
    22    21    22    1
    23    11    23   ar
    24     7    23   ar
    25     2    24    1
    26    24    25   ar
    27    25    26   ar
    28    26    27   ar
    29    27    28   ar
    30    28    29   ar
    31    24    29   ar
    32     3    30    1
    33     4    31    1
    34    15    32    1
    35     8    33    1
    36     9    34    1
    37    10    35    1
    38    17    36    1
    39    18    37    1
    40    19    38    1
    41    20    39    1
    42    23    40    1
    43    25    41    1
    44    26    42    1
    45    28    43    1
    46    29    44    1
@<TRIPOS>MOLECULE
mol95_1_25
 44 46 0 0 0
SMALL
USER_CHARGES
****
VDW energy = 111.52
@<TRIPOS>ATOM
   1 O1        0.4027     6.1580     2.7719  O.2     1  <O>11      -0.2687
   2 C1        0.6752     6.0132     3.9543  C.2     1  <O>11       0.2602
   3 N1       -0.1260     6.5700     4.9150  N.am    1  <O>11      -0.2301
   4 N2       -1.2360     7.2920     4.5490  N.am    1  <O>11      -0.2301
   5 C2       -2.2312     6.6968     3.8200  C.2     1  <O>11       0.2602
   6 O2       -2.1316     5.5239     3.4942  O.2     1  <O>11      -0.2687
   7 C3       -3.4084     7.4631     3.4325  C.ar    1  <O>11       0.0400
   8 C4       -3.4281     8.1673     2.2181  C.ar    1  <O>11      -0.0495
   9 C5       -4.5543     8.9132     1.8524  C.ar    1  <O>11      -0.0592
  10 C6       -5.6706     8.9594     2.6918  C.ar    1  <O>11      -0.0350
  11 C7       -5.6522     8.2515     3.8989  C.ar    1  <O>11       0.1092
  12 S1       -7.0608     8.3129     4.9536  S.O2    1  <O>11       0.0724
  13 O3       -7.1157     6.9416     5.8872  O.2     1  <O>11      -0.1500
  14 O4       -8.4389     8.4089     4.0298  O.2     1  <O>11      -0.1500
  15 N3       -6.9597     9.6404     5.9310  N.pl3   1  <O>11      -0.2135
  16 C8       -7.5752     9.6227     7.2447  C.ar    1  <O>11       0.0831
  17 C9       -8.9738     9.5654     7.3724  C.ar    1  <O>11      -0.0365
  18 C10      -9.5682     9.5629     8.6390  C.ar    1  <O>11      -0.0598
  19 C11      -8.7724     9.6103     9.7884  C.ar    1  <O>11      -0.0589
  20 C12      -7.3799     9.6616     9.6604  C.ar    1  <O>11      -0.0246
  21 C13      -6.7800     9.6638     8.4022  C.ar    1  <O>11       0.1456
  22 F1       -5.4144     9.7055     8.2775  F       1  <O>11      -0.2035
  23 C14      -4.5357     7.5042     4.2719  C.ar    1  <O>11      -0.0229
  24 C15       1.8450     5.2530     4.3400  C.ar    1  <O>11       0.0410
  25 C16       3.1262     5.7903     4.2478  C.ar    1  <O>11      -0.0314
  26 C17       4.1974     4.9943     4.6127  C.ar    1  <O>11       0.0283
  27 N4        4.0735     3.7275     5.0602  N.ar    1  <O>11      -0.2632
  28 C18       2.8384     3.2117     5.1638  C.ar    1  <O>11       0.0283
  29 C19       1.7039     3.9454     4.8181  C.ar    1  <O>11      -0.0314
  30 H1        0.1010     6.4490     5.9020  H       1  <O>11       0.1731
  31 H2       -1.3194     8.2716     4.8204  H       1  <O>11       0.1731
  32 H3       -6.4652    10.4724     5.6119  H       1  <O>11       0.1738
  33 H4       -2.6082     8.1348     1.5922  H       1  <O>11       0.0625
  34 H5       -4.5604     9.4309     0.9597  H       1  <O>11       0.0618
  35 H6       -6.5009     9.5106     2.4239  H       1  <O>11       0.0637
  36 H7       -9.5652     9.5250     6.5277  H       1  <O>11       0.0637
  37 H8      -10.5960     9.5260     8.7254  H       1  <O>11       0.0618
  38 H9       -9.2088     9.6074    10.7236  H       1  <O>11       0.0618
  39 H10      -6.7905     9.6983    10.5068  H       1  <O>11       0.0647
  40 H11      -4.5366     6.9823     5.1622  H       1  <O>11       0.0645
  41 H12       3.2729     6.7565     3.9162  H       1  <O>11       0.0640
  42 H13       5.1465     5.3927     4.5382  H       1  <O>11       0.0830
  43 H14       2.7254     2.2456     5.5087  H       1  <O>11       0.0830
  44 H15       0.7658     3.5265     4.9144  H       1  <O>11       0.0640
@<TRIPOS>BOND
     1     1     2    2
     2     2     3   am
     3     3     4    1
     4     4     5   am
     5     5     6    2
     6     5     7    1
     7     7     8   ar
     8     8     9   ar
     9     9    10   ar
    10    10    11   ar
    11    11    12    1
    12    12    13    2
    13    12    14    2
    14    12    15    1
    15    15    16    1
    16    16    17   ar
    17    17    18   ar
    18    18    19   ar
    19    19    20   ar
    20    20    21   ar
    21    16    21   ar
    22    21    22    1
    23    11    23   ar
    24     7    23   ar
    25     2    24    1
    26    24    25   ar
    27    25    26   ar
    28    26    27   ar
    29    27    28   ar
    30    28    29   ar
    31    24    29   ar
    32     3    30    1
    33     4    31    1
    34    15    32    1
    35     8    33    1
    36     9    34    1
    37    10    35    1
    38    17    36    1
    39    18    37    1
    40    19    38    1
    41    20    39    1
    42    23    40    1
    43    25    41    1
    44    26    42    1
    45    28    43    1
    46    29    44    1
@<TRIPOS>MOLECULE
mol95_1_26
 44 46 0 0 0
SMALL
USER_CHARGES
****
VDW energy = 113.51
@<TRIPOS>ATOM
   1 O1        0.4027     6.1580     2.7719  O.2     1  <O>11      -0.2687
   2 C1        0.6752     6.0132     3.9543  C.2     1  <O>11       0.2602
   3 N1       -0.1260     6.5700     4.9150  N.am    1  <O>11      -0.2301
   4 N2       -1.2360     7.2920     4.5490  N.am    1  <O>11      -0.2301
   5 C2       -2.2312     6.6968     3.8200  C.2     1  <O>11       0.2602
   6 O2       -2.1316     5.5239     3.4942  O.2     1  <O>11      -0.2687
   7 C3       -3.4084     7.4631     3.4325  C.ar    1  <O>11       0.0400
   8 C4       -4.6818     7.0855     3.8873  C.ar    1  <O>11      -0.0495
   9 C5       -5.8133     7.8146     3.5047  C.ar    1  <O>11      -0.0592
  10 C6       -5.6840     8.9276     2.6697  C.ar    1  <O>11      -0.0350
  11 C7       -4.4133     9.3070     2.2225  C.ar    1  <O>11       0.1092
  12 S1       -4.2550    10.7098     1.1702  S.O2    1  <O>11       0.0724
  13 O3       -5.6291    10.8742     0.2536  O.2     1  <O>11      -0.1500
  14 O4       -2.9440    10.5049     0.1697  O.2     1  <O>11      -0.1500
  15 N3       -4.0403    12.0658     2.0882  N.pl3   1  <O>11      -0.2135
  16 C8       -4.4935    13.3536     1.5972  C.ar    1  <O>11       0.0831
  17 C9       -3.8776    13.9440     0.4803  C.ar    1  <O>11      -0.0365
  18 C10      -4.3050    15.1927     0.0154  C.ar    1  <O>11      -0.0598
  19 C11      -5.3546    15.8591     0.6564  C.ar    1  <O>11      -0.0589
  20 C12      -5.9709    15.2679     1.7649  C.ar    1  <O>11      -0.0246
  21 C13      -5.5515    14.0240     2.2337  C.ar    1  <O>11       0.1456
  22 F1       -6.1618    13.4411     3.3154  F       1  <O>11      -0.2035
  23 C14      -3.2793     8.5882     2.5991  C.ar    1  <O>11      -0.0229
  24 C15       1.8450     5.2530     4.3400  C.ar    1  <O>11       0.0410
  25 C16       3.1262     5.7903     4.2478  C.ar    1  <O>11      -0.0314
  26 C17       4.1974     4.9943     4.6127  C.ar    1  <O>11       0.0283
  27 N4        4.0735     3.7275     5.0602  N.ar    1  <O>11      -0.2632
  28 C18       2.8384     3.2117     5.1638  C.ar    1  <O>11       0.0283
  29 C19       1.7039     3.9454     4.8181  C.ar    1  <O>11      -0.0314
  30 H1        0.1010     6.4490     5.9020  H       1  <O>11       0.1731
  31 H2       -1.3194     8.2716     4.8204  H       1  <O>11       0.1731
  32 H3       -3.5894    11.9987     2.9997  H       1  <O>11       0.1738
  33 H4       -4.7839     6.2664     4.5067  H       1  <O>11       0.0625
  34 H5       -6.7466     7.5293     3.8403  H       1  <O>11       0.0618
  35 H6       -6.5179     9.4650     2.3853  H       1  <O>11       0.0637
  36 H7       -3.1063    13.4542     0.0006  H       1  <O>11       0.0637
  37 H8       -3.8448    15.6228    -0.8021  H       1  <O>11       0.0618
  38 H9       -5.6720    16.7796     0.3144  H       1  <O>11       0.0618
  39 H10      -6.7444    15.7583     2.2406  H       1  <O>11       0.0647
  40 H11      -2.3473     8.8812     2.2668  H       1  <O>11       0.0645
  41 H12       3.2729     6.7565     3.9162  H       1  <O>11       0.0640
  42 H13       5.1465     5.3927     4.5382  H       1  <O>11       0.0830
  43 H14       2.7254     2.2456     5.5087  H       1  <O>11       0.0830
  44 H15       0.7658     3.5265     4.9144  H       1  <O>11       0.0640
@<TRIPOS>BOND
     1     1     2    2
     2     2     3   am
     3     3     4    1
     4     4     5   am
     5     5     6    2
     6     5     7    1
     7     7     8   ar
     8     8     9   ar
     9     9    10   ar
    10    10    11   ar
    11    11    12    1
    12    12    13    2
    13    12    14    2
    14    12    15    1
    15    15    16    1
    16    16    17   ar
    17    17    18   ar
    18    18    19   ar
    19    19    20   ar
    20    20    21   ar
    21    16    21   ar
    22    21    22    1
    23    11    23   ar
    24     7    23   ar
    25     2    24    1
    26    24    25   ar
    27    25    26   ar
    28    26    27   ar
    29    27    28   ar
    30    28    29   ar
    31    24    29   ar
    32     3    30    1
    33     4    31    1
    34    15    32    1
    35     8    33    1
    36     9    34    1
    37    10    35    1
    38    17    36    1
    39    18    37    1
    40    19    38    1
    41    20    39    1
    42    23    40    1
    43    25    41    1
    44    26    42    1
    45    28    43    1
    46    29    44    1
@<TRIPOS>MOLECULE
mol95_1_27
 44 46 0 0 0
SMALL
USER_CHARGES
****
VDW energy = 115.77
@<TRIPOS>ATOM
   1 O1        0.4027     6.1580     2.7719  O.2     1  <O>11      -0.2687
   2 C1        0.6752     6.0132     3.9543  C.2     1  <O>11       0.2602
   3 N1       -0.1260     6.5700     4.9150  N.am    1  <O>11      -0.2301
   4 N2       -1.2360     7.2920     4.5490  N.am    1  <O>11      -0.2301
   5 C2       -1.1001     8.4105     3.7701  C.2     1  <O>11       0.2602
   6 O2        0.0084     8.7669     3.4014  O.2     1  <O>11      -0.2687
   7 C3       -2.2779     9.1756     3.3820  C.ar    1  <O>11       0.0400
   8 C4       -2.7377    10.2280     4.1895  C.ar    1  <O>11      -0.0495
   9 C5       -3.8762    10.9543     3.8224  C.ar    1  <O>11      -0.0592
  10 C6       -4.5623    10.6401     2.6462  C.ar    1  <O>11      -0.0350
  11 C7       -4.0989     9.5952     1.8388  C.ar    1  <O>11       0.1092
  12 S1       -4.9668     9.2026     0.3580  S.O2    1  <O>11       0.0724
  13 O3       -3.9267     8.4931    -0.7238  O.2     1  <O>11      -0.1500
  14 O4       -5.5883    10.5946    -0.3037  O.2     1  <O>11      -0.1500
  15 N3       -6.1994     8.1586     0.7020  N.pl3   1  <O>11      -0.2135
  16 C8       -7.2456     8.5510     1.6274  C.ar    1  <O>11       0.0831
  17 C9       -6.9534     8.7433     2.9888  C.ar    1  <O>11      -0.0365
  18 C10      -7.9651     9.1076     3.8840  C.ar    1  <O>11      -0.0598
  19 C11      -9.2748     9.2900     3.4275  C.ar    1  <O>11      -0.0589
  20 C12      -9.5635     9.1038     2.0710  C.ar    1  <O>11      -0.0246
  21 C13      -8.5612     8.7415     1.1728  C.ar    1  <O>11       0.1456
  22 F1       -8.8433     8.5674    -0.1585  F       1  <O>11      -0.2035
  23 C14      -2.9648     8.8663     2.1948  C.ar    1  <O>11      -0.0229
  24 C15       1.8450     5.2530     4.3400  C.ar    1  <O>11       0.0410
  25 C16       3.1262     5.7903     4.2478  C.ar    1  <O>11      -0.0314
  26 C17       4.1974     4.9943     4.6127  C.ar    1  <O>11       0.0283
  27 N4        4.0735     3.7275     5.0602  N.ar    1  <O>11      -0.2632
  28 C18       2.8384     3.2117     5.1638  C.ar    1  <O>11       0.0283
  29 C19       1.7039     3.9454     4.8181  C.ar    1  <O>11      -0.0314
  30 H1        0.1010     6.4490     5.9020  H       1  <O>11       0.1731
  31 H2       -2.1619     6.9950     4.8570  H       1  <O>11       0.1731
  32 H3       -6.2256     7.2384     0.2647  H       1  <O>11       0.1738
  33 H4       -2.2338    10.4671     5.0577  H       1  <O>11       0.0625
  34 H5       -4.2103    11.7245     4.4225  H       1  <O>11       0.0618
  35 H6       -5.4031    11.1739     2.3755  H       1  <O>11       0.0637
  36 H7       -5.9879     8.6151     3.3297  H       1  <O>11       0.0637
  37 H8       -7.7447     9.2421     4.8832  H       1  <O>11       0.0618
  38 H9      -10.0222     9.5598     4.0860  H       1  <O>11       0.0618
  39 H10     -10.5293     9.2361     1.7320  H       1  <O>11       0.0647
  40 H11      -2.6302     8.1015     1.5881  H       1  <O>11       0.0645
  41 H12       3.2729     6.7565     3.9162  H       1  <O>11       0.0640
  42 H13       5.1465     5.3927     4.5382  H       1  <O>11       0.0830
  43 H14       2.7254     2.2456     5.5087  H       1  <O>11       0.0830
  44 H15       0.7658     3.5265     4.9144  H       1  <O>11       0.0640
@<TRIPOS>BOND
     1     1     2    2
     2     2     3   am
     3     3     4    1
     4     4     5   am
     5     5     6    2
     6     5     7    1
     7     7     8   ar
     8     8     9   ar
     9     9    10   ar
    10    10    11   ar
    11    11    12    1
    12    12    13    2
    13    12    14    2
    14    12    15    1
    15    15    16    1
    16    16    17   ar
    17    17    18   ar
    18    18    19   ar
    19    19    20   ar
    20    20    21   ar
    21    16    21   ar
    22    21    22    1
    23    11    23   ar
    24     7    23   ar
    25     2    24    1
    26    24    25   ar
    27    25    26   ar
    28    26    27   ar
    29    27    28   ar
    30    28    29   ar
    31    24    29   ar
    32     3    30    1
    33     4    31    1
    34    15    32    1
    35     8    33    1
    36     9    34    1
    37    10    35    1
    38    17    36    1
    39    18    37    1
    40    19    38    1
    41    20    39    1
    42    23    40    1
    43    25    41    1
    44    26    42    1
    45    28    43    1
    46    29    44    1
@<TRIPOS>MOLECULE
mol95_1_28
 44 46 0 0 0
SMALL
USER_CHARGES
****
VDW energy = 115.90
@<TRIPOS>ATOM
   1 O1        0.4027     6.1580     2.7719  O.2     1  <O>11      -0.2687
   2 C1        0.6752     6.0132     3.9543  C.2     1  <O>11       0.2602
   3 N1       -0.1260     6.5700     4.9150  N.am    1  <O>11      -0.2301
   4 N2       -1.2360     7.2920     4.5490  N.am    1  <O>11      -0.2301
   5 C2       -2.2312     6.6968     3.8200  C.2     1  <O>11       0.2602
   6 O2       -2.1316     5.5239     3.4942  O.2     1  <O>11      -0.2687
   7 C3       -3.4084     7.4631     3.4325  C.ar    1  <O>11       0.0400
   8 C4       -4.6818     7.0855     3.8873  C.ar    1  <O>11      -0.0495
   9 C5       -5.8133     7.8146     3.5047  C.ar    1  <O>11      -0.0592
  10 C6       -5.6840     8.9276     2.6697  C.ar    1  <O>11      -0.0350
  11 C7       -4.4133     9.3070     2.2225  C.ar    1  <O>11       0.1092
  12 S1       -4.2550    10.7098     1.1702  S.O2    1  <O>11       0.0724
  13 O3       -5.6291    10.8742     0.2536  O.2     1  <O>11      -0.1500
  14 O4       -2.9440    10.5049     0.1697  O.2     1  <O>11      -0.1500
  15 N3       -4.0403    12.0658     2.0882  N.pl3   1  <O>11      -0.2135
  16 C8       -4.4935    13.3536     1.5972  C.ar    1  <O>11       0.0831
  17 C9       -3.8776    13.9440     0.4803  C.ar    1  <O>11      -0.0365
  18 C10      -4.3050    15.1927     0.0154  C.ar    1  <O>11      -0.0598
  19 C11      -5.3546    15.8591     0.6564  C.ar    1  <O>11      -0.0589
  20 C12      -5.9709    15.2679     1.7649  C.ar    1  <O>11      -0.0246
  21 C13      -5.5515    14.0240     2.2337  C.ar    1  <O>11       0.1456
  22 F1       -6.1618    13.4411     3.3154  F       1  <O>11      -0.2035
  23 C14      -3.2793     8.5882     2.5991  C.ar    1  <O>11      -0.0229
  24 C15       1.8450     5.2530     4.3400  C.ar    1  <O>11       0.0410
  25 C16       1.8256     4.3899     5.4324  C.ar    1  <O>11      -0.0314
  26 C17       2.9898     3.7152     5.7540  C.ar    1  <O>11       0.0283
  27 N4        4.1439     3.8388     5.0661  N.ar    1  <O>11      -0.2632
  28 C18       4.1617     4.6593     4.0037  C.ar    1  <O>11       0.0283
  29 C19       3.0324     5.3766     3.6098  C.ar    1  <O>11      -0.0314
  30 H1        0.1010     6.4490     5.9020  H       1  <O>11       0.1731
  31 H2       -1.3194     8.2716     4.8204  H       1  <O>11       0.1731
  32 H3       -3.5894    11.9987     2.9997  H       1  <O>11       0.1738
  33 H4       -4.7839     6.2664     4.5067  H       1  <O>11       0.0625
  34 H5       -6.7466     7.5293     3.8403  H       1  <O>11       0.0618
  35 H6       -6.5179     9.4650     2.3853  H       1  <O>11       0.0637
  36 H7       -3.1063    13.4542     0.0006  H       1  <O>11       0.0637
  37 H8       -3.8448    15.6228    -0.8021  H       1  <O>11       0.0618
  38 H9       -5.6720    16.7796     0.3144  H       1  <O>11       0.0618
  39 H10      -6.7444    15.7583     2.2406  H       1  <O>11       0.0647
  40 H11      -2.3473     8.8812     2.2668  H       1  <O>11       0.0645
  41 H12       0.9657     4.2570     5.9874  H       1  <O>11       0.0640
  42 H13       2.9746     3.0802     6.5674  H       1  <O>11       0.0830
  43 H14       5.0350     4.7621     3.4636  H       1  <O>11       0.0830
  44 H15       3.0721     5.9949     2.7846  H       1  <O>11       0.0640
@<TRIPOS>BOND
     1     1     2    2
     2     2     3   am
     3     3     4    1
     4     4     5   am
     5     5     6    2
     6     5     7    1
     7     7     8   ar
     8     8     9   ar
     9     9    10   ar
    10    10    11   ar
    11    11    12    1
    12    12    13    2
    13    12    14    2
    14    12    15    1
    15    15    16    1
    16    16    17   ar
    17    17    18   ar
    18    18    19   ar
    19    19    20   ar
    20    20    21   ar
    21    16    21   ar
    22    21    22    1
    23    11    23   ar
    24     7    23   ar
    25     2    24    1
    26    24    25   ar
    27    25    26   ar
    28    26    27   ar
    29    27    28   ar
    30    28    29   ar
    31    24    29   ar
    32     3    30    1
    33     4    31    1
    34    15    32    1
    35     8    33    1
    36     9    34    1
    37    10    35    1
    38    17    36    1
    39    18    37    1
    40    19    38    1
    41    20    39    1
    42    23    40    1
    43    25    41    1
    44    26    42    1
    45    28    43    1
    46    29    44    1
@<TRIPOS>MOLECULE
mol95_1_29
 44 46 0 0 0
SMALL
USER_CHARGES
****
VDW energy = 116.30
@<TRIPOS>ATOM
   1 O1        0.4027     6.1580     2.7719  O.2     1  <O>11      -0.2687
   2 C1        0.6752     6.0132     3.9543  C.2     1  <O>11       0.2602
   3 N1       -0.1260     6.5700     4.9150  N.am    1  <O>11      -0.2301
   4 N2       -1.2360     7.2920     4.5490  N.am    1  <O>11      -0.2301
   5 C2       -2.2312     6.6968     3.8200  C.2     1  <O>11       0.2602
   6 O2       -2.1316     5.5239     3.4942  O.2     1  <O>11      -0.2687
   7 C3       -3.4084     7.4631     3.4325  C.ar    1  <O>11       0.0400
   8 C4       -3.9875     8.3754     4.3289  C.ar    1  <O>11      -0.0495
   9 C5       -5.1254     9.1019     3.9605  C.ar    1  <O>11      -0.0592
  10 C6       -5.6921     8.9280     2.6950  C.ar    1  <O>11      -0.0350
  11 C7       -5.1098     8.0233     1.8000  C.ar    1  <O>11       0.1092
  12 S1       -5.8275     7.8071     0.2067  S.O2    1  <O>11       0.0724
  13 O3       -7.4630     8.0771     0.2931  O.2     1  <O>11      -0.1500
  14 O4       -5.5500     6.2550    -0.3182  O.2     1  <O>11      -0.1500
  15 N3       -5.1484     8.8763    -0.8531  N.pl3   1  <O>11      -0.2135
  16 C8       -5.9139     9.3593    -1.9870  C.ar    1  <O>11       0.0831
  17 C9       -6.2813     8.4811    -3.0210  C.ar    1  <O>11      -0.0365
  18 C10      -7.0072     8.9497    -4.1216  C.ar    1  <O>11      -0.0598
  19 C11      -7.3785    10.2963    -4.1963  C.ar    1  <O>11      -0.0589
  20 C12      -7.0170    11.1687    -3.1636  C.ar    1  <O>11      -0.0246
  21 C13      -6.2946    10.7095    -2.0636  C.ar    1  <O>11       0.1456
  22 F1       -5.9479    11.5635    -1.0473  F       1  <O>11      -0.2035
  23 C14      -3.9752     7.2956     2.1567  C.ar    1  <O>11      -0.0229
  24 C15       1.8450     5.2530     4.3400  C.ar    1  <O>11       0.0410
  25 C16       1.8256     4.3899     5.4324  C.ar    1  <O>11      -0.0314
  26 C17       2.9898     3.7152     5.7540  C.ar    1  <O>11       0.0283
  27 N4        4.1439     3.8388     5.0661  N.ar    1  <O>11      -0.2632
  28 C18       4.1617     4.6593     4.0037  C.ar    1  <O>11       0.0283
  29 C19       3.0324     5.3766     3.6098  C.ar    1  <O>11      -0.0314
  30 H1        0.1010     6.4490     5.9020  H       1  <O>11       0.1731
  31 H2       -1.3194     8.2716     4.8204  H       1  <O>11       0.1731
  32 H3       -4.1916     9.1972    -0.7113  H       1  <O>11       0.1738
  33 H4       -3.5720     8.5108     5.2638  H       1  <O>11       0.0625
  34 H5       -5.5475     9.7684     4.6258  H       1  <O>11       0.0618
  35 H6       -6.5323     9.4619     2.4230  H       1  <O>11       0.0637
  36 H7       -6.0145     7.4856    -2.9683  H       1  <O>11       0.0637
  37 H8       -7.2691     8.3005    -4.8799  H       1  <O>11       0.0618
  38 H9       -7.9148    10.6437    -5.0067  H       1  <O>11       0.0618
  39 H10      -7.2883    12.1630    -3.2171  H       1  <O>11       0.0647
  40 H11      -3.5522     6.6354     1.4857  H       1  <O>11       0.0645
  41 H12       0.9657     4.2570     5.9874  H       1  <O>11       0.0640
  42 H13       2.9746     3.0802     6.5674  H       1  <O>11       0.0830
  43 H14       5.0350     4.7621     3.4636  H       1  <O>11       0.0830
  44 H15       3.0721     5.9949     2.7846  H       1  <O>11       0.0640
@<TRIPOS>BOND
     1     1     2    2
     2     2     3   am
     3     3     4    1
     4     4     5   am
     5     5     6    2
     6     5     7    1
     7     7     8   ar
     8     8     9   ar
     9     9    10   ar
    10    10    11   ar
    11    11    12    1
    12    12    13    2
    13    12    14    2
    14    12    15    1
    15    15    16    1
    16    16    17   ar
    17    17    18   ar
    18    18    19   ar
    19    19    20   ar
    20    20    21   ar
    21    16    21   ar
    22    21    22    1
    23    11    23   ar
    24     7    23   ar
    25     2    24    1
    26    24    25   ar
    27    25    26   ar
    28    26    27   ar
    29    27    28   ar
    30    28    29   ar
    31    24    29   ar
    32     3    30    1
    33     4    31    1
    34    15    32    1
    35     8    33    1
    36     9    34    1
    37    10    35    1
    38    17    36    1
    39    18    37    1
    40    19    38    1
    41    20    39    1
    42    23    40    1
    43    25    41    1
    44    26    42    1
    45    28    43    1
    46    29    44    1
@<TRIPOS>MOLECULE
mol95_1_30
 44 46 0 0 0
SMALL
USER_CHARGES
****
VDW energy = 137.71
@<TRIPOS>ATOM
   1 O1        0.4027     6.1580     2.7719  O.2     1  <O>11      -0.2687
   2 C1        0.6752     6.0132     3.9543  C.2     1  <O>11       0.2602
   3 N1       -0.1260     6.5700     4.9150  N.am    1  <O>11      -0.2301
   4 N2        0.1812     6.4066     6.2440  N.am    1  <O>11      -0.2301
   5 C2       -0.7101     6.7999     7.2069  C.2     1  <O>11       0.2602
   6 O2       -1.7780     7.2969     6.8842  O.2     1  <O>11      -0.2687
   7 C3       -0.3837     6.6259     8.6164  C.ar    1  <O>11       0.0400
   8 C4       -1.1726     5.7971     9.4300  C.ar    1  <O>11      -0.0495
   9 C5       -0.8659     5.6403    10.7863  C.ar    1  <O>11      -0.0592
  10 C6        0.2314     6.3046    11.3410  C.ar    1  <O>11      -0.0350
  11 C7        1.0208     7.1252    10.5273  C.ar    1  <O>11       0.1092
  12 S1        2.4020     7.9606    11.2305  S.O2    1  <O>11       0.0724
  13 O3        3.4667     6.8485    11.8509  O.2     1  <O>11      -0.1500
  14 O4        1.8795     8.9648    12.4472  O.2     1  <O>11      -0.1500
  15 N3        3.1571     8.8546    10.0650  N.pl3   1  <O>11      -0.2135
  16 C8        3.7036     8.2018     8.8902  C.ar    1  <O>11       0.0831
  17 C9        4.7982     7.3281     9.0085  C.ar    1  <O>11      -0.0365
  18 C10       5.3346     6.7097     7.8738  C.ar    1  <O>11      -0.0598
  19 C11       4.7792     6.9521     6.6130  C.ar    1  <O>11      -0.0589
  20 C12       3.6859     7.8178     6.4970  C.ar    1  <O>11      -0.0246
  21 C13       3.1453     8.4372     7.6226  C.ar    1  <O>11       0.1456
  22 F1        2.0680     9.2791     7.5092  F       1  <O>11      -0.2035
  23 C14       0.7247     7.2870     9.1744  C.ar    1  <O>11      -0.0229
  24 C15       1.8450     5.2530     4.3400  C.ar    1  <O>11       0.0410
  25 C16       3.1262     5.7903     4.2478  C.ar    1  <O>11      -0.0314
  26 C17       4.1974     4.9943     4.6127  C.ar    1  <O>11       0.0283
  27 N4        4.0735     3.7275     5.0602  N.ar    1  <O>11      -0.2632
  28 C18       2.8384     3.2117     5.1638  C.ar    1  <O>11       0.0283
  29 C19       1.7039     3.9454     4.8181  C.ar    1  <O>11      -0.0314
  30 H1       -0.9506     7.1058     4.6443  H       1  <O>11       0.1731
  31 H2        1.0731     5.9920     6.5141  H       1  <O>11       0.1731
  32 H3        3.2395     9.8649    10.1704  H       1  <O>11       0.1738
  33 H4       -1.9824     5.3012     9.0258  H       1  <O>11       0.0625
  34 H5       -1.4520     5.0320    11.3790  H       1  <O>11       0.0618
  35 H6        0.4574     6.1912    12.3415  H       1  <O>11       0.0637
  36 H7        5.2083     7.1418     9.9369  H       1  <O>11       0.0637
  37 H8        6.1417     6.0734     7.9672  H       1  <O>11       0.0618
  38 H9        5.1726     6.4961     5.7750  H       1  <O>11       0.0618
  39 H10       3.2753     7.9996     5.5677  H       1  <O>11       0.0647
  40 H11       1.3177     7.8908     8.5838  H       1  <O>11       0.0645
  41 H12       3.2729     6.7565     3.9162  H       1  <O>11       0.0640
  42 H13       5.1465     5.3927     4.5382  H       1  <O>11       0.0830
  43 H14       2.7254     2.2456     5.5087  H       1  <O>11       0.0830
  44 H15       0.7658     3.5265     4.9144  H       1  <O>11       0.0640
@<TRIPOS>BOND
     1     1     2    2
     2     2     3   am
     3     3     4    1
     4     4     5   am
     5     5     6    2
     6     5     7    1
     7     7     8   ar
     8     8     9   ar
     9     9    10   ar
    10    10    11   ar
    11    11    12    1
    12    12    13    2
    13    12    14    2
    14    12    15    1
    15    15    16    1
    16    16    17   ar
    17    17    18   ar
    18    18    19   ar
    19    19    20   ar
    20    20    21   ar
    21    16    21   ar
    22    21    22    1
    23    11    23   ar
    24     7    23   ar
    25     2    24    1
    26    24    25   ar
    27    25    26   ar
    28    26    27   ar
    29    27    28   ar
    30    28    29   ar
    31    24    29   ar
    32     3    30    1
    33     4    31    1
    34    15    32    1
    35     8    33    1
    36     9    34    1
    37    10    35    1
    38    17    36    1
    39    18    37    1
    40    19    38    1
    41    20    39    1
    42    23    40    1
    43    25    41    1
    44    26    42    1
    45    28    43    1
    46    29    44    1
@<TRIPOS>MOLECULE
mol95_2_1
 44 46 0 0 0
SMALL
USER_CHARGES
****
VDW energy = 98.35
@<TRIPOS>ATOM
   1 O1        0.4027     6.1580     2.7719  O.2     1  <O>11      -0.2687
   2 C1        0.6752     6.0132     3.9543  C.2     1  <O>11       0.2602
   3 N1       -0.1260     6.5700     4.9150  N.am    1  <O>11      -0.2301
   4 N2       -1.2360     7.2920     4.5490  N.am    1  <O>11      -0.2301
   5 C2       -2.0718     7.7980     5.5090  C.2     1  <O>11       0.2602
   6 O2       -1.8310     7.6065     6.6909  O.2     1  <O>11      -0.2687
   7 C3       -3.2488     8.5640     5.1200  C.ar    1  <O>11       0.0400
   8 C4       -3.1497     9.9438     4.8806  C.ar    1  <O>11      -0.0495
   9 C5       -4.2828    10.6811     4.5192  C.ar    1  <O>11      -0.0592
  10 C6       -5.5221    10.0483     4.3895  C.ar    1  <O>11      -0.0350
  11 C7       -5.6181     8.6716     4.6218  C.ar    1  <O>11       0.1092
  12 S1       -7.1816     7.8786     4.4576  S.O2    1  <O>11       0.0724
  13 O3       -6.9587     6.3053     3.9778  O.2     1  <O>11      -0.1500
  14 O4       -8.0910     8.6801     3.3208  O.2     1  <O>11      -0.1500
  15 N3       -7.9679     7.9049     5.9098  N.pl3   1  <O>11      -0.2135
  16 C8       -9.3870     8.2026     5.9612  C.ar    1  <O>11       0.0831
  17 C9      -10.3094     7.3735     5.3009  C.ar    1  <O>11      -0.0365
  18 C10     -11.6789     7.6709     5.3401  C.ar    1  <O>11      -0.0598
  19 C11     -12.1343     8.7894     6.0399  C.ar    1  <O>11      -0.0589
  20 C12     -11.2159     9.6102     6.7020  C.ar    1  <O>11      -0.0246
  21 C13      -9.8511     9.3232     6.6718  C.ar    1  <O>11       0.1456
  22 F1       -8.9525    10.1223     7.3278  F       1  <O>11      -0.2035
  23 C14      -4.4949     7.9276     4.9810  C.ar    1  <O>11      -0.0229
  24 C15       1.8450     5.2530     4.3400  C.ar    1  <O>11       0.0410
  25 C16       1.7724     3.8878     4.6040  C.ar    1  <O>11      -0.0314
  26 C17       2.9287     3.2338     4.9905  C.ar    1  <O>11       0.0283
  27 N4        4.1270     3.8402     5.1204  N.ar    1  <O>11      -0.2632
  28 C18       4.2030     5.1535     4.8526  C.ar    1  <O>11       0.0283
  29 C19       3.0862     5.8888     4.4561  C.ar    1  <O>11      -0.0314
  30 H1        0.1010     6.4490     5.9020  H       1  <O>11       0.1731
  31 H2       -1.4378     7.4518     3.5620  H       1  <O>11       0.1731
  32 H3       -7.4555     7.7130     6.7721  H       1  <O>11       0.1738
  33 H4       -2.2369    10.4165     4.9716  H       1  <O>11       0.0625
  34 H5       -4.2031    11.6956     4.3479  H       1  <O>11       0.0618
  35 H6       -6.3588    10.5914     4.1248  H       1  <O>11       0.0637
  36 H7       -9.9778     6.5431     4.7856  H       1  <O>11       0.0637
  37 H8      -12.3522     7.0611     4.8501  H       1  <O>11       0.0618
  38 H9      -13.1422     9.0092     6.0685  H       1  <O>11       0.0618
  39 H10     -11.5518    10.4378     7.2189  H       1  <O>11       0.0647
  40 H11      -4.5779     6.9120     5.1445  H       1  <O>11       0.0645
  41 H12       0.8800     3.3775     4.5138  H       1  <O>11       0.0640
  42 H13       2.8714     2.2230     5.1911  H       1  <O>11       0.0830
  43 H14       5.1128     5.6321     4.9425  H       1  <O>11       0.0830
  44 H15       3.1746     6.8960     4.2496  H       1  <O>11       0.0640
@<TRIPOS>BOND
     1     1     2    2
     2     2     3   am
     3     3     4    1
     4     4     5   am
     5     5     6    2
     6     5     7    1
     7     7     8   ar
     8     8     9   ar
     9     9    10   ar
    10    10    11   ar
    11    11    12    1
    12    12    13    2
    13    12    14    2
    14    12    15    1
    15    15    16    1
    16    16    17   ar
    17    17    18   ar
    18    18    19   ar
    19    19    20   ar
    20    20    21   ar
    21    16    21   ar
    22    21    22    1
    23    11    23   ar
    24     7    23   ar
    25     2    24    1
    26    24    25   ar
    27    25    26   ar
    28    26    27   ar
    29    27    28   ar
    30    28    29   ar
    31    24    29   ar
    32     3    30    1
    33     4    31    1
    34    15    32    1
    35     8    33    1
    36     9    34    1
    37    10    35    1
    38    17    36    1
    39    18    37    1
    40    19    38    1
    41    20    39    1
    42    23    40    1
    43    25    41    1
    44    26    42    1
    45    28    43    1
    46    29    44    1
@<TRIPOS>MOLECULE
mol95_2_2
 44 46 0 0 0
SMALL
USER_CHARGES
****
VDW energy = 98.76
@<TRIPOS>ATOM
   1 O1        0.4027     6.1580     2.7719  O.2     1  <O>11      -0.2687
   2 C1        0.6752     6.0132     3.9543  C.2     1  <O>11       0.2602
   3 N1       -0.1260     6.5700     4.9150  N.am    1  <O>11      -0.2301
   4 N2       -1.2360     7.2920     4.5490  N.am    1  <O>11      -0.2301
   5 C2       -2.0718     7.7980     5.5090  C.2     1  <O>11       0.2602
   6 O2       -1.8310     7.6065     6.6909  O.2     1  <O>11      -0.2687
   7 C3       -3.2488     8.5640     5.1200  C.ar    1  <O>11       0.0400
   8 C4       -3.1497     9.9438     4.8806  C.ar    1  <O>11      -0.0495
   9 C5       -4.2828    10.6811     4.5192  C.ar    1  <O>11      -0.0592
  10 C6       -5.5221    10.0483     4.3895  C.ar    1  <O>11      -0.0350
  11 C7       -5.6181     8.6716     4.6218  C.ar    1  <O>11       0.1092
  12 S1       -7.1816     7.8786     4.4576  S.O2    1  <O>11       0.0724
  13 O3       -7.0199     6.2592     4.7839  O.2     1  <O>11      -0.1500
  14 O4       -7.7415     8.0770     2.9056  O.2     1  <O>11      -0.1500
  15 N3       -8.2539     8.5495     5.5196  N.pl3   1  <O>11      -0.2135
  16 C8       -9.6139     8.8287     5.0984  C.ar    1  <O>11       0.0831
  17 C9      -10.4519     7.7848     4.6713  C.ar    1  <O>11      -0.0365
  18 C10     -11.7612     8.0585     4.2513  C.ar    1  <O>11      -0.0598
  19 C11     -12.2415     9.3690     4.2603  C.ar    1  <O>11      -0.0589
  20 C12     -11.4086    10.4063     4.6917  C.ar    1  <O>11      -0.0246
  21 C13     -10.1047    10.1458     5.1138  C.ar    1  <O>11       0.1456
  22 F1       -9.2920    11.1608     5.5447  F       1  <O>11      -0.2035
  23 C14      -4.4949     7.9276     4.9810  C.ar    1  <O>11      -0.0229
  24 C15       1.8450     5.2530     4.3400  C.ar    1  <O>11       0.0410
  25 C16       1.7724     3.8878     4.6040  C.ar    1  <O>11      -0.0314
  26 C17       2.9287     3.2338     4.9905  C.ar    1  <O>11       0.0283
  27 N4        4.1270     3.8402     5.1204  N.ar    1  <O>11      -0.2632
  28 C18       4.2030     5.1535     4.8526  C.ar    1  <O>11       0.0283
  29 C19       3.0862     5.8888     4.4561  C.ar    1  <O>11      -0.0314
  30 H1        0.1010     6.4490     5.9020  H       1  <O>11       0.1731
  31 H2       -1.4378     7.4518     3.5620  H       1  <O>11       0.1731
  32 H3       -7.9599     8.7694     6.4726  H       1  <O>11       0.1738
  33 H4       -2.2369    10.4165     4.9716  H       1  <O>11       0.0625
  34 H5       -4.2031    11.6956     4.3479  H       1  <O>11       0.0618
  35 H6       -6.3588    10.5914     4.1248  H       1  <O>11       0.0637
  36 H7      -10.1025     6.8137     4.6668  H       1  <O>11       0.0637
  37 H8      -12.3716     7.2889     3.9346  H       1  <O>11       0.0618
  38 H9      -13.2049     9.5712     3.9506  H       1  <O>11       0.0618
  39 H10     -11.7627    11.3756     4.6978  H       1  <O>11       0.0647
  40 H11      -4.5779     6.9120     5.1445  H       1  <O>11       0.0645
  41 H12       0.8800     3.3775     4.5138  H       1  <O>11       0.0640
  42 H13       2.8714     2.2230     5.1911  H       1  <O>11       0.0830
  43 H14       5.1128     5.6321     4.9425  H       1  <O>11       0.0830
  44 H15       3.1746     6.8960     4.2496  H       1  <O>11       0.0640
@<TRIPOS>BOND
     1     1     2    2
     2     2     3   am
     3     3     4    1
     4     4     5   am
     5     5     6    2
     6     5     7    1
     7     7     8   ar
     8     8     9   ar
     9     9    10   ar
    10    10    11   ar
    11    11    12    1
    12    12    13    2
    13    12    14    2
    14    12    15    1
    15    15    16    1
    16    16    17   ar
    17    17    18   ar
    18    18    19   ar
    19    19    20   ar
    20    20    21   ar
    21    16    21   ar
    22    21    22    1
    23    11    23   ar
    24     7    23   ar
    25     2    24    1
    26    24    25   ar
    27    25    26   ar
    28    26    27   ar
    29    27    28   ar
    30    28    29   ar
    31    24    29   ar
    32     3    30    1
    33     4    31    1
    34    15    32    1
    35     8    33    1
    36     9    34    1
    37    10    35    1
    38    17    36    1
    39    18    37    1
    40    19    38    1
    41    20    39    1
    42    23    40    1
    43    25    41    1
    44    26    42    1
    45    28    43    1
    46    29    44    1
@<TRIPOS>MOLECULE
mol95_2_3
 44 46 0 0 0
SMALL
USER_CHARGES
****
VDW energy = 99.65
@<TRIPOS>ATOM
   1 O1        0.4027     6.1580     2.7719  O.2     1  <O>11      -0.2687
   2 C1        0.6752     6.0132     3.9543  C.2     1  <O>11       0.2602
   3 N1       -0.1260     6.5700     4.9150  N.am    1  <O>11      -0.2301
   4 N2       -1.2360     7.2920     4.5490  N.am    1  <O>11      -0.2301
   5 C2       -2.0718     7.7980     5.5090  C.2     1  <O>11       0.2602
   6 O2       -1.8310     7.6065     6.6909  O.2     1  <O>11      -0.2687
   7 C3       -3.2488     8.5640     5.1200  C.ar    1  <O>11       0.0400
   8 C4       -3.1497     9.9438     4.8806  C.ar    1  <O>11      -0.0495
   9 C5       -4.2828    10.6811     4.5192  C.ar    1  <O>11      -0.0592
  10 C6       -5.5221    10.0483     4.3895  C.ar    1  <O>11      -0.0350
  11 C7       -5.6181     8.6716     4.6218  C.ar    1  <O>11       0.1092
  12 S1       -7.1816     7.8786     4.4576  S.O2    1  <O>11       0.0724
  13 O3       -8.1697     8.7944     3.4880  O.2     1  <O>11      -0.1500
  14 O4       -7.8775     7.7134     5.9577  O.2     1  <O>11      -0.1500
  15 N3       -6.9744     6.3870     3.7797  N.pl3   1  <O>11      -0.2135
  16 C8       -7.7132     5.2482     4.2918  C.ar    1  <O>11       0.0831
  17 C9       -9.1178     5.2405     4.2559  C.ar    1  <O>11      -0.0365
  18 C10      -9.8303     4.1452     4.7642  C.ar    1  <O>11      -0.0598
  19 C11      -9.1479     3.0537     5.3038  C.ar    1  <O>11      -0.0589
  20 C12      -7.7498     3.0597     5.3331  C.ar    1  <O>11      -0.0246
  21 C13      -7.0302     4.1430     4.8284  C.ar    1  <O>11       0.1456
  22 F1       -5.6605     4.1449     4.8491  F       1  <O>11      -0.2035
  23 C14      -4.4949     7.9276     4.9810  C.ar    1  <O>11      -0.0229
  24 C15       1.8450     5.2530     4.3400  C.ar    1  <O>11       0.0410
  25 C16       1.7724     3.8878     4.6040  C.ar    1  <O>11      -0.0314
  26 C17       2.9287     3.2338     4.9905  C.ar    1  <O>11       0.0283
  27 N4        4.1270     3.8402     5.1204  N.ar    1  <O>11      -0.2632
  28 C18       4.2030     5.1535     4.8526  C.ar    1  <O>11       0.0283
  29 C19       3.0862     5.8888     4.4561  C.ar    1  <O>11      -0.0314
  30 H1        0.1010     6.4490     5.9020  H       1  <O>11       0.1731
  31 H2       -1.4378     7.4518     3.5620  H       1  <O>11       0.1731
  32 H3       -6.3253     6.2652     3.0007  H       1  <O>11       0.1738
  33 H4       -2.2369    10.4165     4.9716  H       1  <O>11       0.0625
  34 H5       -4.2031    11.6956     4.3479  H       1  <O>11       0.0618
  35 H6       -6.3588    10.5914     4.1248  H       1  <O>11       0.0637
  36 H7       -9.6266     6.0436     3.8542  H       1  <O>11       0.0637
  37 H8      -10.8621     4.1460     4.7393  H       1  <O>11       0.0618
  38 H9       -9.6718     2.2475     5.6788  H       1  <O>11       0.0618
  39 H10      -7.2446     2.2534     5.7327  H       1  <O>11       0.0647
  40 H11      -4.5779     6.9120     5.1445  H       1  <O>11       0.0645
  41 H12       0.8800     3.3775     4.5138  H       1  <O>11       0.0640
  42 H13       2.8714     2.2230     5.1911  H       1  <O>11       0.0830
  43 H14       5.1128     5.6321     4.9425  H       1  <O>11       0.0830
  44 H15       3.1746     6.8960     4.2496  H       1  <O>11       0.0640
@<TRIPOS>BOND
     1     1     2    2
     2     2     3   am
     3     3     4    1
     4     4     5   am
     5     5     6    2
     6     5     7    1
     7     7     8   ar
     8     8     9   ar
     9     9    10   ar
    10    10    11   ar
    11    11    12    1
    12    12    13    2
    13    12    14    2
    14    12    15    1
    15    15    16    1
    16    16    17   ar
    17    17    18   ar
    18    18    19   ar
    19    19    20   ar
    20    20    21   ar
    21    16    21   ar
    22    21    22    1
    23    11    23   ar
    24     7    23   ar
    25     2    24    1
    26    24    25   ar
    27    25    26   ar
    28    26    27   ar
    29    27    28   ar
    30    28    29   ar
    31    24    29   ar
    32     3    30    1
    33     4    31    1
    34    15    32    1
    35     8    33    1
    36     9    34    1
    37    10    35    1
    38    17    36    1
    39    18    37    1
    40    19    38    1
    41    20    39    1
    42    23    40    1
    43    25    41    1
    44    26    42    1
    45    28    43    1
    46    29    44    1
@<TRIPOS>MOLECULE
mol95_2_4
 44 46 0 0 0
SMALL
USER_CHARGES
****
VDW energy = 99.66
@<TRIPOS>ATOM
   1 O1        0.4027     6.1580     2.7719  O.2     1  <O>11      -0.2687
   2 C1        0.6752     6.0132     3.9543  C.2     1  <O>11       0.2602
   3 N1       -0.1260     6.5700     4.9150  N.am    1  <O>11      -0.2301
   4 N2       -1.2360     7.2920     4.5490  N.am    1  <O>11      -0.2301
   5 C2       -2.0718     7.7980     5.5090  C.2     1  <O>11       0.2602
   6 O2       -1.8310     7.6065     6.6909  O.2     1  <O>11      -0.2687
   7 C3       -3.2488     8.5640     5.1200  C.ar    1  <O>11       0.0400
   8 C4       -3.1497     9.9438     4.8806  C.ar    1  <O>11      -0.0495
   9 C5       -4.2828    10.6811     4.5192  C.ar    1  <O>11      -0.0592
  10 C6       -5.5221    10.0483     4.3895  C.ar    1  <O>11      -0.0350
  11 C7       -5.6181     8.6716     4.6218  C.ar    1  <O>11       0.1092
  12 S1       -7.1816     7.8786     4.4576  S.O2    1  <O>11       0.0724
  13 O3       -8.1697     8.7944     3.4880  O.2     1  <O>11      -0.1500
  14 O4       -7.8775     7.7134     5.9577  O.2     1  <O>11      -0.1500
  15 N3       -6.9744     6.3870     3.7797  N.pl3   1  <O>11      -0.2135
  16 C8       -7.7132     5.2482     4.2918  C.ar    1  <O>11       0.0831
  17 C9       -9.1178     5.2405     4.2559  C.ar    1  <O>11      -0.0365
  18 C10      -9.8303     4.1452     4.7642  C.ar    1  <O>11      -0.0598
  19 C11      -9.1479     3.0537     5.3038  C.ar    1  <O>11      -0.0589
  20 C12      -7.7498     3.0597     5.3331  C.ar    1  <O>11      -0.0246
  21 C13      -7.0302     4.1430     4.8284  C.ar    1  <O>11       0.1456
  22 F1       -5.6605     4.1449     4.8491  F       1  <O>11      -0.2035
  23 C14      -4.4949     7.9276     4.9810  C.ar    1  <O>11      -0.0229
  24 C15       1.8450     5.2530     4.3400  C.ar    1  <O>11       0.0410
  25 C16       3.0870     5.8604     4.5050  C.ar    1  <O>11      -0.0314
  26 C17       4.1639     5.0641     4.8517  C.ar    1  <O>11       0.0283
  27 N4        4.0806     3.7316     5.0468  N.ar    1  <O>11      -0.2632
  28 C18       2.8816     3.1454     4.9025  C.ar    1  <O>11       0.0283
  29 C19       1.7441     3.8740     4.5555  C.ar    1  <O>11      -0.0314
  30 H1        0.1010     6.4490     5.9020  H       1  <O>11       0.1731
  31 H2       -1.4378     7.4518     3.5620  H       1  <O>11       0.1731
  32 H3       -6.3253     6.2652     3.0007  H       1  <O>11       0.1738
  33 H4       -2.2369    10.4165     4.9716  H       1  <O>11       0.0625
  34 H5       -4.2031    11.6956     4.3479  H       1  <O>11       0.0618
  35 H6       -6.3588    10.5914     4.1248  H       1  <O>11       0.0637
  36 H7       -9.6266     6.0436     3.8542  H       1  <O>11       0.0637
  37 H8      -10.8621     4.1460     4.7393  H       1  <O>11       0.0618
  38 H9       -9.6718     2.2475     5.6788  H       1  <O>11       0.0618
  39 H10      -7.2446     2.2534     5.7327  H       1  <O>11       0.0647
  40 H11      -4.5779     6.9120     5.1445  H       1  <O>11       0.0645
  41 H12       3.2012     6.8775     4.3721  H       1  <O>11       0.0640
  42 H13       5.0846     5.5156     4.9679  H       1  <O>11       0.0830
  43 H14       2.7992     2.1277     5.0525  H       1  <O>11       0.0830
  44 H15       0.8332     3.3989     4.4582  H       1  <O>11       0.0640
@<TRIPOS>BOND
     1     1     2    2
     2     2     3   am
     3     3     4    1
     4     4     5   am
     5     5     6    2
     6     5     7    1
     7     7     8   ar
     8     8     9   ar
     9     9    10   ar
    10    10    11   ar
    11    11    12    1
    12    12    13    2
    13    12    14    2
    14    12    15    1
    15    15    16    1
    16    16    17   ar
    17    17    18   ar
    18    18    19   ar
    19    19    20   ar
    20    20    21   ar
    21    16    21   ar
    22    21    22    1
    23    11    23   ar
    24     7    23   ar
    25     2    24    1
    26    24    25   ar
    27    25    26   ar
    28    26    27   ar
    29    27    28   ar
    30    28    29   ar
    31    24    29   ar
    32     3    30    1
    33     4    31    1
    34    15    32    1
    35     8    33    1
    36     9    34    1
    37    10    35    1
    38    17    36    1
    39    18    37    1
    40    19    38    1
    41    20    39    1
    42    23    40    1
    43    25    41    1
    44    26    42    1
    45    28    43    1
    46    29    44    1
@<TRIPOS>MOLECULE
mol95_2_5
 44 46 0 0 0
SMALL
USER_CHARGES
****
VDW energy = 100.21
@<TRIPOS>ATOM
   1 O1        0.4027     6.1580     2.7719  O.2     1  <O>11      -0.2687
   2 C1        0.6752     6.0132     3.9543  C.2     1  <O>11       0.2602
   3 N1       -0.1260     6.5700     4.9150  N.am    1  <O>11      -0.2301
   4 N2        0.1812     6.4066     6.2440  N.am    1  <O>11      -0.2301
   5 C2       -0.5843     7.0135     7.2041  C.2     1  <O>11       0.2602
   6 O2       -0.3112     6.8674     8.3855  O.2     1  <O>11      -0.2687
   7 C3       -1.7251     7.8329     6.8160  C.ar    1  <O>11       0.0400
   8 C4       -1.5491     9.1895     6.5003  C.ar    1  <O>11      -0.0495
   9 C5       -2.6470     9.9788     6.1397  C.ar    1  <O>11      -0.0592
  10 C6       -3.9273     9.4214     6.0869  C.ar    1  <O>11      -0.0350
  11 C7       -4.1003     8.0673     6.3954  C.ar    1  <O>11       0.1092
  12 S1       -5.7154     7.3693     6.3280  S.O2    1  <O>11       0.0724
  13 O3       -5.6428     5.7615     6.7342  O.2     1  <O>11      -0.1500
  14 O4       -6.3204     7.5241     4.7880  O.2     1  <O>11      -0.1500
  15 N3       -6.7025     8.1610     7.3894  N.pl3   1  <O>11      -0.2135
  16 C8       -8.0574     8.5053     7.0014  C.ar    1  <O>11       0.0831
  17 C9       -8.9746     7.4971     6.6598  C.ar    1  <O>11      -0.0365
  18 C10     -10.2793     7.8328     6.2715  C.ar    1  <O>11      -0.0598
  19 C11     -10.6761     9.1703     6.2274  C.ar    1  <O>11      -0.0589
  20 C12      -9.7643    10.1724     6.5738  C.ar    1  <O>11      -0.0246
  21 C13      -8.4641     9.8504     6.9637  C.ar    1  <O>11       0.1456
  22 F1       -7.5737    10.8316     7.3115  F       1  <O>11      -0.2035
  23 C14      -3.0129     7.2718     6.7544  C.ar    1  <O>11      -0.0229
  24 C15       1.8450     5.2530     4.3400  C.ar    1  <O>11       0.0410
  25 C16       1.7724     3.8878     4.6040  C.ar    1  <O>11      -0.0314
  26 C17       2.9287     3.2338     4.9905  C.ar    1  <O>11       0.0283
  27 N4        4.1270     3.8402     5.1204  N.ar    1  <O>11      -0.2632
  28 C18       4.2030     5.1535     4.8526  C.ar    1  <O>11       0.0283
  29 C19       3.0862     5.8888     4.4561  C.ar    1  <O>11      -0.0314
  30 H1       -0.9506     7.1058     4.6443  H       1  <O>11       0.1731
  31 H2        0.9793     5.8329     6.5162  H       1  <O>11       0.1731
  32 H3       -6.3593     8.4097     8.3185  H       1  <O>11       0.1738
  33 H4       -0.6058     9.6065     6.5342  H       1  <O>11       0.0625
  34 H5       -2.5106    10.9761     5.9120  H       1  <O>11       0.0618
  35 H6       -4.7380    10.0030     5.8229  H       1  <O>11       0.0637
  36 H7       -8.6870     6.5066     6.6948  H       1  <O>11       0.0637
  37 H8      -10.9482     7.0890     6.0177  H       1  <O>11       0.0618
  38 H9      -11.6360     9.4181     5.9410  H       1  <O>11       0.0618
  39 H10     -10.0566    11.1615     6.5407  H       1  <O>11       0.0647
  40 H11      -3.1529     6.2734     6.9745  H       1  <O>11       0.0645
  41 H12       0.8800     3.3775     4.5138  H       1  <O>11       0.0640
  42 H13       2.8714     2.2230     5.1911  H       1  <O>11       0.0830
  43 H14       5.1128     5.6321     4.9425  H       1  <O>11       0.0830
  44 H15       3.1746     6.8960     4.2496  H       1  <O>11       0.0640
@<TRIPOS>BOND
     1     1     2    2
     2     2     3   am
     3     3     4    1
     4     4     5   am
     5     5     6    2
     6     5     7    1
     7     7     8   ar
     8     8     9   ar
     9     9    10   ar
    10    10    11   ar
    11    11    12    1
    12    12    13    2
    13    12    14    2
    14    12    15    1
    15    15    16    1
    16    16    17   ar
    17    17    18   ar
    18    18    19   ar
    19    19    20   ar
    20    20    21   ar
    21    16    21   ar
    22    21    22    1
    23    11    23   ar
    24     7    23   ar
    25     2    24    1
    26    24    25   ar
    27    25    26   ar
    28    26    27   ar
    29    27    28   ar
    30    28    29   ar
    31    24    29   ar
    32     3    30    1
    33     4    31    1
    34    15    32    1
    35     8    33    1
    36     9    34    1
    37    10    35    1
    38    17    36    1
    39    18    37    1
    40    19    38    1
    41    20    39    1
    42    23    40    1
    43    25    41    1
    44    26    42    1
    45    28    43    1
    46    29    44    1
@<TRIPOS>MOLECULE
mol95_2_6
 44 46 0 0 0
SMALL
USER_CHARGES
****
VDW energy = 100.96
@<TRIPOS>ATOM
   1 O1        0.4027     6.1580     2.7719  O.2     1  <O>11      -0.2687
   2 C1        0.6752     6.0132     3.9543  C.2     1  <O>11       0.2602
   3 N1       -0.1260     6.5700     4.9150  N.am    1  <O>11      -0.2301
   4 N2       -1.2360     7.2920     4.5490  N.am    1  <O>11      -0.2301
   5 C2       -2.0718     7.7980     5.5090  C.2     1  <O>11       0.2602
   6 O2       -1.8310     7.6065     6.6909  O.2     1  <O>11      -0.2687
   7 C3       -3.2488     8.5640     5.1200  C.ar    1  <O>11       0.0400
   8 C4       -3.1497     9.9438     4.8806  C.ar    1  <O>11      -0.0495
   9 C5       -4.2828    10.6811     4.5192  C.ar    1  <O>11      -0.0592
  10 C6       -5.5221    10.0483     4.3895  C.ar    1  <O>11      -0.0350
  11 C7       -5.6181     8.6716     4.6218  C.ar    1  <O>11       0.1092
  12 S1       -7.1816     7.8786     4.4576  S.O2    1  <O>11       0.0724
  13 O3       -6.9587     6.3053     3.9778  O.2     1  <O>11      -0.1500
  14 O4       -8.0910     8.6801     3.3208  O.2     1  <O>11      -0.1500
  15 N3       -7.9679     7.9049     5.9098  N.pl3   1  <O>11      -0.2135
  16 C8       -9.3870     8.2026     5.9612  C.ar    1  <O>11       0.0831
  17 C9      -10.3094     7.3735     5.3009  C.ar    1  <O>11      -0.0365
  18 C10     -11.6789     7.6709     5.3401  C.ar    1  <O>11      -0.0598
  19 C11     -12.1343     8.7894     6.0399  C.ar    1  <O>11      -0.0589
  20 C12     -11.2159     9.6102     6.7020  C.ar    1  <O>11      -0.0246
  21 C13      -9.8511     9.3232     6.6718  C.ar    1  <O>11       0.1456
  22 F1       -8.9525    10.1223     7.3278  F       1  <O>11      -0.2035
  23 C14      -4.4949     7.9276     4.9810  C.ar    1  <O>11      -0.0229
  24 C15       1.8450     5.2530     4.3400  C.ar    1  <O>11       0.0410
  25 C16       2.6599     5.6548     5.3951  C.ar    1  <O>11      -0.0314
  26 C17       3.7741     4.8893     5.6895  C.ar    1  <O>11       0.0283
  27 N4        4.1151     3.7699     5.0178  N.ar    1  <O>11      -0.2632
  28 C18       3.3234     3.3721     4.0093  C.ar    1  <O>11       0.0283
  29 C19       2.1806     4.0846     3.6468  C.ar    1  <O>11      -0.0314
  30 H1        0.1010     6.4490     5.9020  H       1  <O>11       0.1731
  31 H2       -1.4378     7.4518     3.5620  H       1  <O>11       0.1731
  32 H3       -7.4555     7.7130     6.7721  H       1  <O>11       0.1738
  33 H4       -2.2369    10.4165     4.9716  H       1  <O>11       0.0625
  34 H5       -4.2031    11.6956     4.3479  H       1  <O>11       0.0618
  35 H6       -6.3588    10.5914     4.1248  H       1  <O>11       0.0637
  36 H7       -9.9778     6.5431     4.7856  H       1  <O>11       0.0637
  37 H8      -12.3522     7.0611     4.8501  H       1  <O>11       0.0618
  38 H9      -13.1422     9.0092     6.0685  H       1  <O>11       0.0618
  39 H10     -11.5518    10.4378     7.2189  H       1  <O>11       0.0647
  40 H11      -4.5779     6.9120     5.1445  H       1  <O>11       0.0645
  41 H12       2.4386     6.5010     5.9429  H       1  <O>11       0.0640
  42 H13       4.3797     5.1922     6.4683  H       1  <O>11       0.0830
  43 H14       3.5671     2.5155     3.4879  H       1  <O>11       0.0830
  44 H15       1.5858     3.7521     2.8718  H       1  <O>11       0.0640
@<TRIPOS>BOND
     1     1     2    2
     2     2     3   am
     3     3     4    1
     4     4     5   am
     5     5     6    2
     6     5     7    1
     7     7     8   ar
     8     8     9   ar
     9     9    10   ar
    10    10    11   ar
    11    11    12    1
    12    12    13    2
    13    12    14    2
    14    12    15    1
    15    15    16    1
    16    16    17   ar
    17    17    18   ar
    18    18    19   ar
    19    19    20   ar
    20    20    21   ar
    21    16    21   ar
    22    21    22    1
    23    11    23   ar
    24     7    23   ar
    25     2    24    1
    26    24    25   ar
    27    25    26   ar
    28    26    27   ar
    29    27    28   ar
    30    28    29   ar
    31    24    29   ar
    32     3    30    1
    33     4    31    1
    34    15    32    1
    35     8    33    1
    36     9    34    1
    37    10    35    1
    38    17    36    1
    39    18    37    1
    40    19    38    1
    41    20    39    1
    42    23    40    1
    43    25    41    1
    44    26    42    1
    45    28    43    1
    46    29    44    1
@<TRIPOS>MOLECULE
mol95_2_7
 44 46 0 0 0
SMALL
USER_CHARGES
****
VDW energy = 101.12
@<TRIPOS>ATOM
   1 O1        0.4027     6.1580     2.7719  O.2     1  <O>11      -0.2687
   2 C1        0.6752     6.0132     3.9543  C.2     1  <O>11       0.2602
   3 N1       -0.1260     6.5700     4.9150  N.am    1  <O>11      -0.2301
   4 N2        0.1812     6.4066     6.2440  N.am    1  <O>11      -0.2301
   5 C2       -0.5843     7.0135     7.2041  C.2     1  <O>11       0.2602
   6 O2       -1.5399     7.7011     6.8789  O.2     1  <O>11      -0.2687
   7 C3       -0.2581     6.8395     8.6136  C.ar    1  <O>11       0.0400
   8 C4       -0.7490     5.7322     9.3237  C.ar    1  <O>11      -0.0495
   9 C5       -0.4455     5.5723    10.6803  C.ar    1  <O>11      -0.0592
  10 C6        0.3526     6.5119    11.3384  C.ar    1  <O>11      -0.0350
  11 C7        0.8467     7.6116    10.6277  C.ar    1  <O>11       0.1092
  12 S1        1.8515     8.7932    11.4610  S.O2    1  <O>11       0.0724
  13 O3        2.3028     9.9861    10.3987  O.2     1  <O>11      -0.1500
  14 O4        3.2083     8.0418    12.0579  O.2     1  <O>11      -0.1500
  15 N3        0.9984     9.4605    12.7078  N.pl3   1  <O>11      -0.2135
  16 C8        1.6403     9.6811    13.9901  C.ar    1  <O>11       0.0831
  17 C9        2.7516    10.5352    14.0886  C.ar    1  <O>11      -0.0365
  18 C10       3.3791    10.7360    15.3262  C.ar    1  <O>11      -0.0598
  19 C11       2.8999    10.0927    16.4684  C.ar    1  <O>11      -0.0589
  20 C12       1.7899     9.2479    16.3703  C.ar    1  <O>11      -0.0246
  21 C13       1.1560     9.0420    15.1447  C.ar    1  <O>11       0.1456
  22 F1        0.0632     8.2214    15.0503  F       1  <O>11      -0.2035
  23 C14       0.5515     7.7795     9.2754  C.ar    1  <O>11      -0.0229
  24 C15       1.8450     5.2530     4.3400  C.ar    1  <O>11       0.0410
  25 C16       1.7724     3.8878     4.6040  C.ar    1  <O>11      -0.0314
  26 C17       2.9287     3.2338     4.9905  C.ar    1  <O>11       0.0283
  27 N4        4.1270     3.8402     5.1204  N.ar    1  <O>11      -0.2632
  28 C18       4.2030     5.1535     4.8526  C.ar    1  <O>11       0.0283
  29 C19       3.0862     5.8888     4.4561  C.ar    1  <O>11      -0.0314
  30 H1       -0.9506     7.1058     4.6443  H       1  <O>11       0.1731
  31 H2        0.9793     5.8329     6.5162  H       1  <O>11       0.1731
  32 H3        0.0185     9.7169    12.5772  H       1  <O>11       0.1738
  33 H4       -1.3363     5.0330     8.8428  H       1  <O>11       0.0625
  34 H5       -0.8124     4.7576    11.1967  H       1  <O>11       0.0618
  35 H6        0.5755     6.3959    12.3394  H       1  <O>11       0.0637
  36 H7        3.1070    11.0162    13.2475  H       1  <O>11       0.0637
  37 H8        4.1976    11.3611    15.3928  H       1  <O>11       0.0618
  38 H9        3.3619    10.2395    17.3795  H       1  <O>11       0.0618
  39 H10       1.4355     8.7712    17.2142  H       1  <O>11       0.0647
  40 H11       0.9263     8.5919     8.7612  H       1  <O>11       0.0645
  41 H12       0.8800     3.3775     4.5138  H       1  <O>11       0.0640
  42 H13       2.8714     2.2230     5.1911  H       1  <O>11       0.0830
  43 H14       5.1128     5.6321     4.9425  H       1  <O>11       0.0830
  44 H15       3.1746     6.8960     4.2496  H       1  <O>11       0.0640
@<TRIPOS>BOND
     1     1     2    2
     2     2     3   am
     3     3     4    1
     4     4     5   am
     5     5     6    2
     6     5     7    1
     7     7     8   ar
     8     8     9   ar
     9     9    10   ar
    10    10    11   ar
    11    11    12    1
    12    12    13    2
    13    12    14    2
    14    12    15    1
    15    15    16    1
    16    16    17   ar
    17    17    18   ar
    18    18    19   ar
    19    19    20   ar
    20    20    21   ar
    21    16    21   ar
    22    21    22    1
    23    11    23   ar
    24     7    23   ar
    25     2    24    1
    26    24    25   ar
    27    25    26   ar
    28    26    27   ar
    29    27    28   ar
    30    28    29   ar
    31    24    29   ar
    32     3    30    1
    33     4    31    1
    34    15    32    1
    35     8    33    1
    36     9    34    1
    37    10    35    1
    38    17    36    1
    39    18    37    1
    40    19    38    1
    41    20    39    1
    42    23    40    1
    43    25    41    1
    44    26    42    1
    45    28    43    1
    46    29    44    1
@<TRIPOS>MOLECULE
mol95_2_8
 44 46 0 0 0
SMALL
USER_CHARGES
****
VDW energy = 101.69
@<TRIPOS>ATOM
   1 O1        0.4027     6.1580     2.7719  O.2     1  <O>11      -0.2687
   2 C1        0.6752     6.0132     3.9543  C.2     1  <O>11       0.2602
   3 N1       -0.1260     6.5700     4.9150  N.am    1  <O>11      -0.2301
   4 N2       -1.2360     7.2920     4.5490  N.am    1  <O>11      -0.2301
   5 C2       -2.0718     7.7980     5.5090  C.2     1  <O>11       0.2602
   6 O2       -1.8310     7.6065     6.6909  O.2     1  <O>11      -0.2687
   7 C3       -3.2488     8.5640     5.1200  C.ar    1  <O>11       0.0400
   8 C4       -3.1497     9.9438     4.8806  C.ar    1  <O>11      -0.0495
   9 C5       -4.2828    10.6811     4.5192  C.ar    1  <O>11      -0.0592
  10 C6       -5.5221    10.0483     4.3895  C.ar    1  <O>11      -0.0350
  11 C7       -5.6181     8.6716     4.6218  C.ar    1  <O>11       0.1092
  12 S1       -7.1816     7.8786     4.4576  S.O2    1  <O>11       0.0724
  13 O3       -8.1697     8.7944     3.4880  O.2     1  <O>11      -0.1500
  14 O4       -7.8775     7.7134     5.9577  O.2     1  <O>11      -0.1500
  15 N3       -6.9744     6.3870     3.7797  N.pl3   1  <O>11      -0.2135
  16 C8       -7.7132     5.2482     4.2918  C.ar    1  <O>11       0.0831
  17 C9       -7.0366     4.1880     4.9183  C.ar    1  <O>11      -0.0365
  18 C10      -7.7511     3.0820     5.3999  C.ar    1  <O>11      -0.0598
  19 C11      -9.1393     3.0305     5.2645  C.ar    1  <O>11      -0.0589
  20 C12      -9.8123     4.0892     4.6466  C.ar    1  <O>11      -0.0246
  21 C13      -9.1123     5.1958     4.1654  C.ar    1  <O>11       0.1456
  22 F1       -9.7725     6.2368     3.5680  F       1  <O>11      -0.2035
  23 C14      -4.4949     7.9276     4.9810  C.ar    1  <O>11      -0.0229
  24 C15       1.8450     5.2530     4.3400  C.ar    1  <O>11       0.0410
  25 C16       1.7724     3.8878     4.6040  C.ar    1  <O>11      -0.0314
  26 C17       2.9287     3.2338     4.9905  C.ar    1  <O>11       0.0283
  27 N4        4.1270     3.8402     5.1204  N.ar    1  <O>11      -0.2632
  28 C18       4.2030     5.1535     4.8526  C.ar    1  <O>11       0.0283
  29 C19       3.0862     5.8888     4.4561  C.ar    1  <O>11      -0.0314
  30 H1        0.1010     6.4490     5.9020  H       1  <O>11       0.1731
  31 H2       -1.4378     7.4518     3.5620  H       1  <O>11       0.1731
  32 H3       -6.3253     6.2652     3.0007  H       1  <O>11       0.1738
  33 H4       -2.2369    10.4165     4.9716  H       1  <O>11       0.0625
  34 H5       -4.2031    11.6956     4.3479  H       1  <O>11       0.0618
  35 H6       -6.3588    10.5914     4.1248  H       1  <O>11       0.0637
  36 H7       -6.0107     4.2236     5.0243  H       1  <O>11       0.0637
  37 H8       -7.2492     2.3039     5.8557  H       1  <O>11       0.0618
  38 H9       -9.6657     2.2163     5.6181  H       1  <O>11       0.0618
  39 H10     -10.8386     4.0514     4.5454  H       1  <O>11       0.0647
  40 H11      -4.5779     6.9120     5.1445  H       1  <O>11       0.0645
  41 H12       0.8800     3.3775     4.5138  H       1  <O>11       0.0640
  42 H13       2.8714     2.2230     5.1911  H       1  <O>11       0.0830
  43 H14       5.1128     5.6321     4.9425  H       1  <O>11       0.0830
  44 H15       3.1746     6.8960     4.2496  H       1  <O>11       0.0640
@<TRIPOS>BOND
     1     1     2    2
     2     2     3   am
     3     3     4    1
     4     4     5   am
     5     5     6    2
     6     5     7    1
     7     7     8   ar
     8     8     9   ar
     9     9    10   ar
    10    10    11   ar
    11    11    12    1
    12    12    13    2
    13    12    14    2
    14    12    15    1
    15    15    16    1
    16    16    17   ar
    17    17    18   ar
    18    18    19   ar
    19    19    20   ar
    20    20    21   ar
    21    16    21   ar
    22    21    22    1
    23    11    23   ar
    24     7    23   ar
    25     2    24    1
    26    24    25   ar
    27    25    26   ar
    28    26    27   ar
    29    27    28   ar
    30    28    29   ar
    31    24    29   ar
    32     3    30    1
    33     4    31    1
    34    15    32    1
    35     8    33    1
    36     9    34    1
    37    10    35    1
    38    17    36    1
    39    18    37    1
    40    19    38    1
    41    20    39    1
    42    23    40    1
    43    25    41    1
    44    26    42    1
    45    28    43    1
    46    29    44    1
@<TRIPOS>MOLECULE
mol95_2_9
 44 46 0 0 0
SMALL
USER_CHARGES
****
VDW energy = 101.87
@<TRIPOS>ATOM
   1 O1        0.4027     6.1580     2.7719  O.2     1  <O>11      -0.2687
   2 C1        0.6752     6.0132     3.9543  C.2     1  <O>11       0.2602
   3 N1       -0.1260     6.5700     4.9150  N.am    1  <O>11      -0.2301
   4 N2       -1.2360     7.2920     4.5490  N.am    1  <O>11      -0.2301
   5 C2       -2.0718     7.7980     5.5090  C.2     1  <O>11       0.2602
   6 O2       -1.8310     7.6065     6.6909  O.2     1  <O>11      -0.2687
   7 C3       -3.2488     8.5640     5.1200  C.ar    1  <O>11       0.0400
   8 C4       -3.1821     9.4736     4.0526  C.ar    1  <O>11      -0.0495
   9 C5       -4.3094    10.2180     3.6876  C.ar    1  <O>11      -0.0592
  10 C6       -5.5125    10.0585     4.3805  C.ar    1  <O>11      -0.0350
  11 C7       -5.5794     9.1465     5.4399  C.ar    1  <O>11       0.1092
  12 S1       -7.0972     8.9491     6.3104  S.O2    1  <O>11       0.0724
  13 O3       -6.9071     7.8159     7.5082  O.2     1  <O>11      -0.1500
  14 O4       -8.2780     8.4457     5.2549  O.2     1  <O>11      -0.1500
  15 N3       -7.5384    10.3917     6.9826  N.pl3   1  <O>11      -0.2135
  16 C8       -8.9232    10.8217     6.9335  C.ar    1  <O>11       0.0831
  17 C9       -9.9264    10.0522     7.5466  C.ar    1  <O>11      -0.0365
  18 C10     -11.2657    10.4622     7.4858  C.ar    1  <O>11      -0.0598
  19 C11     -11.6095    11.6401     6.8206  C.ar    1  <O>11      -0.0589
  20 C12     -10.6094    12.4084     6.2163  C.ar    1  <O>11      -0.0246
  21 C13      -9.2731    12.0117     6.2720  C.ar    1  <O>11       0.1456
  22 F1       -8.2925    12.7690     5.6877  F       1  <O>11      -0.2035
  23 C14      -4.4623     8.3989     5.8106  C.ar    1  <O>11      -0.0229
  24 C15       1.8450     5.2530     4.3400  C.ar    1  <O>11       0.0410
  25 C16       1.7724     3.8878     4.6040  C.ar    1  <O>11      -0.0314
  26 C17       2.9287     3.2338     4.9905  C.ar    1  <O>11       0.0283
  27 N4        4.1270     3.8402     5.1204  N.ar    1  <O>11      -0.2632
  28 C18       4.2030     5.1535     4.8526  C.ar    1  <O>11       0.0283
  29 C19       3.0862     5.8888     4.4561  C.ar    1  <O>11      -0.0314
  30 H1        0.1010     6.4490     5.9020  H       1  <O>11       0.1731
  31 H2       -1.4378     7.4518     3.5620  H       1  <O>11       0.1731
  32 H3       -6.8367    10.9822     7.4319  H       1  <O>11       0.1738
  33 H4       -2.2975     9.5938     3.5349  H       1  <O>11       0.0625
  34 H5       -4.2522    10.8871     2.9041  H       1  <O>11       0.0618
  35 H6       -6.3440    10.6083     4.1134  H       1  <O>11       0.0637
  36 H7       -9.6765     9.1826     8.0430  H       1  <O>11       0.0637
  37 H8      -11.9995     9.8915     7.9342  H       1  <O>11       0.0618
  38 H9      -12.5952    11.9420     6.7749  H       1  <O>11       0.0618
  39 H10     -10.8628    13.2790     5.7236  H       1  <O>11       0.0647
  40 H11      -4.5261     7.7258     6.5903  H       1  <O>11       0.0645
  41 H12       0.8800     3.3775     4.5138  H       1  <O>11       0.0640
  42 H13       2.8714     2.2230     5.1911  H       1  <O>11       0.0830
  43 H14       5.1128     5.6321     4.9425  H       1  <O>11       0.0830
  44 H15       3.1746     6.8960     4.2496  H       1  <O>11       0.0640
@<TRIPOS>BOND
     1     1     2    2
     2     2     3   am
     3     3     4    1
     4     4     5   am
     5     5     6    2
     6     5     7    1
     7     7     8   ar
     8     8     9   ar
     9     9    10   ar
    10    10    11   ar
    11    11    12    1
    12    12    13    2
    13    12    14    2
    14    12    15    1
    15    15    16    1
    16    16    17   ar
    17    17    18   ar
    18    18    19   ar
    19    19    20   ar
    20    20    21   ar
    21    16    21   ar
    22    21    22    1
    23    11    23   ar
    24     7    23   ar
    25     2    24    1
    26    24    25   ar
    27    25    26   ar
    28    26    27   ar
    29    27    28   ar
    30    28    29   ar
    31    24    29   ar
    32     3    30    1
    33     4    31    1
    34    15    32    1
    35     8    33    1
    36     9    34    1
    37    10    35    1
    38    17    36    1
    39    18    37    1
    40    19    38    1
    41    20    39    1
    42    23    40    1
    43    25    41    1
    44    26    42    1
    45    28    43    1
    46    29    44    1
@<TRIPOS>MOLECULE
mol95_2_10
 44 46 0 0 0
SMALL
USER_CHARGES
****
VDW energy = 102.27
@<TRIPOS>ATOM
   1 O1        0.4027     6.1580     2.7719  O.2     1  <O>11      -0.2687
   2 C1        0.6752     6.0132     3.9543  C.2     1  <O>11       0.2602
   3 N1       -0.1260     6.5700     4.9150  N.am    1  <O>11      -0.2301
   4 N2       -1.2360     7.2920     4.5490  N.am    1  <O>11      -0.2301
   5 C2       -2.0718     7.7980     5.5090  C.2     1  <O>11       0.2602
   6 O2       -1.8310     7.6065     6.6909  O.2     1  <O>11      -0.2687
   7 C3       -3.2488     8.5640     5.1200  C.ar    1  <O>11       0.0400
   8 C4       -3.1497     9.9438     4.8806  C.ar    1  <O>11      -0.0495
   9 C5       -4.2828    10.6811     4.5192  C.ar    1  <O>11      -0.0592
  10 C6       -5.5221    10.0483     4.3895  C.ar    1  <O>11      -0.0350
  11 C7       -5.6181     8.6716     4.6218  C.ar    1  <O>11       0.1092
  12 S1       -7.1816     7.8786     4.4576  S.O2    1  <O>11       0.0724
  13 O3       -8.1697     8.7944     3.4880  O.2     1  <O>11      -0.1500
  14 O4       -7.8775     7.7134     5.9577  O.2     1  <O>11      -0.1500
  15 N3       -6.9744     6.3870     3.7797  N.pl3   1  <O>11      -0.2135
  16 C8       -7.7132     5.2482     4.2918  C.ar    1  <O>11       0.0831
  17 C9       -9.1178     5.2405     4.2559  C.ar    1  <O>11      -0.0365
  18 C10      -9.8303     4.1452     4.7642  C.ar    1  <O>11      -0.0598
  19 C11      -9.1479     3.0537     5.3038  C.ar    1  <O>11      -0.0589
  20 C12      -7.7498     3.0597     5.3331  C.ar    1  <O>11      -0.0246
  21 C13      -7.0302     4.1430     4.8284  C.ar    1  <O>11       0.1456
  22 F1       -5.6605     4.1449     4.8491  F       1  <O>11      -0.2035
  23 C14      -4.4949     7.9276     4.9810  C.ar    1  <O>11      -0.0229
  24 C15       1.8450     5.2530     4.3400  C.ar    1  <O>11       0.0410
  25 C16       2.6599     5.6548     5.3951  C.ar    1  <O>11      -0.0314
  26 C17       3.7741     4.8893     5.6895  C.ar    1  <O>11       0.0283
  27 N4        4.1151     3.7699     5.0178  N.ar    1  <O>11      -0.2632
  28 C18       3.3234     3.3721     4.0093  C.ar    1  <O>11       0.0283
  29 C19       2.1806     4.0846     3.6468  C.ar    1  <O>11      -0.0314
  30 H1        0.1010     6.4490     5.9020  H       1  <O>11       0.1731
  31 H2       -1.4378     7.4518     3.5620  H       1  <O>11       0.1731
  32 H3       -6.3253     6.2652     3.0007  H       1  <O>11       0.1738
  33 H4       -2.2369    10.4165     4.9716  H       1  <O>11       0.0625
  34 H5       -4.2031    11.6956     4.3479  H       1  <O>11       0.0618
  35 H6       -6.3588    10.5914     4.1248  H       1  <O>11       0.0637
  36 H7       -9.6266     6.0436     3.8542  H       1  <O>11       0.0637
  37 H8      -10.8621     4.1460     4.7393  H       1  <O>11       0.0618
  38 H9       -9.6718     2.2475     5.6788  H       1  <O>11       0.0618
  39 H10      -7.2446     2.2534     5.7327  H       1  <O>11       0.0647
  40 H11      -4.5779     6.9120     5.1445  H       1  <O>11       0.0645
  41 H12       2.4386     6.5010     5.9429  H       1  <O>11       0.0640
  42 H13       4.3797     5.1922     6.4683  H       1  <O>11       0.0830
  43 H14       3.5671     2.5155     3.4879  H       1  <O>11       0.0830
  44 H15       1.5858     3.7521     2.8718  H       1  <O>11       0.0640
@<TRIPOS>BOND
     1     1     2    2
     2     2     3   am
     3     3     4    1
     4     4     5   am
     5     5     6    2
     6     5     7    1
     7     7     8   ar
     8     8     9   ar
     9     9    10   ar
    10    10    11   ar
    11    11    12    1
    12    12    13    2
    13    12    14    2
    14    12    15    1
    15    15    16    1
    16    16    17   ar
    17    17    18   ar
    18    18    19   ar
    19    19    20   ar
    20    20    21   ar
    21    16    21   ar
    22    21    22    1
    23    11    23   ar
    24     7    23   ar
    25     2    24    1
    26    24    25   ar
    27    25    26   ar
    28    26    27   ar
    29    27    28   ar
    30    28    29   ar
    31    24    29   ar
    32     3    30    1
    33     4    31    1
    34    15    32    1
    35     8    33    1
    36     9    34    1
    37    10    35    1
    38    17    36    1
    39    18    37    1
    40    19    38    1
    41    20    39    1
    42    23    40    1
    43    25    41    1
    44    26    42    1
    45    28    43    1
    46    29    44    1
@<TRIPOS>MOLECULE
mol95_2_11
 44 46 0 0 0
SMALL
USER_CHARGES
****
VDW energy = 102.69
@<TRIPOS>ATOM
   1 O1        0.4027     6.1580     2.7719  O.2     1  <O>11      -0.2687
   2 C1        0.6752     6.0132     3.9543  C.2     1  <O>11       0.2602
   3 N1       -0.1260     6.5700     4.9150  N.am    1  <O>11      -0.2301
   4 N2        0.1812     6.4066     6.2440  N.am    1  <O>11      -0.2301
   5 C2       -0.5843     7.0135     7.2041  C.2     1  <O>11       0.2602
   6 O2       -1.5399     7.7011     6.8789  O.2     1  <O>11      -0.2687
   7 C3       -0.2581     6.8395     8.6136  C.ar    1  <O>11       0.0400
   8 C4       -0.7490     5.7322     9.3237  C.ar    1  <O>11      -0.0495
   9 C5       -0.4455     5.5723    10.6803  C.ar    1  <O>11      -0.0592
  10 C6        0.3526     6.5119    11.3384  C.ar    1  <O>11      -0.0350
  11 C7        0.8467     7.6116    10.6277  C.ar    1  <O>11       0.1092
  12 S1        1.8515     8.7932    11.4610  S.O2    1  <O>11       0.0724
  13 O3        2.5238     8.0978    12.8099  O.2     1  <O>11      -0.1500
  14 O4        0.9175    10.0907    11.9147  O.2     1  <O>11      -0.1500
  15 N3        3.0524     9.3062    10.4498  N.pl3   1  <O>11      -0.2135
  16 C8        3.4062    10.7123    10.3983  C.ar    1  <O>11       0.0831
  17 C9        3.8822    11.3658    11.5475  C.ar    1  <O>11      -0.0365
  18 C10       4.2102    12.7281    11.4992  C.ar    1  <O>11      -0.0598
  19 C11       4.0709    13.4414    10.3076  C.ar    1  <O>11      -0.0589
  20 C12       3.6033    12.7883     9.1629  C.ar    1  <O>11      -0.0246
  21 C13       3.2758    11.4327     9.1983  C.ar    1  <O>11       0.1456
  22 F1        2.8261    10.7910     8.0748  F       1  <O>11      -0.2035
  23 C14       0.5515     7.7795     9.2754  C.ar    1  <O>11      -0.0229
  24 C15       1.8450     5.2530     4.3400  C.ar    1  <O>11       0.0410
  25 C16       1.7724     3.8878     4.6040  C.ar    1  <O>11      -0.0314
  26 C17       2.9287     3.2338     4.9905  C.ar    1  <O>11       0.0283
  27 N4        4.1270     3.8402     5.1204  N.ar    1  <O>11      -0.2632
  28 C18       4.2030     5.1535     4.8526  C.ar    1  <O>11       0.0283
  29 C19       3.0862     5.8888     4.4561  C.ar    1  <O>11      -0.0314
  30 H1       -0.9506     7.1058     4.6443  H       1  <O>11       0.1731
  31 H2        0.9793     5.8329     6.5162  H       1  <O>11       0.1731
  32 H3        3.5454     8.6343     9.8595  H       1  <O>11       0.1738
  33 H4       -1.3363     5.0330     8.8428  H       1  <O>11       0.0625
  34 H5       -0.8124     4.7576    11.1967  H       1  <O>11       0.0618
  35 H6        0.5755     6.3959    12.3394  H       1  <O>11       0.0637
  36 H7        3.9906    10.8415    12.4298  H       1  <O>11       0.0637
  37 H8        4.5555    13.2047    12.3470  H       1  <O>11       0.0618
  38 H9        4.3115    14.4443    10.2715  H       1  <O>11       0.0618
  39 H10       3.4993    13.3153     8.2817  H       1  <O>11       0.0647
  40 H11       0.9263     8.5919     8.7612  H       1  <O>11       0.0645
  41 H12       0.8800     3.3775     4.5138  H       1  <O>11       0.0640
  42 H13       2.8714     2.2230     5.1911  H       1  <O>11       0.0830
  43 H14       5.1128     5.6321     4.9425  H       1  <O>11       0.0830
  44 H15       3.1746     6.8960     4.2496  H       1  <O>11       0.0640
@<TRIPOS>BOND
     1     1     2    2
     2     2     3   am
     3     3     4    1
     4     4     5   am
     5     5     6    2
     6     5     7    1
     7     7     8   ar
     8     8     9   ar
     9     9    10   ar
    10    10    11   ar
    11    11    12    1
    12    12    13    2
    13    12    14    2
    14    12    15    1
    15    15    16    1
    16    16    17   ar
    17    17    18   ar
    18    18    19   ar
    19    19    20   ar
    20    20    21   ar
    21    16    21   ar
    22    21    22    1
    23    11    23   ar
    24     7    23   ar
    25     2    24    1
    26    24    25   ar
    27    25    26   ar
    28    26    27   ar
    29    27    28   ar
    30    28    29   ar
    31    24    29   ar
    32     3    30    1
    33     4    31    1
    34    15    32    1
    35     8    33    1
    36     9    34    1
    37    10    35    1
    38    17    36    1
    39    18    37    1
    40    19    38    1
    41    20    39    1
    42    23    40    1
    43    25    41    1
    44    26    42    1
    45    28    43    1
    46    29    44    1
@<TRIPOS>MOLECULE
mol95_2_12
 44 46 0 0 0
SMALL
USER_CHARGES
****
VDW energy = 103.89
@<TRIPOS>ATOM
   1 O1        0.4027     6.1580     2.7719  O.2     1  <O>11      -0.2687
   2 C1        0.6752     6.0132     3.9543  C.2     1  <O>11       0.2602
   3 N1       -0.1260     6.5700     4.9150  N.am    1  <O>11      -0.2301
   4 N2       -1.2360     7.2920     4.5490  N.am    1  <O>11      -0.2301
   5 C2       -2.0718     7.7980     5.5090  C.2     1  <O>11       0.2602
   6 O2       -3.0581     8.4403     5.1830  O.2     1  <O>11      -0.2687
   7 C3       -1.7838     7.5705     6.9192  C.ar    1  <O>11       0.0400
   8 C4       -2.2261     6.3986     7.5533  C.ar    1  <O>11      -0.0495
   9 C5       -1.9599     6.1865     8.9106  C.ar    1  <O>11      -0.0592
  10 C6       -1.2475     7.1384     9.6450  C.ar    1  <O>11      -0.0350
  11 C7       -0.8014     8.3030     9.0100  C.ar    1  <O>11       0.1092
  12 S1        0.0954     9.4997     9.9394  S.O2    1  <O>11       0.0724
  13 O3        0.7645     8.7776    11.2758  O.2     1  <O>11      -0.1500
  14 O4       -0.9357    10.7101    10.4225  O.2     1  <O>11      -0.1500
  15 N3        1.2947    10.1400     9.0015  N.pl3   1  <O>11      -0.2135
  16 C8        1.5583    11.5663     9.0346  C.ar    1  <O>11       0.0831
  17 C9        1.9510    12.1868    10.2325  C.ar    1  <O>11      -0.0365
  18 C10       2.1915    13.5676    10.2655  C.ar    1  <O>11      -0.0598
  19 C11       2.0476    14.3328     9.1071  C.ar    1  <O>11      -0.0589
  20 C12       1.6630    13.7131     7.9140  C.ar    1  <O>11      -0.0246
  21 C13       1.4229    12.3396     7.8685  C.ar    1  <O>11       0.1456
  22 F1        1.0547    11.7312     6.6977  F       1  <O>11      -0.2035
  23 C14      -1.0601     8.5232     7.6577  C.ar    1  <O>11      -0.0229
  24 C15       1.8450     5.2530     4.3400  C.ar    1  <O>11       0.0410
  25 C16       1.7809     3.8802     4.5634  C.ar    1  <O>11      -0.0314
  26 C17       2.9361     3.2259     4.9527  C.ar    1  <O>11       0.0283
  27 N4        4.1258     3.8394     5.1224  N.ar    1  <O>11      -0.2632
  28 C18       4.1939     5.1605     4.8938  C.ar    1  <O>11       0.0283
  29 C19       3.0776     5.8966     4.4976  C.ar    1  <O>11      -0.0314
  30 H1        0.1010     6.4490     5.9020  H       1  <O>11       0.1731
  31 H2       -1.4378     7.4518     3.5620  H       1  <O>11       0.1731
  32 H3        1.8502     9.5326     8.3970  H       1  <O>11       0.1738
  33 H4       -2.7500     5.6902     7.0158  H       1  <O>11       0.0625
  34 H5       -2.2908     5.3242     9.3709  H       1  <O>11       0.0618
  35 H6       -1.0522     6.9839    10.6466  H       1  <O>11       0.0637
  36 H7        2.0626    11.6244    11.0906  H       1  <O>11       0.0637
  37 H8        2.4758    14.0195    11.1488  H       1  <O>11       0.0618
  38 H9        2.2238    15.3494     9.1309  H       1  <O>11       0.0618
  39 H10       1.5555    14.2783     7.0573  H       1  <O>11       0.0647
  40 H11      -0.7212     9.3837     7.1998  H       1  <O>11       0.0645
  41 H12       0.8952     3.3644     4.4418  H       1  <O>11       0.0640
  42 H13       2.8849     2.2094     5.1231  H       1  <O>11       0.0830
  43 H14       5.0973     5.6447     5.0145  H       1  <O>11       0.0830
  44 H15       3.1600     6.9101     4.3217  H       1  <O>11       0.0640
@<TRIPOS>BOND
     1     1     2    2
     2     2     3   am
     3     3     4    1
     4     4     5   am
     5     5     6    2
     6     5     7    1
     7     7     8   ar
     8     8     9   ar
     9     9    10   ar
    10    10    11   ar
    11    11    12    1
    12    12    13    2
    13    12    14    2
    14    12    15    1
    15    15    16    1
    16    16    17   ar
    17    17    18   ar
    18    18    19   ar
    19    19    20   ar
    20    20    21   ar
    21    16    21   ar
    22    21    22    1
    23    11    23   ar
    24     7    23   ar
    25     2    24    1
    26    24    25   ar
    27    25    26   ar
    28    26    27   ar
    29    27    28   ar
    30    28    29   ar
    31    24    29   ar
    32     3    30    1
    33     4    31    1
    34    15    32    1
    35     8    33    1
    36     9    34    1
    37    10    35    1
    38    17    36    1
    39    18    37    1
    40    19    38    1
    41    20    39    1
    42    23    40    1
    43    25    41    1
    44    26    42    1
    45    28    43    1
    46    29    44    1
@<TRIPOS>MOLECULE
mol95_2_13
 44 46 0 0 0
SMALL
USER_CHARGES
****
VDW energy = 103.93
@<TRIPOS>ATOM
   1 O1        0.4027     6.1580     2.7719  O.2     1  <O>11      -0.2687
   2 C1        0.6752     6.0132     3.9543  C.2     1  <O>11       0.2602
   3 N1       -0.1260     6.5700     4.9150  N.am    1  <O>11      -0.2301
   4 N2       -1.2360     7.2920     4.5490  N.am    1  <O>11      -0.2301
   5 C2       -2.0718     7.7980     5.5090  C.2     1  <O>11       0.2602
   6 O2       -3.0581     8.4403     5.1830  O.2     1  <O>11      -0.2687
   7 C3       -1.7838     7.5705     6.9192  C.ar    1  <O>11       0.0400
   8 C4       -2.2261     6.3986     7.5533  C.ar    1  <O>11      -0.0495
   9 C5       -1.9599     6.1865     8.9106  C.ar    1  <O>11      -0.0592
  10 C6       -1.2475     7.1384     9.6450  C.ar    1  <O>11      -0.0350
  11 C7       -0.8014     8.3030     9.0100  C.ar    1  <O>11       0.1092
  12 S1        0.0954     9.4997     9.9394  S.O2    1  <O>11       0.0724
  13 O3        0.7645     8.7776    11.2758  O.2     1  <O>11      -0.1500
  14 O4       -0.9357    10.7101    10.4225  O.2     1  <O>11      -0.1500
  15 N3        1.2947    10.1400     9.0015  N.pl3   1  <O>11      -0.2135
  16 C8        1.5583    11.5663     9.0346  C.ar    1  <O>11       0.0831
  17 C9        1.9510    12.1868    10.2325  C.ar    1  <O>11      -0.0365
  18 C10       2.1915    13.5676    10.2655  C.ar    1  <O>11      -0.0598
  19 C11       2.0476    14.3328     9.1071  C.ar    1  <O>11      -0.0589
  20 C12       1.6630    13.7131     7.9140  C.ar    1  <O>11      -0.0246
  21 C13       1.4229    12.3396     7.8685  C.ar    1  <O>11       0.1456
  22 F1        1.0547    11.7312     6.6977  F       1  <O>11      -0.2035
  23 C14      -1.0601     8.5232     7.6577  C.ar    1  <O>11      -0.0229
  24 C15       1.8450     5.2530     4.3400  C.ar    1  <O>11       0.0410
  25 C16       3.0870     5.8604     4.5050  C.ar    1  <O>11      -0.0314
  26 C17       4.1639     5.0641     4.8517  C.ar    1  <O>11       0.0283
  27 N4        4.0806     3.7316     5.0468  N.ar    1  <O>11      -0.2632
  28 C18       2.8816     3.1454     4.9025  C.ar    1  <O>11       0.0283
  29 C19       1.7441     3.8740     4.5555  C.ar    1  <O>11      -0.0314
  30 H1        0.1010     6.4490     5.9020  H       1  <O>11       0.1731
  31 H2       -1.4378     7.4518     3.5620  H       1  <O>11       0.1731
  32 H3        1.8502     9.5326     8.3970  H       1  <O>11       0.1738
  33 H4       -2.7500     5.6902     7.0158  H       1  <O>11       0.0625
  34 H5       -2.2908     5.3242     9.3709  H       1  <O>11       0.0618
  35 H6       -1.0522     6.9839    10.6466  H       1  <O>11       0.0637
  36 H7        2.0626    11.6244    11.0906  H       1  <O>11       0.0637
  37 H8        2.4758    14.0195    11.1488  H       1  <O>11       0.0618
  38 H9        2.2238    15.3494     9.1309  H       1  <O>11       0.0618
  39 H10       1.5555    14.2783     7.0573  H       1  <O>11       0.0647
  40 H11      -0.7212     9.3837     7.1998  H       1  <O>11       0.0645
  41 H12       3.2012     6.8775     4.3721  H       1  <O>11       0.0640
  42 H13       5.0846     5.5156     4.9679  H       1  <O>11       0.0830
  43 H14       2.7992     2.1277     5.0525  H       1  <O>11       0.0830
  44 H15       0.8332     3.3989     4.4582  H       1  <O>11       0.0640
@<TRIPOS>BOND
     1     1     2    2
     2     2     3   am
     3     3     4    1
     4     4     5   am
     5     5     6    2
     6     5     7    1
     7     7     8   ar
     8     8     9   ar
     9     9    10   ar
    10    10    11   ar
    11    11    12    1
    12    12    13    2
    13    12    14    2
    14    12    15    1
    15    15    16    1
    16    16    17   ar
    17    17    18   ar
    18    18    19   ar
    19    19    20   ar
    20    20    21   ar
    21    16    21   ar
    22    21    22    1
    23    11    23   ar
    24     7    23   ar
    25     2    24    1
    26    24    25   ar
    27    25    26   ar
    28    26    27   ar
    29    27    28   ar
    30    28    29   ar
    31    24    29   ar
    32     3    30    1
    33     4    31    1
    34    15    32    1
    35     8    33    1
    36     9    34    1
    37    10    35    1
    38    17    36    1
    39    18    37    1
    40    19    38    1
    41    20    39    1
    42    23    40    1
    43    25    41    1
    44    26    42    1
    45    28    43    1
    46    29    44    1
@<TRIPOS>MOLECULE
mol95_2_14
 44 46 0 0 0
SMALL
USER_CHARGES
****
VDW energy = 104.77
@<TRIPOS>ATOM
   1 O1        0.4027     6.1580     2.7719  O.2     1  <O>11      -0.2687
   2 C1        0.6752     6.0132     3.9543  C.2     1  <O>11       0.2602
   3 N1       -0.1260     6.5700     4.9150  N.am    1  <O>11      -0.2301
   4 N2       -1.2360     7.2920     4.5490  N.am    1  <O>11      -0.2301
   5 C2       -2.0718     7.7980     5.5090  C.2     1  <O>11       0.2602
   6 O2       -1.8310     7.6065     6.6909  O.2     1  <O>11      -0.2687
   7 C3       -3.2488     8.5640     5.1200  C.ar    1  <O>11       0.0400
   8 C4       -4.0168     8.1706     4.0125  C.ar    1  <O>11      -0.0495
   9 C5       -5.1398     8.9139     3.6321  C.ar    1  <O>11      -0.0592
  10 C6       -5.5083    10.0518     4.3547  C.ar    1  <O>11      -0.0350
  11 C7       -4.7457    10.4389     5.4625  C.ar    1  <O>11       0.1092
  12 S1       -5.2134    11.8737     6.3698  S.O2    1  <O>11       0.0724
  13 O3       -4.7650    11.6969     7.9581  O.2     1  <O>11      -0.1500
  14 O4       -6.8608    12.0722     6.2788  O.2     1  <O>11      -0.1500
  15 N3       -4.4631    13.1988     5.7303  N.pl3   1  <O>11      -0.2135
  16 C8       -5.1972    14.4394     5.5660  C.ar    1  <O>11       0.0831
  17 C9       -5.7413    15.0942     6.6837  C.ar    1  <O>11      -0.0365
  18 C10      -6.4624    16.2855     6.5212  C.ar    1  <O>11      -0.0598
  19 C11      -6.6391    16.8307     5.2485  C.ar    1  <O>11      -0.0589
  20 C12      -6.0915    16.1815     4.1375  C.ar    1  <O>11      -0.0246
  21 C13      -5.3703    14.9967     4.2871  C.ar    1  <O>11       0.1456
  22 F1       -4.8265    14.3656     3.1998  F       1  <O>11      -0.2035
  23 C14      -3.6258     9.7045     5.8507  C.ar    1  <O>11      -0.0229
  24 C15       1.8450     5.2530     4.3400  C.ar    1  <O>11       0.0410
  25 C16       2.6599     5.6548     5.3951  C.ar    1  <O>11      -0.0314
  26 C17       3.7741     4.8893     5.6895  C.ar    1  <O>11       0.0283
  27 N4        4.1151     3.7699     5.0178  N.ar    1  <O>11      -0.2632
  28 C18       3.3234     3.3721     4.0093  C.ar    1  <O>11       0.0283
  29 C19       2.1806     4.0846     3.6468  C.ar    1  <O>11      -0.0314
  30 H1        0.1010     6.4490     5.9020  H       1  <O>11       0.1731
  31 H2       -1.4378     7.4518     3.5620  H       1  <O>11       0.1731
  32 H3       -3.4828    13.1451     5.4491  H       1  <O>11       0.1738
  33 H4       -3.7520     7.3295     3.4766  H       1  <O>11       0.0625
  34 H5       -5.6979     8.6206     2.8151  H       1  <O>11       0.0618
  35 H6       -6.3352    10.6018     4.0739  H       1  <O>11       0.0637
  36 H7       -5.6099    14.6970     7.6271  H       1  <O>11       0.0637
  37 H8       -6.8637    16.7607     7.3448  H       1  <O>11       0.0618
  38 H9       -7.1703    17.7072     5.1281  H       1  <O>11       0.0618
  39 H10      -6.2223    16.5835     3.1961  H       1  <O>11       0.0647
  40 H11      -3.0748     9.9974     6.6727  H       1  <O>11       0.0645
  41 H12       2.4386     6.5010     5.9429  H       1  <O>11       0.0640
  42 H13       4.3797     5.1922     6.4683  H       1  <O>11       0.0830
  43 H14       3.5671     2.5155     3.4879  H       1  <O>11       0.0830
  44 H15       1.5858     3.7521     2.8718  H       1  <O>11       0.0640
@<TRIPOS>BOND
     1     1     2    2
     2     2     3   am
     3     3     4    1
     4     4     5   am
     5     5     6    2
     6     5     7    1
     7     7     8   ar
     8     8     9   ar
     9     9    10   ar
    10    10    11   ar
    11    11    12    1
    12    12    13    2
    13    12    14    2
    14    12    15    1
    15    15    16    1
    16    16    17   ar
    17    17    18   ar
    18    18    19   ar
    19    19    20   ar
    20    20    21   ar
    21    16    21   ar
    22    21    22    1
    23    11    23   ar
    24     7    23   ar
    25     2    24    1
    26    24    25   ar
    27    25    26   ar
    28    26    27   ar
    29    27    28   ar
    30    28    29   ar
    31    24    29   ar
    32     3    30    1
    33     4    31    1
    34    15    32    1
    35     8    33    1
    36     9    34    1
    37    10    35    1
    38    17    36    1
    39    18    37    1
    40    19    38    1
    41    20    39    1
    42    23    40    1
    43    25    41    1
    44    26    42    1
    45    28    43    1
    46    29    44    1
@<TRIPOS>MOLECULE
mol95_2_15
 44 46 0 0 0
SMALL
USER_CHARGES
****
VDW energy = 104.78
@<TRIPOS>ATOM
   1 O1        0.4027     6.1580     2.7719  O.2     1  <O>11      -0.2687
   2 C1        0.6752     6.0132     3.9543  C.2     1  <O>11       0.2602
   3 N1       -0.1260     6.5700     4.9150  N.am    1  <O>11      -0.2301
   4 N2       -1.2360     7.2920     4.5490  N.am    1  <O>11      -0.2301
   5 C2       -2.0718     7.7980     5.5090  C.2     1  <O>11       0.2602
   6 O2       -3.0581     8.4403     5.1830  O.2     1  <O>11      -0.2687
   7 C3       -1.7838     7.5705     6.9192  C.ar    1  <O>11       0.0400
   8 C4       -2.2261     6.3986     7.5533  C.ar    1  <O>11      -0.0495
   9 C5       -1.9599     6.1865     8.9106  C.ar    1  <O>11      -0.0592
  10 C6       -1.2475     7.1384     9.6450  C.ar    1  <O>11      -0.0350
  11 C7       -0.8014     8.3030     9.0100  C.ar    1  <O>11       0.1092
  12 S1        0.0954     9.4997     9.9394  S.O2    1  <O>11       0.0724
  13 O3        0.7645     8.7776    11.2758  O.2     1  <O>11      -0.1500
  14 O4       -0.9357    10.7101    10.4225  O.2     1  <O>11      -0.1500
  15 N3        1.2947    10.1400     9.0015  N.pl3   1  <O>11      -0.2135
  16 C8        1.5583    11.5663     9.0346  C.ar    1  <O>11       0.0831
  17 C9        0.8926    12.4307     8.1491  C.ar    1  <O>11      -0.0365
  18 C10       1.1593    13.8069     8.1732  C.ar    1  <O>11      -0.0598
  19 C11       2.0836    14.3268     9.0807  C.ar    1  <O>11      -0.0589
  20 C12       2.7407    13.4663     9.9658  C.ar    1  <O>11      -0.0246
  21 C13       2.4820    12.0955     9.9526  C.ar    1  <O>11       0.1456
  22 F1        3.1192    11.2539    10.8255  F       1  <O>11      -0.2035
  23 C14      -1.0601     8.5232     7.6577  C.ar    1  <O>11      -0.0229
  24 C15       1.8450     5.2530     4.3400  C.ar    1  <O>11       0.0410
  25 C16       1.7724     3.8878     4.6040  C.ar    1  <O>11      -0.0314
  26 C17       2.9287     3.2338     4.9905  C.ar    1  <O>11       0.0283
  27 N4        4.1270     3.8402     5.1204  N.ar    1  <O>11      -0.2632
  28 C18       4.2030     5.1535     4.8526  C.ar    1  <O>11       0.0283
  29 C19       3.0862     5.8888     4.4561  C.ar    1  <O>11      -0.0314
  30 H1        0.1010     6.4490     5.9020  H       1  <O>11       0.1731
  31 H2       -1.4378     7.4518     3.5620  H       1  <O>11       0.1731
  32 H3        1.8502     9.5326     8.3970  H       1  <O>11       0.1738
  33 H4       -2.7500     5.6902     7.0158  H       1  <O>11       0.0625
  34 H5       -2.2908     5.3242     9.3709  H       1  <O>11       0.0618
  35 H6       -1.0522     6.9839    10.6466  H       1  <O>11       0.0637
  36 H7        0.2054    12.0515     7.4791  H       1  <O>11       0.0637
  37 H8        0.6708    14.4373     7.5181  H       1  <O>11       0.0618
  38 H9        2.2808    15.3396     9.0985  H       1  <O>11       0.0618
  39 H10       3.4248    13.8497    10.6365  H       1  <O>11       0.0647
  40 H11      -0.7212     9.3837     7.1998  H       1  <O>11       0.0645
  41 H12       0.8800     3.3775     4.5138  H       1  <O>11       0.0640
  42 H13       2.8714     2.2230     5.1911  H       1  <O>11       0.0830
  43 H14       5.1128     5.6321     4.9425  H       1  <O>11       0.0830
  44 H15       3.1746     6.8960     4.2496  H       1  <O>11       0.0640
@<TRIPOS>BOND
     1     1     2    2
     2     2     3   am
     3     3     4    1
     4     4     5   am
     5     5     6    2
     6     5     7    1
     7     7     8   ar
     8     8     9   ar
     9     9    10   ar
    10    10    11   ar
    11    11    12    1
    12    12    13    2
    13    12    14    2
    14    12    15    1
    15    15    16    1
    16    16    17   ar
    17    17    18   ar
    18    18    19   ar
    19    19    20   ar
    20    20    21   ar
    21    16    21   ar
    22    21    22    1
    23    11    23   ar
    24     7    23   ar
    25     2    24    1
    26    24    25   ar
    27    25    26   ar
    28    26    27   ar
    29    27    28   ar
    30    28    29   ar
    31    24    29   ar
    32     3    30    1
    33     4    31    1
    34    15    32    1
    35     8    33    1
    36     9    34    1
    37    10    35    1
    38    17    36    1
    39    18    37    1
    40    19    38    1
    41    20    39    1
    42    23    40    1
    43    25    41    1
    44    26    42    1
    45    28    43    1
    46    29    44    1
@<TRIPOS>MOLECULE
mol95_2_16
 44 46 0 0 0
SMALL
USER_CHARGES
****
VDW energy = 105.02
@<TRIPOS>ATOM
   1 O1        0.4027     6.1580     2.7719  O.2     1  <O>11      -0.2687
   2 C1        0.6752     6.0132     3.9543  C.2     1  <O>11       0.2602
   3 N1       -0.1260     6.5700     4.9150  N.am    1  <O>11      -0.2301
   4 N2       -1.2360     7.2920     4.5490  N.am    1  <O>11      -0.2301
   5 C2       -2.0718     7.7980     5.5090  C.2     1  <O>11       0.2602
   6 O2       -1.8310     7.6065     6.6909  O.2     1  <O>11      -0.2687
   7 C3       -3.2488     8.5640     5.1200  C.ar    1  <O>11       0.0400
   8 C4       -3.1497     9.9438     4.8806  C.ar    1  <O>11      -0.0495
   9 C5       -4.2828    10.6811     4.5192  C.ar    1  <O>11      -0.0592
  10 C6       -5.5221    10.0483     4.3895  C.ar    1  <O>11      -0.0350
  11 C7       -5.6181     8.6716     4.6218  C.ar    1  <O>11       0.1092
  12 S1       -7.1816     7.8786     4.4576  S.O2    1  <O>11       0.0724
  13 O3       -8.1697     8.7944     3.4880  O.2     1  <O>11      -0.1500
  14 O4       -7.8775     7.7134     5.9577  O.2     1  <O>11      -0.1500
  15 N3       -6.9744     6.3870     3.7797  N.pl3   1  <O>11      -0.2135
  16 C8       -6.1475     5.3968     4.4436  C.ar    1  <O>11       0.0831
  17 C9       -6.4853     4.9373     5.7277  C.ar    1  <O>11      -0.0365
  18 C10      -5.6771     3.9909     6.3733  C.ar    1  <O>11      -0.0598
  19 C11      -4.5353     3.4956     5.7416  C.ar    1  <O>11      -0.0589
  20 C12      -4.2037     3.9489     4.4609  C.ar    1  <O>11      -0.0246
  21 C13      -5.0013     4.8888     3.8078  C.ar    1  <O>11       0.1456
  22 F1       -4.6812     5.3261     2.5497  F       1  <O>11      -0.2035
  23 C14      -4.4949     7.9276     4.9810  C.ar    1  <O>11      -0.0229
  24 C15       1.8450     5.2530     4.3400  C.ar    1  <O>11       0.0410
  25 C16       1.7724     3.8878     4.6040  C.ar    1  <O>11      -0.0314
  26 C17       2.9287     3.2338     4.9905  C.ar    1  <O>11       0.0283
  27 N4        4.1270     3.8402     5.1204  N.ar    1  <O>11      -0.2632
  28 C18       4.2030     5.1535     4.8526  C.ar    1  <O>11       0.0283
  29 C19       3.0862     5.8888     4.4561  C.ar    1  <O>11      -0.0314
  30 H1        0.1010     6.4490     5.9020  H       1  <O>11       0.1731
  31 H2       -1.4378     7.4518     3.5620  H       1  <O>11       0.1731
  32 H3       -7.4270     6.1614     2.8924  H       1  <O>11       0.1738
  33 H4       -2.2369    10.4165     4.9716  H       1  <O>11       0.0625
  34 H5       -4.2031    11.6956     4.3479  H       1  <O>11       0.0618
  35 H6       -6.3588    10.5914     4.1248  H       1  <O>11       0.0637
  36 H7       -7.3308     5.2977     6.1971  H       1  <O>11       0.0637
  37 H8       -5.9272     3.6595     7.3182  H       1  <O>11       0.0618
  38 H9       -3.9396     2.7995     6.2165  H       1  <O>11       0.0618
  39 H10      -3.3591     3.5838     3.9935  H       1  <O>11       0.0647
  40 H11      -4.5779     6.9120     5.1445  H       1  <O>11       0.0645
  41 H12       0.8800     3.3775     4.5138  H       1  <O>11       0.0640
  42 H13       2.8714     2.2230     5.1911  H       1  <O>11       0.0830
  43 H14       5.1128     5.6321     4.9425  H       1  <O>11       0.0830
  44 H15       3.1746     6.8960     4.2496  H       1  <O>11       0.0640
@<TRIPOS>BOND
     1     1     2    2
     2     2     3   am
     3     3     4    1
     4     4     5   am
     5     5     6    2
     6     5     7    1
     7     7     8   ar
     8     8     9   ar
     9     9    10   ar
    10    10    11   ar
    11    11    12    1
    12    12    13    2
    13    12    14    2
    14    12    15    1
    15    15    16    1
    16    16    17   ar
    17    17    18   ar
    18    18    19   ar
    19    19    20   ar
    20    20    21   ar
    21    16    21   ar
    22    21    22    1
    23    11    23   ar
    24     7    23   ar
    25     2    24    1
    26    24    25   ar
    27    25    26   ar
    28    26    27   ar
    29    27    28   ar
    30    28    29   ar
    31    24    29   ar
    32     3    30    1
    33     4    31    1
    34    15    32    1
    35     8    33    1
    36     9    34    1
    37    10    35    1
    38    17    36    1
    39    18    37    1
    40    19    38    1
    41    20    39    1
    42    23    40    1
    43    25    41    1
    44    26    42    1
    45    28    43    1
    46    29    44    1
@<TRIPOS>MOLECULE
mol95_2_17
 44 46 0 0 0
SMALL
USER_CHARGES
****
VDW energy = 105.19
@<TRIPOS>ATOM
   1 O1        0.4027     6.1580     2.7719  O.2     1  <O>11      -0.2687
   2 C1        0.6752     6.0132     3.9543  C.2     1  <O>11       0.2602
   3 N1       -0.1260     6.5700     4.9150  N.am    1  <O>11      -0.2301
   4 N2       -1.2360     7.2920     4.5490  N.am    1  <O>11      -0.2301
   5 C2       -2.0718     7.7980     5.5090  C.2     1  <O>11       0.2602
   6 O2       -1.8310     7.6065     6.6909  O.2     1  <O>11      -0.2687
   7 C3       -3.2488     8.5640     5.1200  C.ar    1  <O>11       0.0400
   8 C4       -4.4750     7.9169     4.8993  C.ar    1  <O>11      -0.0495
   9 C5       -5.6019     8.6516     4.5137  C.ar    1  <O>11      -0.0592
  10 C6       -5.5163    10.0368     4.3493  C.ar    1  <O>11      -0.0350
  11 C7       -4.2951    10.6813     4.5762  C.ar    1  <O>11       0.1092
  12 S1       -4.1918    12.4266     4.3675  S.O2    1  <O>11       0.0724
  13 O3       -5.7066    13.0923     4.4991  O.2     1  <O>11      -0.1500
  14 O4       -3.5663    12.7674     2.8660  O.2     1  <O>11      -0.1500
  15 N3       -3.2078    13.0634     5.5311  N.pl3   1  <O>11      -0.2135
  16 C8       -1.8234    12.6391     5.6225  C.ar    1  <O>11       0.0831
  17 C9       -0.9454    12.8490     4.5458  C.ar    1  <O>11      -0.0365
  18 C10       0.3884    12.4255     4.6307  C.ar    1  <O>11      -0.0598
  19 C11       0.8531    11.7979     5.7877  C.ar    1  <O>11      -0.0589
  20 C12      -0.0201    11.5954     6.8610  C.ar    1  <O>11      -0.0246
  21 C13      -1.3488    12.0144     6.7889  C.ar    1  <O>11       0.1456
  22 F1       -2.2017    11.8239     7.8437  F       1  <O>11      -0.2035
  23 C14      -3.1667     9.9587     4.9621  C.ar    1  <O>11      -0.0229
  24 C15       1.8450     5.2530     4.3400  C.ar    1  <O>11       0.0410
  25 C16       1.7724     3.8878     4.6040  C.ar    1  <O>11      -0.0314
  26 C17       2.9287     3.2338     4.9905  C.ar    1  <O>11       0.0283
  27 N4        4.1270     3.8402     5.1204  N.ar    1  <O>11      -0.2632
  28 C18       4.2030     5.1535     4.8526  C.ar    1  <O>11       0.0283
  29 C19       3.0862     5.8888     4.4561  C.ar    1  <O>11      -0.0314
  30 H1        0.1010     6.4490     5.9020  H       1  <O>11       0.1731
  31 H2       -1.4378     7.4518     3.5620  H       1  <O>11       0.1731
  32 H3       -3.5737    13.7550     6.1876  H       1  <O>11       0.1738
  33 H4       -4.5457     6.8947     5.0220  H       1  <O>11       0.0625
  34 H5       -6.4992     8.1689     4.3501  H       1  <O>11       0.0618
  35 H6       -6.3463    10.5794     4.0632  H       1  <O>11       0.0637
  36 H7       -1.2833    13.3162     3.6899  H       1  <O>11       0.0637
  37 H8        1.0285    12.5782     3.8356  H       1  <O>11       0.0618
  38 H9        1.8345    11.4854     5.8505  H       1  <O>11       0.0618
  39 H10       0.3224    11.1308     7.7164  H       1  <O>11       0.0647
  40 H11      -2.2732    10.4465     5.1315  H       1  <O>11       0.0645
  41 H12       0.8800     3.3775     4.5138  H       1  <O>11       0.0640
  42 H13       2.8714     2.2230     5.1911  H       1  <O>11       0.0830
  43 H14       5.1128     5.6321     4.9425  H       1  <O>11       0.0830
  44 H15       3.1746     6.8960     4.2496  H       1  <O>11       0.0640
@<TRIPOS>BOND
     1     1     2    2
     2     2     3   am
     3     3     4    1
     4     4     5   am
     5     5     6    2
     6     5     7    1
     7     7     8   ar
     8     8     9   ar
     9     9    10   ar
    10    10    11   ar
    11    11    12    1
    12    12    13    2
    13    12    14    2
    14    12    15    1
    15    15    16    1
    16    16    17   ar
    17    17    18   ar
    18    18    19   ar
    19    19    20   ar
    20    20    21   ar
    21    16    21   ar
    22    21    22    1
    23    11    23   ar
    24     7    23   ar
    25     2    24    1
    26    24    25   ar
    27    25    26   ar
    28    26    27   ar
    29    27    28   ar
    30    28    29   ar
    31    24    29   ar
    32     3    30    1
    33     4    31    1
    34    15    32    1
    35     8    33    1
    36     9    34    1
    37    10    35    1
    38    17    36    1
    39    18    37    1
    40    19    38    1
    41    20    39    1
    42    23    40    1
    43    25    41    1
    44    26    42    1
    45    28    43    1
    46    29    44    1
@<TRIPOS>MOLECULE
mol95_2_18
 44 46 0 0 0
SMALL
USER_CHARGES
****
VDW energy = 105.62
@<TRIPOS>ATOM
   1 O1        0.4027     6.1580     2.7719  O.2     1  <O>11      -0.2687
   2 C1        0.6752     6.0132     3.9543  C.2     1  <O>11       0.2602
   3 N1       -0.1260     6.5700     4.9150  N.am    1  <O>11      -0.2301
   4 N2       -1.2360     7.2920     4.5490  N.am    1  <O>11      -0.2301
   5 C2       -2.0718     7.7980     5.5090  C.2     1  <O>11       0.2602
   6 O2       -1.8310     7.6065     6.6909  O.2     1  <O>11      -0.2687
   7 C3       -3.2488     8.5640     5.1200  C.ar    1  <O>11       0.0400
   8 C4       -3.1497     9.9438     4.8806  C.ar    1  <O>11      -0.0495
   9 C5       -4.2828    10.6811     4.5192  C.ar    1  <O>11      -0.0592
  10 C6       -5.5221    10.0483     4.3895  C.ar    1  <O>11      -0.0350
  11 C7       -5.6181     8.6716     4.6218  C.ar    1  <O>11       0.1092
  12 S1       -7.1816     7.8786     4.4576  S.O2    1  <O>11       0.0724
  13 O3       -6.9587     6.3053     3.9778  O.2     1  <O>11      -0.1500
  14 O4       -8.0910     8.6801     3.3208  O.2     1  <O>11      -0.1500
  15 N3       -7.9679     7.9049     5.9098  N.pl3   1  <O>11      -0.2135
  16 C8       -9.3870     8.2026     5.9612  C.ar    1  <O>11       0.0831
  17 C9      -10.3094     7.3735     5.3009  C.ar    1  <O>11      -0.0365
  18 C10     -11.6789     7.6709     5.3401  C.ar    1  <O>11      -0.0598
  19 C11     -12.1343     8.7894     6.0399  C.ar    1  <O>11      -0.0589
  20 C12     -11.2159     9.6102     6.7020  C.ar    1  <O>11      -0.0246
  21 C13      -9.8511     9.3232     6.6718  C.ar    1  <O>11       0.1456
  22 F1       -8.9525    10.1223     7.3278  F       1  <O>11      -0.2035
  23 C14      -4.4949     7.9276     4.9810  C.ar    1  <O>11      -0.0229
  24 C15       1.8450     5.2530     4.3400  C.ar    1  <O>11       0.0410
  25 C16       2.6824     4.6726     3.3910  C.ar    1  <O>11      -0.0314
  26 C17       3.7684     3.9406     3.8370  C.ar    1  <O>11       0.0283
  27 N4        4.0690     3.7610     5.1400  N.ar    1  <O>11      -0.2632
  28 C18       3.2716     4.3313     6.0570  C.ar    1  <O>11       0.0283
  29 C19       2.1566     5.0863     5.6940  C.ar    1  <O>11      -0.0314
  30 H1        0.1010     6.4490     5.9020  H       1  <O>11       0.1731
  31 H2       -1.4378     7.4518     3.5620  H       1  <O>11       0.1731
  32 H3       -7.4555     7.7130     6.7721  H       1  <O>11       0.1738
  33 H4       -2.2369    10.4165     4.9716  H       1  <O>11       0.0625
  34 H5       -4.2031    11.6956     4.3479  H       1  <O>11       0.0618
  35 H6       -6.3588    10.5914     4.1248  H       1  <O>11       0.0637
  36 H7       -9.9778     6.5431     4.7856  H       1  <O>11       0.0637
  37 H8      -12.3522     7.0611     4.8501  H       1  <O>11       0.0618
  38 H9      -13.1422     9.0092     6.0685  H       1  <O>11       0.0618
  39 H10     -11.5518    10.4378     7.2189  H       1  <O>11       0.0647
  40 H11      -4.5779     6.9120     5.1445  H       1  <O>11       0.0645
  41 H12       2.4980     4.7856     2.3819  H       1  <O>11       0.0640
  42 H13       4.3845     3.5067     3.1318  H       1  <O>11       0.0830
  43 H14       3.4896     4.2077     7.0581  H       1  <O>11       0.0830
  44 H15       1.5646     5.5196     6.4198  H       1  <O>11       0.0640
@<TRIPOS>BOND
     1     1     2    2
     2     2     3   am
     3     3     4    1
     4     4     5   am
     5     5     6    2
     6     5     7    1
     7     7     8   ar
     8     8     9   ar
     9     9    10   ar
    10    10    11   ar
    11    11    12    1
    12    12    13    2
    13    12    14    2
    14    12    15    1
    15    15    16    1
    16    16    17   ar
    17    17    18   ar
    18    18    19   ar
    19    19    20   ar
    20    20    21   ar
    21    16    21   ar
    22    21    22    1
    23    11    23   ar
    24     7    23   ar
    25     2    24    1
    26    24    25   ar
    27    25    26   ar
    28    26    27   ar
    29    27    28   ar
    30    28    29   ar
    31    24    29   ar
    32     3    30    1
    33     4    31    1
    34    15    32    1
    35     8    33    1
    36     9    34    1
    37    10    35    1
    38    17    36    1
    39    18    37    1
    40    19    38    1
    41    20    39    1
    42    23    40    1
    43    25    41    1
    44    26    42    1
    45    28    43    1
    46    29    44    1
@<TRIPOS>MOLECULE
mol95_2_19
 44 46 0 0 0
SMALL
USER_CHARGES
****
VDW energy = 105.92
@<TRIPOS>ATOM
   1 O1        0.4027     6.1580     2.7719  O.2     1  <O>11      -0.2687
   2 C1        0.6752     6.0132     3.9543  C.2     1  <O>11       0.2602
   3 N1       -0.1260     6.5700     4.9150  N.am    1  <O>11      -0.2301
   4 N2       -1.2360     7.2920     4.5490  N.am    1  <O>11      -0.2301
   5 C2       -2.0718     7.7980     5.5090  C.2     1  <O>11       0.2602
   6 O2       -3.0581     8.4403     5.1830  O.2     1  <O>11      -0.2687
   7 C3       -1.7838     7.5705     6.9192  C.ar    1  <O>11       0.0400
   8 C4       -2.2261     6.3986     7.5533  C.ar    1  <O>11      -0.0495
   9 C5       -1.9599     6.1865     8.9106  C.ar    1  <O>11      -0.0592
  10 C6       -1.2475     7.1384     9.6450  C.ar    1  <O>11      -0.0350
  11 C7       -0.8014     8.3030     9.0100  C.ar    1  <O>11       0.1092
  12 S1        0.0954     9.4997     9.9394  S.O2    1  <O>11       0.0724
  13 O3        0.7645     8.7776    11.2758  O.2     1  <O>11      -0.1500
  14 O4       -0.9357    10.7101    10.4225  O.2     1  <O>11      -0.1500
  15 N3        1.2947    10.1400     9.0015  N.pl3   1  <O>11      -0.2135
  16 C8        1.5583    11.5663     9.0346  C.ar    1  <O>11       0.0831
  17 C9        1.3273    12.3563     7.8957  C.ar    1  <O>11      -0.0365
  18 C10       1.5961    13.7319     7.9254  C.ar    1  <O>11      -0.0598
  19 C11       2.0895    14.3255     9.0884  C.ar    1  <O>11      -0.0589
  20 C12       2.3129    13.5394    10.2232  C.ar    1  <O>11      -0.0246
  21 C13       2.0472    12.1700    10.2061  C.ar    1  <O>11       0.1456
  22 F1        2.2576    11.4016    11.3205  F       1  <O>11      -0.2035
  23 C14      -1.0601     8.5232     7.6577  C.ar    1  <O>11      -0.0229
  24 C15       1.8450     5.2530     4.3400  C.ar    1  <O>11       0.0410
  25 C16       1.7724     3.8878     4.6040  C.ar    1  <O>11      -0.0314
  26 C17       2.9287     3.2338     4.9905  C.ar    1  <O>11       0.0283
  27 N4        4.1270     3.8402     5.1204  N.ar    1  <O>11      -0.2632
  28 C18       4.2030     5.1535     4.8526  C.ar    1  <O>11       0.0283
  29 C19       3.0862     5.8888     4.4561  C.ar    1  <O>11      -0.0314
  30 H1        0.1010     6.4490     5.9020  H       1  <O>11       0.1731
  31 H2       -1.4378     7.4518     3.5620  H       1  <O>11       0.1731
  32 H3        1.8502     9.5326     8.3970  H       1  <O>11       0.1738
  33 H4       -2.7500     5.6902     7.0158  H       1  <O>11       0.0625
  34 H5       -2.2908     5.3242     9.3709  H       1  <O>11       0.0618
  35 H6       -1.0522     6.9839    10.6466  H       1  <O>11       0.0637
  36 H7        0.9588    11.9225     7.0348  H       1  <O>11       0.0637
  37 H8        1.4287    14.3073     7.0851  H       1  <O>11       0.0618
  38 H9        2.2882    15.3379     9.1107  H       1  <O>11       0.0618
  39 H10       2.6784    13.9773    11.0831  H       1  <O>11       0.0647
  40 H11      -0.7212     9.3837     7.1998  H       1  <O>11       0.0645
  41 H12       0.8800     3.3775     4.5138  H       1  <O>11       0.0640
  42 H13       2.8714     2.2230     5.1911  H       1  <O>11       0.0830
  43 H14       5.1128     5.6321     4.9425  H       1  <O>11       0.0830
  44 H15       3.1746     6.8960     4.2496  H       1  <O>11       0.0640
@<TRIPOS>BOND
     1     1     2    2
     2     2     3   am
     3     3     4    1
     4     4     5   am
     5     5     6    2
     6     5     7    1
     7     7     8   ar
     8     8     9   ar
     9     9    10   ar
    10    10    11   ar
    11    11    12    1
    12    12    13    2
    13    12    14    2
    14    12    15    1
    15    15    16    1
    16    16    17   ar
    17    17    18   ar
    18    18    19   ar
    19    19    20   ar
    20    20    21   ar
    21    16    21   ar
    22    21    22    1
    23    11    23   ar
    24     7    23   ar
    25     2    24    1
    26    24    25   ar
    27    25    26   ar
    28    26    27   ar
    29    27    28   ar
    30    28    29   ar
    31    24    29   ar
    32     3    30    1
    33     4    31    1
    34    15    32    1
    35     8    33    1
    36     9    34    1
    37    10    35    1
    38    17    36    1
    39    18    37    1
    40    19    38    1
    41    20    39    1
    42    23    40    1
    43    25    41    1
    44    26    42    1
    45    28    43    1
    46    29    44    1
@<TRIPOS>MOLECULE
mol95_2_20
 44 46 0 0 0
SMALL
USER_CHARGES
****
VDW energy = 106.40
@<TRIPOS>ATOM
   1 O1        0.4027     6.1580     2.7719  O.2     1  <O>11      -0.2687
   2 C1        0.6752     6.0132     3.9543  C.2     1  <O>11       0.2602
   3 N1       -0.1260     6.5700     4.9150  N.am    1  <O>11      -0.2301
   4 N2       -1.2360     7.2920     4.5490  N.am    1  <O>11      -0.2301
   5 C2       -2.0718     7.7980     5.5090  C.2     1  <O>11       0.2602
   6 O2       -3.0581     8.4403     5.1830  O.2     1  <O>11      -0.2687
   7 C3       -1.7838     7.5705     6.9192  C.ar    1  <O>11       0.0400
   8 C4       -2.2261     6.3986     7.5533  C.ar    1  <O>11      -0.0495
   9 C5       -1.9599     6.1865     8.9106  C.ar    1  <O>11      -0.0592
  10 C6       -1.2475     7.1384     9.6450  C.ar    1  <O>11      -0.0350
  11 C7       -0.8014     8.3030     9.0100  C.ar    1  <O>11       0.1092
  12 S1        0.0954     9.4997     9.9394  S.O2    1  <O>11       0.0724
  13 O3        0.7645     8.7776    11.2758  O.2     1  <O>11      -0.1500
  14 O4       -0.9357    10.7101    10.4225  O.2     1  <O>11      -0.1500
  15 N3        1.2947    10.1400     9.0015  N.pl3   1  <O>11      -0.2135
  16 C8        1.5583    11.5663     9.0346  C.ar    1  <O>11       0.0831
  17 C9        1.9510    12.1868    10.2325  C.ar    1  <O>11      -0.0365
  18 C10       2.1915    13.5676    10.2655  C.ar    1  <O>11      -0.0598
  19 C11       2.0476    14.3328     9.1071  C.ar    1  <O>11      -0.0589
  20 C12       1.6630    13.7131     7.9140  C.ar    1  <O>11      -0.0246
  21 C13       1.4229    12.3396     7.8685  C.ar    1  <O>11       0.1456
  22 F1        1.0547    11.7312     6.6977  F       1  <O>11      -0.2035
  23 C14      -1.0601     8.5232     7.6577  C.ar    1  <O>11      -0.0229
  24 C15       1.8450     5.2530     4.3400  C.ar    1  <O>11       0.0410
  25 C16       2.6599     5.6548     5.3951  C.ar    1  <O>11      -0.0314
  26 C17       3.7741     4.8893     5.6895  C.ar    1  <O>11       0.0283
  27 N4        4.1151     3.7699     5.0178  N.ar    1  <O>11      -0.2632
  28 C18       3.3234     3.3721     4.0093  C.ar    1  <O>11       0.0283
  29 C19       2.1806     4.0846     3.6468  C.ar    1  <O>11      -0.0314
  30 H1        0.1010     6.4490     5.9020  H       1  <O>11       0.1731
  31 H2       -1.4378     7.4518     3.5620  H       1  <O>11       0.1731
  32 H3        1.8502     9.5326     8.3970  H       1  <O>11       0.1738
  33 H4       -2.7500     5.6902     7.0158  H       1  <O>11       0.0625
  34 H5       -2.2908     5.3242     9.3709  H       1  <O>11       0.0618
  35 H6       -1.0522     6.9839    10.6466  H       1  <O>11       0.0637
  36 H7        2.0626    11.6244    11.0906  H       1  <O>11       0.0637
  37 H8        2.4758    14.0195    11.1488  H       1  <O>11       0.0618
  38 H9        2.2238    15.3494     9.1309  H       1  <O>11       0.0618
  39 H10       1.5555    14.2783     7.0573  H       1  <O>11       0.0647
  40 H11      -0.7212     9.3837     7.1998  H       1  <O>11       0.0645
  41 H12       2.4386     6.5010     5.9429  H       1  <O>11       0.0640
  42 H13       4.3797     5.1922     6.4683  H       1  <O>11       0.0830
  43 H14       3.5671     2.5155     3.4879  H       1  <O>11       0.0830
  44 H15       1.5858     3.7521     2.8718  H       1  <O>11       0.0640
@<TRIPOS>BOND
     1     1     2    2
     2     2     3   am
     3     3     4    1
     4     4     5   am
     5     5     6    2
     6     5     7    1
     7     7     8   ar
     8     8     9   ar
     9     9    10   ar
    10    10    11   ar
    11    11    12    1
    12    12    13    2
    13    12    14    2
    14    12    15    1
    15    15    16    1
    16    16    17   ar
    17    17    18   ar
    18    18    19   ar
    19    19    20   ar
    20    20    21   ar
    21    16    21   ar
    22    21    22    1
    23    11    23   ar
    24     7    23   ar
    25     2    24    1
    26    24    25   ar
    27    25    26   ar
    28    26    27   ar
    29    27    28   ar
    30    28    29   ar
    31    24    29   ar
    32     3    30    1
    33     4    31    1
    34    15    32    1
    35     8    33    1
    36     9    34    1
    37    10    35    1
    38    17    36    1
    39    18    37    1
    40    19    38    1
    41    20    39    1
    42    23    40    1
    43    25    41    1
    44    26    42    1
    45    28    43    1
    46    29    44    1
@<TRIPOS>MOLECULE
mol95_2_21
 44 46 0 0 0
SMALL
USER_CHARGES
****
VDW energy = 106.92
@<TRIPOS>ATOM
   1 O1        0.4027     6.1580     2.7719  O.2     1  <O>11      -0.2687
   2 C1        0.6752     6.0132     3.9543  C.2     1  <O>11       0.2602
   3 N1       -0.1260     6.5700     4.9150  N.am    1  <O>11      -0.2301
   4 N2       -1.2360     7.2920     4.5490  N.am    1  <O>11      -0.2301
   5 C2       -2.0718     7.7980     5.5090  C.2     1  <O>11       0.2602
   6 O2       -1.8310     7.6065     6.6909  O.2     1  <O>11      -0.2687
   7 C3       -3.2488     8.5640     5.1200  C.ar    1  <O>11       0.0400
   8 C4       -3.1497     9.9438     4.8806  C.ar    1  <O>11      -0.0495
   9 C5       -4.2828    10.6811     4.5192  C.ar    1  <O>11      -0.0592
  10 C6       -5.5221    10.0483     4.3895  C.ar    1  <O>11      -0.0350
  11 C7       -5.6181     8.6716     4.6218  C.ar    1  <O>11       0.1092
  12 S1       -7.1816     7.8786     4.4576  S.O2    1  <O>11       0.0724
  13 O3       -8.1697     8.7944     3.4880  O.2     1  <O>11      -0.1500
  14 O4       -7.8775     7.7134     5.9577  O.2     1  <O>11      -0.1500
  15 N3       -6.9744     6.3870     3.7797  N.pl3   1  <O>11      -0.2135
  16 C8       -7.7132     5.2482     4.2918  C.ar    1  <O>11       0.0831
  17 C9       -9.1178     5.2405     4.2559  C.ar    1  <O>11      -0.0365
  18 C10      -9.8303     4.1452     4.7642  C.ar    1  <O>11      -0.0598
  19 C11      -9.1479     3.0537     5.3038  C.ar    1  <O>11      -0.0589
  20 C12      -7.7498     3.0597     5.3331  C.ar    1  <O>11      -0.0246
  21 C13      -7.0302     4.1430     4.8284  C.ar    1  <O>11       0.1456
  22 F1       -5.6605     4.1449     4.8491  F       1  <O>11      -0.2035
  23 C14      -4.4949     7.9276     4.9810  C.ar    1  <O>11      -0.0229
  24 C15       1.8450     5.2530     4.3400  C.ar    1  <O>11       0.0410
  25 C16       2.6824     4.6726     3.3910  C.ar    1  <O>11      -0.0314
  26 C17       3.7684     3.9406     3.8370  C.ar    1  <O>11       0.0283
  27 N4        4.0690     3.7610     5.1400  N.ar    1  <O>11      -0.2632
  28 C18       3.2716     4.3313     6.0570  C.ar    1  <O>11       0.0283
  29 C19       2.1566     5.0863     5.6940  C.ar    1  <O>11      -0.0314
  30 H1        0.1010     6.4490     5.9020  H       1  <O>11       0.1731
  31 H2       -1.4378     7.4518     3.5620  H       1  <O>11       0.1731
  32 H3       -6.3253     6.2652     3.0007  H       1  <O>11       0.1738
  33 H4       -2.2369    10.4165     4.9716  H       1  <O>11       0.0625
  34 H5       -4.2031    11.6956     4.3479  H       1  <O>11       0.0618
  35 H6       -6.3588    10.5914     4.1248  H       1  <O>11       0.0637
  36 H7       -9.6266     6.0436     3.8542  H       1  <O>11       0.0637
  37 H8      -10.8621     4.1460     4.7393  H       1  <O>11       0.0618
  38 H9       -9.6718     2.2475     5.6788  H       1  <O>11       0.0618
  39 H10      -7.2446     2.2534     5.7327  H       1  <O>11       0.0647
  40 H11      -4.5779     6.9120     5.1445  H       1  <O>11       0.0645
  41 H12       2.4980     4.7856     2.3819  H       1  <O>11       0.0640
  42 H13       4.3845     3.5067     3.1318  H       1  <O>11       0.0830
  43 H14       3.4896     4.2077     7.0581  H       1  <O>11       0.0830
  44 H15       1.5646     5.5196     6.4198  H       1  <O>11       0.0640
@<TRIPOS>BOND
     1     1     2    2
     2     2     3   am
     3     3     4    1
     4     4     5   am
     5     5     6    2
     6     5     7    1
     7     7     8   ar
     8     8     9   ar
     9     9    10   ar
    10    10    11   ar
    11    11    12    1
    12    12    13    2
    13    12    14    2
    14    12    15    1
    15    15    16    1
    16    16    17   ar
    17    17    18   ar
    18    18    19   ar
    19    19    20   ar
    20    20    21   ar
    21    16    21   ar
    22    21    22    1
    23    11    23   ar
    24     7    23   ar
    25     2    24    1
    26    24    25   ar
    27    25    26   ar
    28    26    27   ar
    29    27    28   ar
    30    28    29   ar
    31    24    29   ar
    32     3    30    1
    33     4    31    1
    34    15    32    1
    35     8    33    1
    36     9    34    1
    37    10    35    1
    38    17    36    1
    39    18    37    1
    40    19    38    1
    41    20    39    1
    42    23    40    1
    43    25    41    1
    44    26    42    1
    45    28    43    1
    46    29    44    1
@<TRIPOS>MOLECULE
mol95_2_22
 44 46 0 0 0
SMALL
USER_CHARGES
****
VDW energy = 111.89
@<TRIPOS>ATOM
   1 O1        0.4027     6.1580     2.7719  O.2     1  <O>11      -0.2687
   2 C1        0.6752     6.0132     3.9543  C.2     1  <O>11       0.2602
   3 N1       -0.1260     6.5700     4.9150  N.am    1  <O>11      -0.2301
   4 N2       -1.2360     7.2920     4.5490  N.am    1  <O>11      -0.2301
   5 C2       -1.1001     8.4105     3.7701  C.2     1  <O>11       0.2602
   6 O2       -2.0873     9.0516     3.4445  O.2     1  <O>11      -0.2687
   7 C3        0.2224     8.8350     3.3293  C.ar    1  <O>11       0.0400
   8 C4        1.0141     9.6546     4.1495  C.ar    1  <O>11      -0.0495
   9 C5        2.2789    10.0720     3.7202  C.ar    1  <O>11      -0.0592
  10 C6        2.7659     9.6727     2.4727  C.ar    1  <O>11      -0.0350
  11 C7        1.9784     8.8502     1.6591  C.ar    1  <O>11       0.1092
  12 S1        2.5958     8.3498     0.0879  S.O2    1  <O>11       0.0724
  13 O3        4.2517     8.4635     0.0801  O.2     1  <O>11      -0.1500
  14 O4        1.9679     9.3370    -1.0923  O.2     1  <O>11      -0.1500
  15 N3        2.1501     6.7871    -0.2070  N.pl3   1  <O>11      -0.2135
  16 C8        1.6815     6.4027    -1.5251  C.ar    1  <O>11       0.0831
  17 C9        0.3523     5.9870    -1.7114  C.ar    1  <O>11      -0.0365
  18 C10      -0.0947     5.6025    -2.9834  C.ar    1  <O>11      -0.0598
  19 C11       0.7769     5.6357    -4.0731  C.ar    1  <O>11      -0.0589
  20 C12       2.0978     6.0557    -3.8877  C.ar    1  <O>11      -0.0246
  21 C13       2.5533     6.4426    -2.6271  C.ar    1  <O>11       0.1456
  22 F1        3.8448     6.8624    -2.4473  F       1  <O>11      -0.2035
  23 C14       0.7174     8.4275     2.0780  C.ar    1  <O>11      -0.0229
  24 C15       1.8450     5.2530     4.3400  C.ar    1  <O>11       0.0410
  25 C16       1.7724     3.8878     4.6040  C.ar    1  <O>11      -0.0314
  26 C17       2.9287     3.2338     4.9905  C.ar    1  <O>11       0.0283
  27 N4        4.1270     3.8402     5.1204  N.ar    1  <O>11      -0.2632
  28 C18       4.2030     5.1535     4.8526  C.ar    1  <O>11       0.0283
  29 C19       3.0862     5.8888     4.4561  C.ar    1  <O>11      -0.0314
  30 H1        0.1010     6.4490     5.9020  H       1  <O>11       0.1731
  31 H2       -2.1619     6.9950     4.8570  H       1  <O>11       0.1731
  32 H3        2.2029     6.0911     0.5385  H       1  <O>11       0.1738
  33 H4        0.6616     9.9504     5.0732  H       1  <O>11       0.0625
  34 H5        2.8540    10.6770     4.3270  H       1  <O>11       0.0618
  35 H6        3.6977     9.9815     2.1544  H       1  <O>11       0.0637
  36 H7       -0.2970     5.9647    -0.9095  H       1  <O>11       0.0637
  37 H8       -1.0709     5.2941    -3.1144  H       1  <O>11       0.0618
  38 H9        0.4487     5.3521    -5.0095  H       1  <O>11       0.0618
  39 H10       2.7431     6.0797    -4.6926  H       1  <O>11       0.0647
  40 H11       0.1486     7.8168     1.4709  H       1  <O>11       0.0645
  41 H12       0.8800     3.3775     4.5138  H       1  <O>11       0.0640
  42 H13       2.8714     2.2230     5.1911  H       1  <O>11       0.0830
  43 H14       5.1128     5.6321     4.9425  H       1  <O>11       0.0830
  44 H15       3.1746     6.8960     4.2496  H       1  <O>11       0.0640
@<TRIPOS>BOND
     1     1     2    2
     2     2     3   am
     3     3     4    1
     4     4     5   am
     5     5     6    2
     6     5     7    1
     7     7     8   ar
     8     8     9   ar
     9     9    10   ar
    10    10    11   ar
    11    11    12    1
    12    12    13    2
    13    12    14    2
    14    12    15    1
    15    15    16    1
    16    16    17   ar
    17    17    18   ar
    18    18    19   ar
    19    19    20   ar
    20    20    21   ar
    21    16    21   ar
    22    21    22    1
    23    11    23   ar
    24     7    23   ar
    25     2    24    1
    26    24    25   ar
    27    25    26   ar
    28    26    27   ar
    29    27    28   ar
    30    28    29   ar
    31    24    29   ar
    32     3    30    1
    33     4    31    1
    34    15    32    1
    35     8    33    1
    36     9    34    1
    37    10    35    1
    38    17    36    1
    39    18    37    1
    40    19    38    1
    41    20    39    1
    42    23    40    1
    43    25    41    1
    44    26    42    1
    45    28    43    1
    46    29    44    1
@<TRIPOS>MOLECULE
mol95_2_23
 44 46 0 0 0
SMALL
USER_CHARGES
****
VDW energy = 111.97
@<TRIPOS>ATOM
   1 O1        0.4027     6.1580     2.7719  O.2     1  <O>11      -0.2687
   2 C1        0.6752     6.0132     3.9543  C.2     1  <O>11       0.2602
   3 N1       -0.1260     6.5700     4.9150  N.am    1  <O>11      -0.2301
   4 N2       -1.2360     7.2920     4.5490  N.am    1  <O>11      -0.2301
   5 C2       -2.2312     6.6968     3.8200  C.2     1  <O>11       0.2602
   6 O2       -2.1316     5.5239     3.4942  O.2     1  <O>11      -0.2687
   7 C3       -3.4084     7.4631     3.4325  C.ar    1  <O>11       0.0400
   8 C4       -4.5019     7.5737     4.3061  C.ar    1  <O>11      -0.0495
   9 C5       -5.6371     8.2995     3.9283  C.ar    1  <O>11      -0.0592
  10 C6       -5.6895     8.9239     2.6792  C.ar    1  <O>11      -0.0350
  11 C7       -4.5961     8.8185     1.8120  C.ar    1  <O>11       0.1092
  12 S1       -4.6668     9.6064     0.2390  S.O2    1  <O>11       0.0724
  13 O3       -5.7885    10.8292     0.2802  O.2     1  <O>11      -0.1500
  14 O4       -5.1026     8.4946    -0.9167  O.2     1  <O>11      -0.1500
  15 N3       -3.1838    10.2322    -0.1308  N.pl3   1  <O>11      -0.2135
  16 C8       -2.6555    10.1004    -1.4756  C.ar    1  <O>11       0.0831
  17 C9       -3.3387    10.6680    -2.5643  C.ar    1  <O>11      -0.0365
  18 C10      -2.8338    10.5273    -3.8647  C.ar    1  <O>11      -0.0598
  19 C11      -1.6466     9.8271    -4.0844  C.ar    1  <O>11      -0.0589
  20 C12      -0.9641     9.2681    -2.9994  C.ar    1  <O>11      -0.0246
  21 C13      -1.4557     9.4034    -1.7008  C.ar    1  <O>11       0.1456
  22 F1       -0.7824     8.8633    -0.6371  F       1  <O>11      -0.2035
  23 C14      -3.4597     8.0989     2.1794  C.ar    1  <O>11      -0.0229
  24 C15       1.8450     5.2530     4.3400  C.ar    1  <O>11       0.0410
  25 C16       1.7724     3.8878     4.6040  C.ar    1  <O>11      -0.0314
  26 C17       2.9287     3.2338     4.9905  C.ar    1  <O>11       0.0283
  27 N4        4.1270     3.8402     5.1204  N.ar    1  <O>11      -0.2632
  28 C18       4.2030     5.1535     4.8526  C.ar    1  <O>11       0.0283
  29 C19       3.0862     5.8888     4.4561  C.ar    1  <O>11      -0.0314
  30 H1        0.1010     6.4490     5.9020  H       1  <O>11       0.1731
  31 H2       -1.3194     8.2716     4.8204  H       1  <O>11       0.1731
  32 H3       -2.6376    10.7111     0.5870  H       1  <O>11       0.1738
  33 H4       -4.4682     7.1177     5.2312  H       1  <O>11       0.0625
  34 H5       -6.4384     8.3739     4.5743  H       1  <O>11       0.0618
  35 H6       -6.5270     9.4579     2.3987  H       1  <O>11       0.0637
  36 H7       -4.2148    11.1901    -2.4062  H       1  <O>11       0.0637
  37 H8       -3.3414    10.9426    -4.6616  H       1  <O>11       0.0618
  38 H9       -1.2748     9.7226    -5.0414  H       1  <O>11       0.0618
  39 H10      -0.0867     8.7495    -3.1611  H       1  <O>11       0.0647
  40 H11      -2.6579     8.0330     1.5330  H       1  <O>11       0.0645
  41 H12       0.8800     3.3775     4.5138  H       1  <O>11       0.0640
  42 H13       2.8714     2.2230     5.1911  H       1  <O>11       0.0830
  43 H14       5.1128     5.6321     4.9425  H       1  <O>11       0.0830
  44 H15       3.1746     6.8960     4.2496  H       1  <O>11       0.0640
@<TRIPOS>BOND
     1     1     2    2
     2     2     3   am
     3     3     4    1
     4     4     5   am
     5     5     6    2
     6     5     7    1
     7     7     8   ar
     8     8     9   ar
     9     9    10   ar
    10    10    11   ar
    11    11    12    1
    12    12    13    2
    13    12    14    2
    14    12    15    1
    15    15    16    1
    16    16    17   ar
    17    17    18   ar
    18    18    19   ar
    19    19    20   ar
    20    20    21   ar
    21    16    21   ar
    22    21    22    1
    23    11    23   ar
    24     7    23   ar
    25     2    24    1
    26    24    25   ar
    27    25    26   ar
    28    26    27   ar
    29    27    28   ar
    30    28    29   ar
    31    24    29   ar
    32     3    30    1
    33     4    31    1
    34    15    32    1
    35     8    33    1
    36     9    34    1
    37    10    35    1
    38    17    36    1
    39    18    37    1
    40    19    38    1
    41    20    39    1
    42    23    40    1
    43    25    41    1
    44    26    42    1
    45    28    43    1
    46    29    44    1
@<TRIPOS>MOLECULE
mol95_2_24
 44 46 0 0 0
SMALL
USER_CHARGES
****
VDW energy = 112.91
@<TRIPOS>ATOM
   1 O1        0.4027     6.1580     2.7719  O.2     1  <O>11      -0.2687
   2 C1        0.6752     6.0132     3.9543  C.2     1  <O>11       0.2602
   3 N1       -0.1260     6.5700     4.9150  N.am    1  <O>11      -0.2301
   4 N2       -1.2360     7.2920     4.5490  N.am    1  <O>11      -0.2301
   5 C2       -2.0718     7.7980     5.5090  C.2     1  <O>11       0.2602
   6 O2       -3.0581     8.4403     5.1830  O.2     1  <O>11      -0.2687
   7 C3       -1.7838     7.5705     6.9192  C.ar    1  <O>11       0.0400
   8 C4       -2.2261     6.3986     7.5533  C.ar    1  <O>11      -0.0495
   9 C5       -1.9599     6.1865     8.9106  C.ar    1  <O>11      -0.0592
  10 C6       -1.2475     7.1384     9.6450  C.ar    1  <O>11      -0.0350
  11 C7       -0.8014     8.3030     9.0100  C.ar    1  <O>11       0.1092
  12 S1        0.0954     9.4997     9.9394  S.O2    1  <O>11       0.0724
  13 O3        0.7645     8.7776    11.2758  O.2     1  <O>11      -0.1500
  14 O4       -0.9357    10.7101    10.4225  O.2     1  <O>11      -0.1500
  15 N3        1.2947    10.1400     9.0015  N.pl3   1  <O>11      -0.2135
  16 C8        1.5583    11.5663     9.0346  C.ar    1  <O>11       0.0831
  17 C9        1.3273    12.3563     7.8957  C.ar    1  <O>11      -0.0365
  18 C10       1.5961    13.7319     7.9254  C.ar    1  <O>11      -0.0598
  19 C11       2.0895    14.3255     9.0884  C.ar    1  <O>11      -0.0589
  20 C12       2.3129    13.5394    10.2232  C.ar    1  <O>11      -0.0246
  21 C13       2.0472    12.1700    10.2061  C.ar    1  <O>11       0.1456
  22 F1        2.2576    11.4016    11.3205  F       1  <O>11      -0.2035
  23 C14      -1.0601     8.5232     7.6577  C.ar    1  <O>11      -0.0229
  24 C15       1.8450     5.2530     4.3400  C.ar    1  <O>11       0.0410
  25 C16       2.6824     4.6726     3.3910  C.ar    1  <O>11      -0.0314
  26 C17       3.7684     3.9406     3.8370  C.ar    1  <O>11       0.0283
  27 N4        4.0690     3.7610     5.1400  N.ar    1  <O>11      -0.2632
  28 C18       3.2716     4.3313     6.0570  C.ar    1  <O>11       0.0283
  29 C19       2.1566     5.0863     5.6940  C.ar    1  <O>11      -0.0314
  30 H1        0.1010     6.4490     5.9020  H       1  <O>11       0.1731
  31 H2       -1.4378     7.4518     3.5620  H       1  <O>11       0.1731
  32 H3        1.8502     9.5326     8.3970  H       1  <O>11       0.1738
  33 H4       -2.7500     5.6902     7.0158  H       1  <O>11       0.0625
  34 H5       -2.2908     5.3242     9.3709  H       1  <O>11       0.0618
  35 H6       -1.0522     6.9839    10.6466  H       1  <O>11       0.0637
  36 H7        0.9588    11.9225     7.0348  H       1  <O>11       0.0637
  37 H8        1.4287    14.3073     7.0851  H       1  <O>11       0.0618
  38 H9        2.2882    15.3379     9.1107  H       1  <O>11       0.0618
  39 H10       2.6784    13.9773    11.0831  H       1  <O>11       0.0647
  40 H11      -0.7212     9.3837     7.1998  H       1  <O>11       0.0645
  41 H12       2.4980     4.7856     2.3819  H       1  <O>11       0.0640
  42 H13       4.3845     3.5067     3.1318  H       1  <O>11       0.0830
  43 H14       3.4896     4.2077     7.0581  H       1  <O>11       0.0830
  44 H15       1.5646     5.5196     6.4198  H       1  <O>11       0.0640
@<TRIPOS>BOND
     1     1     2    2
     2     2     3   am
     3     3     4    1
     4     4     5   am
     5     5     6    2
     6     5     7    1
     7     7     8   ar
     8     8     9   ar
     9     9    10   ar
    10    10    11   ar
    11    11    12    1
    12    12    13    2
    13    12    14    2
    14    12    15    1
    15    15    16    1
    16    16    17   ar
    17    17    18   ar
    18    18    19   ar
    19    19    20   ar
    20    20    21   ar
    21    16    21   ar
    22    21    22    1
    23    11    23   ar
    24     7    23   ar
    25     2    24    1
    26    24    25   ar
    27    25    26   ar
    28    26    27   ar
    29    27    28   ar
    30    28    29   ar
    31    24    29   ar
    32     3    30    1
    33     4    31    1
    34    15    32    1
    35     8    33    1
    36     9    34    1
    37    10    35    1
    38    17    36    1
    39    18    37    1
    40    19    38    1
    41    20    39    1
    42    23    40    1
    43    25    41    1
    44    26    42    1
    45    28    43    1
    46    29    44    1
@<TRIPOS>MOLECULE
mol95_2_25
 44 46 0 0 0
SMALL
USER_CHARGES
****
VDW energy = 115.01
@<TRIPOS>ATOM
   1 O1        0.4027     6.1580     2.7719  O.2     1  <O>11      -0.2687
   2 C1        0.6752     6.0132     3.9543  C.2     1  <O>11       0.2602
   3 N1       -0.1260     6.5700     4.9150  N.am    1  <O>11      -0.2301
   4 N2       -1.2360     7.2920     4.5490  N.am    1  <O>11      -0.2301
   5 C2       -2.2312     6.6968     3.8200  C.2     1  <O>11       0.2602
   6 O2       -2.1316     5.5239     3.4942  O.2     1  <O>11      -0.2687
   7 C3       -3.4084     7.4631     3.4325  C.ar    1  <O>11       0.0400
   8 C4       -4.5019     7.5737     4.3061  C.ar    1  <O>11      -0.0495
   9 C5       -5.6371     8.2995     3.9283  C.ar    1  <O>11      -0.0592
  10 C6       -5.6895     8.9239     2.6792  C.ar    1  <O>11      -0.0350
  11 C7       -4.5961     8.8185     1.8120  C.ar    1  <O>11       0.1092
  12 S1       -4.6668     9.6064     0.2390  S.O2    1  <O>11       0.0724
  13 O3       -5.7885    10.8292     0.2802  O.2     1  <O>11      -0.1500
  14 O4       -5.1026     8.4946    -0.9167  O.2     1  <O>11      -0.1500
  15 N3       -3.1838    10.2322    -0.1308  N.pl3   1  <O>11      -0.2135
  16 C8       -2.0309     9.3570    -0.2291  C.ar    1  <O>11       0.0831
  17 C9       -2.0045     8.3239    -1.1811  C.ar    1  <O>11      -0.0365
  18 C10      -0.8954     7.4703    -1.2649  C.ar    1  <O>11      -0.0598
  19 C11       0.1913     7.6455    -0.4066  C.ar    1  <O>11      -0.0589
  20 C12       0.1666     8.6781     0.5362  C.ar    1  <O>11      -0.0246
  21 C13      -0.9305     9.5349     0.6275  C.ar    1  <O>11       0.1456
  22 F1       -0.9508    10.5518     1.5450  F       1  <O>11      -0.2035
  23 C14      -3.4597     8.0989     2.1794  C.ar    1  <O>11      -0.0229
  24 C15       1.8450     5.2530     4.3400  C.ar    1  <O>11       0.0410
  25 C16       1.7724     3.8878     4.6040  C.ar    1  <O>11      -0.0314
  26 C17       2.9287     3.2338     4.9905  C.ar    1  <O>11       0.0283
  27 N4        4.1270     3.8402     5.1204  N.ar    1  <O>11      -0.2632
  28 C18       4.2030     5.1535     4.8526  C.ar    1  <O>11       0.0283
  29 C19       3.0862     5.8888     4.4561  C.ar    1  <O>11      -0.0314
  30 H1        0.1010     6.4490     5.9020  H       1  <O>11       0.1731
  31 H2       -1.3194     8.2716     4.8204  H       1  <O>11       0.1731
  32 H3       -3.0774    11.2355    -0.2893  H       1  <O>11       0.1738
  33 H4       -4.4682     7.1177     5.2312  H       1  <O>11       0.0625
  34 H5       -6.4384     8.3739     4.5743  H       1  <O>11       0.0618
  35 H6       -6.5270     9.4579     2.3987  H       1  <O>11       0.0637
  36 H7       -2.8039     8.1930    -1.8205  H       1  <O>11       0.0637
  37 H8       -0.8824     6.7104    -1.9631  H       1  <O>11       0.0618
  38 H9        1.0076     7.0172    -0.4673  H       1  <O>11       0.0618
  39 H10       0.9693     8.8078     1.1717  H       1  <O>11       0.0647
  40 H11      -2.6579     8.0330     1.5330  H       1  <O>11       0.0645
  41 H12       0.8800     3.3775     4.5138  H       1  <O>11       0.0640
  42 H13       2.8714     2.2230     5.1911  H       1  <O>11       0.0830
  43 H14       5.1128     5.6321     4.9425  H       1  <O>11       0.0830
  44 H15       3.1746     6.8960     4.2496  H       1  <O>11       0.0640
@<TRIPOS>BOND
     1     1     2    2
     2     2     3   am
     3     3     4    1
     4     4     5   am
     5     5     6    2
     6     5     7    1
     7     7     8   ar
     8     8     9   ar
     9     9    10   ar
    10    10    11   ar
    11    11    12    1
    12    12    13    2
    13    12    14    2
    14    12    15    1
    15    15    16    1
    16    16    17   ar
    17    17    18   ar
    18    18    19   ar
    19    19    20   ar
    20    20    21   ar
    21    16    21   ar
    22    21    22    1
    23    11    23   ar
    24     7    23   ar
    25     2    24    1
    26    24    25   ar
    27    25    26   ar
    28    26    27   ar
    29    27    28   ar
    30    28    29   ar
    31    24    29   ar
    32     3    30    1
    33     4    31    1
    34    15    32    1
    35     8    33    1
    36     9    34    1
    37    10    35    1
    38    17    36    1
    39    18    37    1
    40    19    38    1
    41    20    39    1
    42    23    40    1
    43    25    41    1
    44    26    42    1
    45    28    43    1
    46    29    44    1
@<TRIPOS>MOLECULE
mol95_2_26
 44 46 0 0 0
SMALL
USER_CHARGES
****
VDW energy = 126.04
@<TRIPOS>ATOM
   1 O1        0.4027     6.1580     2.7719  O.2     1  <O>11      -0.2687
   2 C1        0.6752     6.0132     3.9543  C.2     1  <O>11       0.2602
   3 N1       -0.1260     6.5700     4.9150  N.am    1  <O>11      -0.2301
   4 N2       -1.2360     7.2920     4.5490  N.am    1  <O>11      -0.2301
   5 C2       -2.0718     7.7980     5.5090  C.2     1  <O>11       0.2602
   6 O2       -1.8310     7.6065     6.6909  O.2     1  <O>11      -0.2687
   7 C3       -3.2488     8.5640     5.1200  C.ar    1  <O>11       0.0400
   8 C4       -4.4750     7.9169     4.8993  C.ar    1  <O>11      -0.0495
   9 C5       -5.6019     8.6516     4.5137  C.ar    1  <O>11      -0.0592
  10 C6       -5.5163    10.0368     4.3493  C.ar    1  <O>11      -0.0350
  11 C7       -4.2951    10.6813     4.5762  C.ar    1  <O>11       0.1092
  12 S1       -4.1918    12.4266     4.3675  S.O2    1  <O>11       0.0724
  13 O3       -5.7066    13.0923     4.4991  O.2     1  <O>11      -0.1500
  14 O4       -3.5663    12.7674     2.8660  O.2     1  <O>11      -0.1500
  15 N3       -3.2078    13.0634     5.5311  N.pl3   1  <O>11      -0.2135
  16 C8       -1.8234    12.6391     5.6225  C.ar    1  <O>11       0.0831
  17 C9       -1.4699    11.5426     6.4268  C.ar    1  <O>11      -0.0365
  18 C10      -0.1296    11.1431     6.5248  C.ar    1  <O>11      -0.0598
  19 C11       0.8605    11.8290     5.8194  C.ar    1  <O>11      -0.0589
  20 C12       0.5065    12.9161     5.0142  C.ar    1  <O>11      -0.0246
  21 C13      -0.8240    13.3216     4.9072  C.ar    1  <O>11       0.1456
  22 F1       -1.1718    14.3810     4.1115  F       1  <O>11      -0.2035
  23 C14      -3.1667     9.9587     4.9621  C.ar    1  <O>11      -0.0229
  24 C15       1.8450     5.2530     4.3400  C.ar    1  <O>11       0.0410
  25 C16       1.7724     3.8878     4.6040  C.ar    1  <O>11      -0.0314
  26 C17       2.9287     3.2338     4.9905  C.ar    1  <O>11       0.0283
  27 N4        4.1270     3.8402     5.1204  N.ar    1  <O>11      -0.2632
  28 C18       4.2030     5.1535     4.8526  C.ar    1  <O>11       0.0283
  29 C19       3.0862     5.8888     4.4561  C.ar    1  <O>11      -0.0314
  30 H1        0.1010     6.4490     5.9020  H       1  <O>11       0.1731
  31 H2       -1.4378     7.4518     3.5620  H       1  <O>11       0.1731
  32 H3       -3.5737    13.7550     6.1876  H       1  <O>11       0.1738
  33 H4       -4.5457     6.8947     5.0220  H       1  <O>11       0.0625
  34 H5       -6.4992     8.1689     4.3501  H       1  <O>11       0.0618
  35 H6       -6.3463    10.5794     4.0632  H       1  <O>11       0.0637
  36 H7       -2.1989    11.0299     6.9470  H       1  <O>11       0.0637
  37 H8        0.1257    10.3395     7.1201  H       1  <O>11       0.0618
  38 H9        1.8473    11.5358     5.8917  H       1  <O>11       0.0618
  39 H10       1.2380    13.4243     4.4930  H       1  <O>11       0.0647
  40 H11      -2.2732    10.4465     5.1315  H       1  <O>11       0.0645
  41 H12       0.8800     3.3775     4.5138  H       1  <O>11       0.0640
  42 H13       2.8714     2.2230     5.1911  H       1  <O>11       0.0830
  43 H14       5.1128     5.6321     4.9425  H       1  <O>11       0.0830
  44 H15       3.1746     6.8960     4.2496  H       1  <O>11       0.0640
@<TRIPOS>BOND
     1     1     2    2
     2     2     3   am
     3     3     4    1
     4     4     5   am
     5     5     6    2
     6     5     7    1
     7     7     8   ar
     8     8     9   ar
     9     9    10   ar
    10    10    11   ar
    11    11    12    1
    12    12    13    2
    13    12    14    2
    14    12    15    1
    15    15    16    1
    16    16    17   ar
    17    17    18   ar
    18    18    19   ar
    19    19    20   ar
    20    20    21   ar
    21    16    21   ar
    22    21    22    1
    23    11    23   ar
    24     7    23   ar
    25     2    24    1
    26    24    25   ar
    27    25    26   ar
    28    26    27   ar
    29    27    28   ar
    30    28    29   ar
    31    24    29   ar
    32     3    30    1
    33     4    31    1
    34    15    32    1
    35     8    33    1
    36     9    34    1
    37    10    35    1
    38    17    36    1
    39    18    37    1
    40    19    38    1
    41    20    39    1
    42    23    40    1
    43    25    41    1
    44    26    42    1
    45    28    43    1
    46    29    44    1
@<TRIPOS>MOLECULE
mol95_2_27
 44 46 0 0 0
SMALL
USER_CHARGES
****
VDW energy = 126.16
@<TRIPOS>ATOM
   1 O1        0.4027     6.1580     2.7719  O.2     1  <O>11      -0.2687
   2 C1        0.6752     6.0132     3.9543  C.2     1  <O>11       0.2602
   3 N1       -0.1260     6.5700     4.9150  N.am    1  <O>11      -0.2301
   4 N2       -1.2360     7.2920     4.5490  N.am    1  <O>11      -0.2301
   5 C2       -2.0718     7.7980     5.5090  C.2     1  <O>11       0.2602
   6 O2       -1.8310     7.6065     6.6909  O.2     1  <O>11      -0.2687
   7 C3       -3.2488     8.5640     5.1200  C.ar    1  <O>11       0.0400
   8 C4       -3.1497     9.9438     4.8806  C.ar    1  <O>11      -0.0495
   9 C5       -4.2828    10.6811     4.5192  C.ar    1  <O>11      -0.0592
  10 C6       -5.5221    10.0483     4.3895  C.ar    1  <O>11      -0.0350
  11 C7       -5.6181     8.6716     4.6218  C.ar    1  <O>11       0.1092
  12 S1       -7.1816     7.8786     4.4576  S.O2    1  <O>11       0.0724
  13 O3       -8.1697     8.7944     3.4880  O.2     1  <O>11      -0.1500
  14 O4       -7.8775     7.7134     5.9577  O.2     1  <O>11      -0.1500
  15 N3       -6.9744     6.3870     3.7797  N.pl3   1  <O>11      -0.2135
  16 C8       -6.1475     5.3968     4.4436  C.ar    1  <O>11       0.0831
  17 C9       -4.7721     5.3212     4.1665  C.ar    1  <O>11      -0.0365
  18 C10      -3.9775     4.3544     4.7986  C.ar    1  <O>11      -0.0598
  19 C11      -4.5474     3.4649     5.7109  C.ar    1  <O>11      -0.0589
  20 C12      -5.9152     3.5453     5.9906  C.ar    1  <O>11      -0.0246
  21 C13      -6.7154     4.5044     5.3695  C.ar    1  <O>11       0.1456
  22 F1       -8.0535     4.5888     5.6502  F       1  <O>11      -0.2035
  23 C14      -4.4949     7.9276     4.9810  C.ar    1  <O>11      -0.0229
  24 C15       1.8450     5.2530     4.3400  C.ar    1  <O>11       0.0410
  25 C16       1.7724     3.8878     4.6040  C.ar    1  <O>11      -0.0314
  26 C17       2.9287     3.2338     4.9905  C.ar    1  <O>11       0.0283
  27 N4        4.1270     3.8402     5.1204  N.ar    1  <O>11      -0.2632
  28 C18       4.2030     5.1535     4.8526  C.ar    1  <O>11       0.0283
  29 C19       3.0862     5.8888     4.4561  C.ar    1  <O>11      -0.0314
  30 H1        0.1010     6.4490     5.9020  H       1  <O>11       0.1731
  31 H2       -1.4378     7.4518     3.5620  H       1  <O>11       0.1731
  32 H3       -7.4270     6.1614     2.8924  H       1  <O>11       0.1738
  33 H4       -2.2369    10.4165     4.9716  H       1  <O>11       0.0625
  34 H5       -4.2031    11.6956     4.3479  H       1  <O>11       0.0618
  35 H6       -6.3588    10.5914     4.1248  H       1  <O>11       0.0637
  36 H7       -4.3455     5.9793     3.4958  H       1  <O>11       0.0637
  37 H8       -2.9684     4.3002     4.5888  H       1  <O>11       0.0618
  38 H9       -3.9632     2.7526     6.1760  H       1  <O>11       0.0618
  39 H10      -6.3375     2.8875     6.6644  H       1  <O>11       0.0647
  40 H11      -4.5779     6.9120     5.1445  H       1  <O>11       0.0645
  41 H12       0.8800     3.3775     4.5138  H       1  <O>11       0.0640
  42 H13       2.8714     2.2230     5.1911  H       1  <O>11       0.0830
  43 H14       5.1128     5.6321     4.9425  H       1  <O>11       0.0830
  44 H15       3.1746     6.8960     4.2496  H       1  <O>11       0.0640
@<TRIPOS>BOND
     1     1     2    2
     2     2     3   am
     3     3     4    1
     4     4     5   am
     5     5     6    2
     6     5     7    1
     7     7     8   ar
     8     8     9   ar
     9     9    10   ar
    10    10    11   ar
    11    11    12    1
    12    12    13    2
    13    12    14    2
    14    12    15    1
    15    15    16    1
    16    16    17   ar
    17    17    18   ar
    18    18    19   ar
    19    19    20   ar
    20    20    21   ar
    21    16    21   ar
    22    21    22    1
    23    11    23   ar
    24     7    23   ar
    25     2    24    1
    26    24    25   ar
    27    25    26   ar
    28    26    27   ar
    29    27    28   ar
    30    28    29   ar
    31    24    29   ar
    32     3    30    1
    33     4    31    1
    34    15    32    1
    35     8    33    1
    36     9    34    1
    37    10    35    1
    38    17    36    1
    39    18    37    1
    40    19    38    1
    41    20    39    1
    42    23    40    1
    43    25    41    1
    44    26    42    1
    45    28    43    1
    46    29    44    1
@<TRIPOS>MOLECULE
mol95_2_28
 44 46 0 0 0
SMALL
USER_CHARGES
****
VDW energy = 128.76
@<TRIPOS>ATOM
   1 O1        0.4027     6.1580     2.7719  O.2     1  <O>11      -0.2687
   2 C1        0.6752     6.0132     3.9543  C.2     1  <O>11       0.2602
   3 N1       -0.1260     6.5700     4.9150  N.am    1  <O>11      -0.2301
   4 N2       -1.2360     7.2920     4.5490  N.am    1  <O>11      -0.2301
   5 C2       -2.0718     7.7980     5.5090  C.2     1  <O>11       0.2602
   6 O2       -1.8310     7.6065     6.6909  O.2     1  <O>11      -0.2687
   7 C3       -3.2488     8.5640     5.1200  C.ar    1  <O>11       0.0400
   8 C4       -3.1497     9.9438     4.8806  C.ar    1  <O>11      -0.0495
   9 C5       -4.2828    10.6811     4.5192  C.ar    1  <O>11      -0.0592
  10 C6       -5.5221    10.0483     4.3895  C.ar    1  <O>11      -0.0350
  11 C7       -5.6181     8.6716     4.6218  C.ar    1  <O>11       0.1092
  12 S1       -7.1816     7.8786     4.4576  S.O2    1  <O>11       0.0724
  13 O3       -8.1697     8.7944     3.4880  O.2     1  <O>11      -0.1500
  14 O4       -7.8775     7.7134     5.9577  O.2     1  <O>11      -0.1500
  15 N3       -6.9744     6.3870     3.7797  N.pl3   1  <O>11      -0.2135
  16 C8       -6.1475     5.3968     4.4436  C.ar    1  <O>11       0.0831
  17 C9       -4.7721     5.3212     4.1665  C.ar    1  <O>11      -0.0365
  18 C10      -3.9775     4.3544     4.7986  C.ar    1  <O>11      -0.0598
  19 C11      -4.5474     3.4649     5.7109  C.ar    1  <O>11      -0.0589
  20 C12      -5.9152     3.5453     5.9906  C.ar    1  <O>11      -0.0246
  21 C13      -6.7154     4.5044     5.3695  C.ar    1  <O>11       0.1456
  22 F1       -8.0535     4.5888     5.6502  F       1  <O>11      -0.2035
  23 C14      -4.4949     7.9276     4.9810  C.ar    1  <O>11      -0.0229
  24 C15       1.8450     5.2530     4.3400  C.ar    1  <O>11       0.0410
  25 C16       1.8256     4.3899     5.4324  C.ar    1  <O>11      -0.0314
  26 C17       2.9898     3.7152     5.7540  C.ar    1  <O>11       0.0283
  27 N4        4.1439     3.8388     5.0661  N.ar    1  <O>11      -0.2632
  28 C18       4.1617     4.6593     4.0037  C.ar    1  <O>11       0.0283
  29 C19       3.0324     5.3766     3.6098  C.ar    1  <O>11      -0.0314
  30 H1        0.1010     6.4490     5.9020  H       1  <O>11       0.1731
  31 H2       -1.4378     7.4518     3.5620  H       1  <O>11       0.1731
  32 H3       -7.4270     6.1614     2.8924  H       1  <O>11       0.1738
  33 H4       -2.2369    10.4165     4.9716  H       1  <O>11       0.0625
  34 H5       -4.2031    11.6956     4.3479  H       1  <O>11       0.0618
  35 H6       -6.3588    10.5914     4.1248  H       1  <O>11       0.0637
  36 H7       -4.3455     5.9793     3.4958  H       1  <O>11       0.0637
  37 H8       -2.9684     4.3002     4.5888  H       1  <O>11       0.0618
  38 H9       -3.9632     2.7526     6.1760  H       1  <O>11       0.0618
  39 H10      -6.3375     2.8875     6.6644  H       1  <O>11       0.0647
  40 H11      -4.5779     6.9120     5.1445  H       1  <O>11       0.0645
  41 H12       0.9657     4.2570     5.9874  H       1  <O>11       0.0640
  42 H13       2.9746     3.0802     6.5674  H       1  <O>11       0.0830
  43 H14       5.0350     4.7621     3.4636  H       1  <O>11       0.0830
  44 H15       3.0721     5.9949     2.7846  H       1  <O>11       0.0640
@<TRIPOS>BOND
     1     1     2    2
     2     2     3   am
     3     3     4    1
     4     4     5   am
     5     5     6    2
     6     5     7    1
     7     7     8   ar
     8     8     9   ar
     9     9    10   ar
    10    10    11   ar
    11    11    12    1
    12    12    13    2
    13    12    14    2
    14    12    15    1
    15    15    16    1
    16    16    17   ar
    17    17    18   ar
    18    18    19   ar
    19    19    20   ar
    20    20    21   ar
    21    16    21   ar
    22    21    22    1
    23    11    23   ar
    24     7    23   ar
    25     2    24    1
    26    24    25   ar
    27    25    26   ar
    28    26    27   ar
    29    27    28   ar
    30    28    29   ar
    31    24    29   ar
    32     3    30    1
    33     4    31    1
    34    15    32    1
    35     8    33    1
    36     9    34    1
    37    10    35    1
    38    17    36    1
    39    18    37    1
    40    19    38    1
    41    20    39    1
    42    23    40    1
    43    25    41    1
    44    26    42    1
    45    28    43    1
    46    29    44    1
@<TRIPOS>MOLECULE
mol95_2_29
 44 46 0 0 0
SMALL
USER_CHARGES
****
VDW energy = 128.81
@<TRIPOS>ATOM
   1 O1        0.4027     6.1580     2.7719  O.2     1  <O>11      -0.2687
   2 C1        0.6752     6.0132     3.9543  C.2     1  <O>11       0.2602
   3 N1       -0.1260     6.5700     4.9150  N.am    1  <O>11      -0.2301
   4 N2       -1.2360     7.2920     4.5490  N.am    1  <O>11      -0.2301
   5 C2       -2.0718     7.7980     5.5090  C.2     1  <O>11       0.2602
   6 O2       -1.8310     7.6065     6.6909  O.2     1  <O>11      -0.2687
   7 C3       -3.2488     8.5640     5.1200  C.ar    1  <O>11       0.0400
   8 C4       -3.1497     9.9438     4.8806  C.ar    1  <O>11      -0.0495
   9 C5       -4.2828    10.6811     4.5192  C.ar    1  <O>11      -0.0592
  10 C6       -5.5221    10.0483     4.3895  C.ar    1  <O>11      -0.0350
  11 C7       -5.6181     8.6716     4.6218  C.ar    1  <O>11       0.1092
  12 S1       -7.1816     7.8786     4.4576  S.O2    1  <O>11       0.0724
  13 O3       -8.1697     8.7944     3.4880  O.2     1  <O>11      -0.1500
  14 O4       -7.8775     7.7134     5.9577  O.2     1  <O>11      -0.1500
  15 N3       -6.9744     6.3870     3.7797  N.pl3   1  <O>11      -0.2135
  16 C8       -6.1475     5.3968     4.4436  C.ar    1  <O>11       0.0831
  17 C9       -4.7721     5.3212     4.1665  C.ar    1  <O>11      -0.0365
  18 C10      -3.9775     4.3544     4.7986  C.ar    1  <O>11      -0.0598
  19 C11      -4.5474     3.4649     5.7109  C.ar    1  <O>11      -0.0589
  20 C12      -5.9152     3.5453     5.9906  C.ar    1  <O>11      -0.0246
  21 C13      -6.7154     4.5044     5.3695  C.ar    1  <O>11       0.1456
  22 F1       -8.0535     4.5888     5.6502  F       1  <O>11      -0.2035
  23 C14      -4.4949     7.9276     4.9810  C.ar    1  <O>11      -0.0229
  24 C15       1.8450     5.2530     4.3400  C.ar    1  <O>11       0.0410
  25 C16       2.6599     5.6548     5.3951  C.ar    1  <O>11      -0.0314
  26 C17       3.7741     4.8893     5.6895  C.ar    1  <O>11       0.0283
  27 N4        4.1151     3.7699     5.0178  N.ar    1  <O>11      -0.2632
  28 C18       3.3234     3.3721     4.0093  C.ar    1  <O>11       0.0283
  29 C19       2.1806     4.0846     3.6468  C.ar    1  <O>11      -0.0314
  30 H1        0.1010     6.4490     5.9020  H       1  <O>11       0.1731
  31 H2       -1.4378     7.4518     3.5620  H       1  <O>11       0.1731
  32 H3       -7.4270     6.1614     2.8924  H       1  <O>11       0.1738
  33 H4       -2.2369    10.4165     4.9716  H       1  <O>11       0.0625
  34 H5       -4.2031    11.6956     4.3479  H       1  <O>11       0.0618
  35 H6       -6.3588    10.5914     4.1248  H       1  <O>11       0.0637
  36 H7       -4.3455     5.9793     3.4958  H       1  <O>11       0.0637
  37 H8       -2.9684     4.3002     4.5888  H       1  <O>11       0.0618
  38 H9       -3.9632     2.7526     6.1760  H       1  <O>11       0.0618
  39 H10      -6.3375     2.8875     6.6644  H       1  <O>11       0.0647
  40 H11      -4.5779     6.9120     5.1445  H       1  <O>11       0.0645
  41 H12       2.4386     6.5010     5.9429  H       1  <O>11       0.0640
  42 H13       4.3797     5.1922     6.4683  H       1  <O>11       0.0830
  43 H14       3.5671     2.5155     3.4879  H       1  <O>11       0.0830
  44 H15       1.5858     3.7521     2.8718  H       1  <O>11       0.0640
@<TRIPOS>BOND
     1     1     2    2
     2     2     3   am
     3     3     4    1
     4     4     5   am
     5     5     6    2
     6     5     7    1
     7     7     8   ar
     8     8     9   ar
     9     9    10   ar
    10    10    11   ar
    11    11    12    1
    12    12    13    2
    13    12    14    2
    14    12    15    1
    15    15    16    1
    16    16    17   ar
    17    17    18   ar
    18    18    19   ar
    19    19    20   ar
    20    20    21   ar
    21    16    21   ar
    22    21    22    1
    23    11    23   ar
    24     7    23   ar
    25     2    24    1
    26    24    25   ar
    27    25    26   ar
    28    26    27   ar
    29    27    28   ar
    30    28    29   ar
    31    24    29   ar
    32     3    30    1
    33     4    31    1
    34    15    32    1
    35     8    33    1
    36     9    34    1
    37    10    35    1
    38    17    36    1
    39    18    37    1
    40    19    38    1
    41    20    39    1
    42    23    40    1
    43    25    41    1
    44    26    42    1
    45    28    43    1
    46    29    44    1
@<TRIPOS>MOLECULE
mol95_2_30
 44 46 0 0 0
SMALL
USER_CHARGES
****
VDW energy = 133.31
@<TRIPOS>ATOM
   1 O1        0.4027     6.1580     2.7719  O.2     1  <O>11      -0.2687
   2 C1        0.6752     6.0132     3.9543  C.2     1  <O>11       0.2602
   3 N1       -0.1260     6.5700     4.9150  N.am    1  <O>11      -0.2301
   4 N2       -1.2360     7.2920     4.5490  N.am    1  <O>11      -0.2301
   5 C2       -2.0718     7.7980     5.5090  C.2     1  <O>11       0.2602
   6 O2       -1.8310     7.6065     6.6909  O.2     1  <O>11      -0.2687
   7 C3       -3.2488     8.5640     5.1200  C.ar    1  <O>11       0.0400
   8 C4       -4.4750     7.9169     4.8993  C.ar    1  <O>11      -0.0495
   9 C5       -5.6019     8.6516     4.5137  C.ar    1  <O>11      -0.0592
  10 C6       -5.5163    10.0368     4.3493  C.ar    1  <O>11      -0.0350
  11 C7       -4.2951    10.6813     4.5762  C.ar    1  <O>11       0.1092
  12 S1       -4.1918    12.4266     4.3675  S.O2    1  <O>11       0.0724
  13 O3       -5.7066    13.0923     4.4991  O.2     1  <O>11      -0.1500
  14 O4       -3.5663    12.7674     2.8660  O.2     1  <O>11      -0.1500
  15 N3       -3.2078    13.0634     5.5311  N.pl3   1  <O>11      -0.2135
  16 C8       -1.8234    12.6391     5.6225  C.ar    1  <O>11       0.0831
  17 C9       -1.4699    11.5426     6.4268  C.ar    1  <O>11      -0.0365
  18 C10      -0.1296    11.1431     6.5248  C.ar    1  <O>11      -0.0598
  19 C11       0.8605    11.8290     5.8194  C.ar    1  <O>11      -0.0589
  20 C12       0.5065    12.9161     5.0142  C.ar    1  <O>11      -0.0246
  21 C13      -0.8240    13.3216     4.9072  C.ar    1  <O>11       0.1456
  22 F1       -1.1718    14.3810     4.1115  F       1  <O>11      -0.2035
  23 C14      -3.1667     9.9587     4.9621  C.ar    1  <O>11      -0.0229
  24 C15       1.8450     5.2530     4.3400  C.ar    1  <O>11       0.0410
  25 C16       2.6824     4.6726     3.3910  C.ar    1  <O>11      -0.0314
  26 C17       3.7684     3.9406     3.8370  C.ar    1  <O>11       0.0283
  27 N4        4.0690     3.7610     5.1400  N.ar    1  <O>11      -0.2632
  28 C18       3.2716     4.3313     6.0570  C.ar    1  <O>11       0.0283
  29 C19       2.1566     5.0863     5.6940  C.ar    1  <O>11      -0.0314
  30 H1        0.1010     6.4490     5.9020  H       1  <O>11       0.1731
  31 H2       -1.4378     7.4518     3.5620  H       1  <O>11       0.1731
  32 H3       -3.5737    13.7550     6.1876  H       1  <O>11       0.1738
  33 H4       -4.5457     6.8947     5.0220  H       1  <O>11       0.0625
  34 H5       -6.4992     8.1689     4.3501  H       1  <O>11       0.0618
  35 H6       -6.3463    10.5794     4.0632  H       1  <O>11       0.0637
  36 H7       -2.1989    11.0299     6.9470  H       1  <O>11       0.0637
  37 H8        0.1257    10.3395     7.1201  H       1  <O>11       0.0618
  38 H9        1.8473    11.5358     5.8917  H       1  <O>11       0.0618
  39 H10       1.2380    13.4243     4.4930  H       1  <O>11       0.0647
  40 H11      -2.2732    10.4465     5.1315  H       1  <O>11       0.0645
  41 H12       2.4980     4.7856     2.3819  H       1  <O>11       0.0640
  42 H13       4.3845     3.5067     3.1318  H       1  <O>11       0.0830
  43 H14       3.4896     4.2077     7.0581  H       1  <O>11       0.0830
  44 H15       1.5646     5.5196     6.4198  H       1  <O>11       0.0640
@<TRIPOS>BOND
     1     1     2    2
     2     2     3   am
     3     3     4    1
     4     4     5   am
     5     5     6    2
     6     5     7    1
     7     7     8   ar
     8     8     9   ar
     9     9    10   ar
    10    10    11   ar
    11    11    12    1
    12    12    13    2
    13    12    14    2
    14    12    15    1
    15    15    16    1
    16    16    17   ar
    17    17    18   ar
    18    18    19   ar
    19    19    20   ar
    20    20    21   ar
    21    16    21   ar
    22    21    22    1
    23    11    23   ar
    24     7    23   ar
    25     2    24    1
    26    24    25   ar
    27    25    26   ar
    28    26    27   ar
    29    27    28   ar
    30    28    29   ar
    31    24    29   ar
    32     3    30    1
    33     4    31    1
    34    15    32    1
    35     8    33    1
    36     9    34    1
    37    10    35    1
    38    17    36    1
    39    18    37    1
    40    19    38    1
    41    20    39    1
    42    23    40    1
    43    25    41    1
    44    26    42    1
    45    28    43    1
    46    29    44    1
