@<TRIPOS>MOLECULE
mol97_1_1
 49 52 0 0 0
SMALL
USER_CHARGES
****
VDW energy = 160.33
@<TRIPOS>ATOM
   1 O1        3.4420    -9.1855    -5.2979  O.2     1  <O>11      -0.2687
   2 C1        2.8552    -9.8129    -4.4288  C.2     1  <O>11       0.2601
   3 N1        3.5160   -10.1860    -3.2900  N.am    1  <O>11      -0.2301
   4 N2        4.8400    -9.8550    -3.1240  N.am    1  <O>11      -0.2301
   5 C2        5.4787   -10.1558    -1.9524  C.2     1  <O>11       0.2602
   6 O2        4.8729   -10.7193    -1.0534  O.2     1  <O>11      -0.2687
   7 C3        6.8817    -9.8058    -1.7764  C.ar    1  <O>11       0.0400
   8 C4        7.2404    -8.5589    -1.2368  C.ar    1  <O>11      -0.0495
   9 C5        8.5886    -8.2194    -1.0802  C.ar    1  <O>11      -0.0592
  10 C6        9.5893    -9.1199    -1.4556  C.ar    1  <O>11      -0.0350
  11 C7        9.2330   -10.3640    -1.9857  C.ar    1  <O>11       0.1094
  12 S1       10.4982   -11.4931    -2.4543  S.O2    1  <O>11       0.0747
  13 O3       11.9498   -10.9932    -1.8183  O.2     1  <O>11      -0.1498
  14 O4       10.6084   -11.5459    -4.1109  O.2     1  <O>11      -0.1498
  15 N3       10.1347   -12.9985    -1.8774  N.pl3   1  <O>11      -0.2024
  16 C8        9.9369   -14.1172    -2.7131  C.3     1  <O>11       0.0390
  17 C9        9.7004   -15.3052    -1.7703  C.3     1  <O>11      -0.0083
  18 C10       9.7230   -14.6489    -0.4299  C.ar    1  <O>11      -0.0232
  19 C11       9.5232   -15.2581     0.8010  C.ar    1  <O>11      -0.0567
  20 C12       9.5998   -14.4706     1.9490  C.ar    1  <O>11      -0.0614
  21 C13       9.8768   -13.1000     1.8535  C.ar    1  <O>11      -0.0599
  22 C14      10.0783   -12.4993     0.6063  C.ar    1  <O>11      -0.0388
  23 C15       9.9983   -13.2841    -0.5312  C.ar    1  <O>11       0.0545
  24 C16       7.8904   -10.7121    -2.1453  C.ar    1  <O>11      -0.0229
  25 C17       1.4620   -10.1610    -4.6040  C.ar    1  <O>11       0.0382
  26 C18       1.1306   -11.3695    -5.2196  C.ar    1  <O>11      -0.0496
  27 C19      -0.2153   -11.7063    -5.4031  C.ar    1  <O>11      -0.0610
  28 C20      -1.2229   -10.8409    -4.9699  C.ar    1  <O>11      -0.0617
  29 C21      -0.8747    -9.6354    -4.3492  C.ar    1  <O>11      -0.0610
  30 C22       0.4636    -9.2915    -4.1595  C.ar    1  <O>11      -0.0496
  31 H1        3.0270   -10.7100    -2.5640  H       1  <O>11       0.1731
  32 H2        5.3456    -9.3849    -3.8751  H       1  <O>11       0.1731
  33 H3        9.0672   -13.9635    -3.3526  H       1  <O>11       0.0485
  34 H4       10.8165   -14.2919    -3.3294  H       1  <O>11       0.0485
  35 H5        8.7388   -15.7793    -1.9651  H       1  <O>11       0.0330
  36 H6       10.4960   -16.0444    -1.8633  H       1  <O>11       0.0330
  37 H7        6.5062    -7.8907    -0.9548  H       1  <O>11       0.0625
  38 H8        8.8450    -7.3007    -0.6862  H       1  <O>11       0.0618
  39 H9       10.5838    -8.8687    -1.3424  H       1  <O>11       0.0637
  40 H10       9.3229   -16.2684     0.8649  H       1  <O>11       0.0621
  41 H11       9.4514   -14.9000     2.8756  H       1  <O>11       0.0618
  42 H12       9.9327   -12.5287     2.7112  H       1  <O>11       0.0618
  43 H13      10.2826   -11.4902     0.5357  H       1  <O>11       0.0637
  44 H14       7.6389   -11.6344    -2.5340  H       1  <O>11       0.0645
  45 H15       1.8739   -12.0109    -5.5376  H       1  <O>11       0.0625
  46 H16      -0.4644   -12.5974    -5.8601  H       1  <O>11       0.0618
  47 H17      -2.2155   -11.0882    -5.1063  H       1  <O>11       0.0618
  48 H18      -1.6167    -8.9938    -4.0283  H       1  <O>11       0.0618
  49 H19       0.7134    -8.4041    -3.6958  H       1  <O>11       0.0625
@<TRIPOS>BOND
     1     1     2    2
     2     2     3   am
     3     3     4    1
     4     4     5   am
     5     5     6    2
     6     5     7    1
     7     7     8   ar
     8     8     9   ar
     9     9    10   ar
    10    10    11   ar
    11    11    12    1
    12    12    13    2
    13    12    14    2
    14    12    15    1
    15    15    16    1
    16    16    17    1
    17    17    18    1
    18    18    19   ar
    19    19    20   ar
    20    20    21   ar
    21    21    22   ar
    22    22    23   ar
    23    18    23   ar
    24    15    23    1
    25    11    24   ar
    26     7    24   ar
    27     2    25    1
    28    25    26   ar
    29    26    27   ar
    30    27    28   ar
    31    28    29   ar
    32    29    30   ar
    33    25    30   ar
    34     3    31    1
    35     4    32    1
    36    16    33    1
    37    16    34    1
    38    17    35    1
    39    17    36    1
    40     8    37    1
    41     9    38    1
    42    10    39    1
    43    19    40    1
    44    20    41    1
    45    21    42    1
    46    22    43    1
    47    24    44    1
    48    26    45    1
    49    27    46    1
    50    28    47    1
    51    29    48    1
    52    30    49    1
@<TRIPOS>MOLECULE
mol97_1_2
 49 52 0 0 0
SMALL
USER_CHARGES
****
VDW energy = 160.57
@<TRIPOS>ATOM
   1 O1        3.4420    -9.1855    -5.2979  O.2     1  <O>11      -0.2687
   2 C1        2.8552    -9.8129    -4.4288  C.2     1  <O>11       0.2601
   3 N1        3.5160   -10.1860    -3.2900  N.am    1  <O>11      -0.2301
   4 N2        4.8400    -9.8550    -3.1240  N.am    1  <O>11      -0.2301
   5 C2        5.4787   -10.1558    -1.9524  C.2     1  <O>11       0.2602
   6 O2        4.8729   -10.7193    -1.0534  O.2     1  <O>11      -0.2687
   7 C3        6.8817    -9.8058    -1.7764  C.ar    1  <O>11       0.0400
   8 C4        7.8916   -10.7027    -2.1641  C.ar    1  <O>11      -0.0495
   9 C5        9.2384   -10.3701    -1.9826  C.ar    1  <O>11      -0.0592
  10 C6        9.5898    -9.1410    -1.4178  C.ar    1  <O>11      -0.0350
  11 C7        8.5854    -8.2448    -1.0386  C.ar    1  <O>11       0.1094
  12 S1        9.0355    -6.6987    -0.3299  S.O2    1  <O>11       0.0747
  13 O3       10.6549    -6.4242    -0.5826  O.2     1  <O>11      -0.1498
  14 O4        8.7267    -6.7258     1.3019  O.2     1  <O>11      -0.1498
  15 N3        8.1565    -5.4914    -1.0376  N.pl3   1  <O>11      -0.2024
  16 C8        7.2761    -4.6560    -0.3191  C.3     1  <O>11       0.0390
  17 C9        6.7369    -3.6433    -1.3388  C.3     1  <O>11      -0.0083
  18 C10       7.3677    -4.1124    -2.6076  C.ar    1  <O>11      -0.0232
  19 C11       7.1948    -3.5731    -3.8747  C.ar    1  <O>11      -0.0567
  20 C12       7.8888    -4.1479    -4.9386  C.ar    1  <O>11      -0.0614
  21 C13       8.7413    -5.2396    -4.7243  C.ar    1  <O>11      -0.0599
  22 C14       8.9079    -5.7719    -3.4414  C.ar    1  <O>11      -0.0388
  23 C15       8.2147    -5.2003    -2.3883  C.ar    1  <O>11       0.0545
  24 C16       7.2388    -8.5673    -1.2162  C.ar    1  <O>11      -0.0229
  25 C17       1.4620   -10.1610    -4.6040  C.ar    1  <O>11       0.0382
  26 C18       1.1306   -11.3695    -5.2196  C.ar    1  <O>11      -0.0496
  27 C19      -0.2153   -11.7063    -5.4031  C.ar    1  <O>11      -0.0610
  28 C20      -1.2229   -10.8409    -4.9699  C.ar    1  <O>11      -0.0617
  29 C21      -0.8747    -9.6354    -4.3492  C.ar    1  <O>11      -0.0610
  30 C22       0.4636    -9.2915    -4.1595  C.ar    1  <O>11      -0.0496
  31 H1        3.0270   -10.7100    -2.5640  H       1  <O>11       0.1731
  32 H2        5.3456    -9.3849    -3.8751  H       1  <O>11       0.1731
  33 H3        6.4576    -5.2407     0.1018  H       1  <O>11       0.0485
  34 H4        7.8064    -4.1427     0.4805  H       1  <O>11       0.0485
  35 H5        5.6495    -3.6817    -1.3971  H       1  <O>11       0.0330
  36 H6        7.0525    -2.6302    -1.0902  H       1  <O>11       0.0330
  37 H7        7.6387   -11.6106    -2.5845  H       1  <O>11       0.0625
  38 H8        9.9749   -11.0348    -2.2667  H       1  <O>11       0.0618
  39 H9       10.5831    -8.8965    -1.2815  H       1  <O>11       0.0637
  40 H10       6.5684    -2.7671    -4.0255  H       1  <O>11       0.0621
  41 H11       7.7739    -3.7667    -5.8908  H       1  <O>11       0.0618
  42 H12       9.2507    -5.6545    -5.5201  H       1  <O>11       0.0618
  43 H13       9.5357    -6.5755    -3.2831  H       1  <O>11       0.0637
  44 H14       6.5060    -7.8968    -0.9362  H       1  <O>11       0.0645
  45 H15       1.8739   -12.0109    -5.5376  H       1  <O>11       0.0625
  46 H16      -0.4644   -12.5974    -5.8601  H       1  <O>11       0.0618
  47 H17      -2.2155   -11.0882    -5.1063  H       1  <O>11       0.0618
  48 H18      -1.6167    -8.9938    -4.0283  H       1  <O>11       0.0618
  49 H19       0.7134    -8.4041    -3.6958  H       1  <O>11       0.0625
@<TRIPOS>BOND
     1     1     2    2
     2     2     3   am
     3     3     4    1
     4     4     5   am
     5     5     6    2
     6     5     7    1
     7     7     8   ar
     8     8     9   ar
     9     9    10   ar
    10    10    11   ar
    11    11    12    1
    12    12    13    2
    13    12    14    2
    14    12    15    1
    15    15    16    1
    16    16    17    1
    17    17    18    1
    18    18    19   ar
    19    19    20   ar
    20    20    21   ar
    21    21    22   ar
    22    22    23   ar
    23    18    23   ar
    24    15    23    1
    25    11    24   ar
    26     7    24   ar
    27     2    25    1
    28    25    26   ar
    29    26    27   ar
    30    27    28   ar
    31    28    29   ar
    32    29    30   ar
    33    25    30   ar
    34     3    31    1
    35     4    32    1
    36    16    33    1
    37    16    34    1
    38    17    35    1
    39    17    36    1
    40     8    37    1
    41     9    38    1
    42    10    39    1
    43    19    40    1
    44    20    41    1
    45    21    42    1
    46    22    43    1
    47    24    44    1
    48    26    45    1
    49    27    46    1
    50    28    47    1
    51    29    48    1
    52    30    49    1
@<TRIPOS>MOLECULE
mol97_1_3
 49 52 0 0 0
SMALL
USER_CHARGES
****
VDW energy = 160.73
@<TRIPOS>ATOM
   1 O1        3.4420    -9.1855    -5.2979  O.2     1  <O>11      -0.2687
   2 C1        2.8552    -9.8129    -4.4288  C.2     1  <O>11       0.2601
   3 N1        3.5160   -10.1860    -3.2900  N.am    1  <O>11      -0.2301
   4 N2        4.8400    -9.8550    -3.1240  N.am    1  <O>11      -0.2301
   5 C2        5.4787   -10.1558    -1.9524  C.2     1  <O>11       0.2602
   6 O2        4.8729   -10.7193    -1.0534  O.2     1  <O>11      -0.2687
   7 C3        6.8817    -9.8058    -1.7764  C.ar    1  <O>11       0.0400
   8 C4        7.2404    -8.5589    -1.2368  C.ar    1  <O>11      -0.0495
   9 C5        8.5886    -8.2194    -1.0802  C.ar    1  <O>11      -0.0592
  10 C6        9.5893    -9.1199    -1.4556  C.ar    1  <O>11      -0.0350
  11 C7        9.2330   -10.3640    -1.9857  C.ar    1  <O>11       0.1094
  12 S1       10.4982   -11.4931    -2.4543  S.O2    1  <O>11       0.0747
  13 O3        9.8077   -12.8822    -3.0502  O.2     1  <O>11      -0.1498
  14 O4       11.4302   -11.8623    -1.1299  O.2     1  <O>11      -0.1498
  15 N3       11.4454   -10.8059    -3.6211  N.pl3   1  <O>11      -0.2024
  16 C8       12.8262   -10.5719    -3.4543  C.3     1  <O>11       0.0390
  17 C9       13.3166    -9.9991    -4.7912  C.3     1  <O>11      -0.0083
  18 C10      12.0494    -9.9068    -5.5745  C.ar    1  <O>11      -0.0232
  19 C11      11.8990    -9.4145    -6.8633  C.ar    1  <O>11      -0.0567
  20 C12      10.6260    -9.4269    -7.4319  C.ar    1  <O>11      -0.0614
  21 C13       9.5321    -9.9300    -6.7145  C.ar    1  <O>11      -0.0599
  22 C14       9.6983   -10.4250    -5.4167  C.ar    1  <O>11      -0.0388
  23 C15      10.9633   -10.4081    -4.8548  C.ar    1  <O>11       0.0545
  24 C16       7.8904   -10.7121    -2.1453  C.ar    1  <O>11      -0.0229
  25 C17       1.4620   -10.1610    -4.6040  C.ar    1  <O>11       0.0382
  26 C18       1.1306   -11.3695    -5.2196  C.ar    1  <O>11      -0.0496
  27 C19      -0.2153   -11.7063    -5.4031  C.ar    1  <O>11      -0.0610
  28 C20      -1.2229   -10.8409    -4.9699  C.ar    1  <O>11      -0.0617
  29 C21      -0.8747    -9.6354    -4.3492  C.ar    1  <O>11      -0.0610
  30 C22       0.4636    -9.2915    -4.1595  C.ar    1  <O>11      -0.0496
  31 H1        3.0270   -10.7100    -2.5640  H       1  <O>11       0.1731
  32 H2        5.3456    -9.3849    -3.8751  H       1  <O>11       0.1731
  33 H3       12.9945    -9.8539    -2.6511  H       1  <O>11       0.0485
  34 H4       13.3448   -11.5012    -3.2272  H       1  <O>11       0.0485
  35 H5       13.7742    -9.0193    -4.6575  H       1  <O>11       0.0330
  36 H6       14.0294   -10.6716    -5.2683  H       1  <O>11       0.0330
  37 H7        6.5062    -7.8907    -0.9548  H       1  <O>11       0.0625
  38 H8        8.8450    -7.3007    -0.6862  H       1  <O>11       0.0618
  39 H9       10.5838    -8.8687    -1.3424  H       1  <O>11       0.0637
  40 H10      12.7090    -9.0487    -7.3877  H       1  <O>11       0.0621
  41 H11      10.4883    -9.0630    -8.3877  H       1  <O>11       0.0618
  42 H12       8.5954    -9.9353    -7.1476  H       1  <O>11       0.0618
  43 H13       8.8932   -10.7958    -4.8883  H       1  <O>11       0.0637
  44 H14       7.6389   -11.6344    -2.5340  H       1  <O>11       0.0645
  45 H15       1.8739   -12.0109    -5.5376  H       1  <O>11       0.0625
  46 H16      -0.4644   -12.5974    -5.8601  H       1  <O>11       0.0618
  47 H17      -2.2155   -11.0882    -5.1063  H       1  <O>11       0.0618
  48 H18      -1.6167    -8.9938    -4.0283  H       1  <O>11       0.0618
  49 H19       0.7134    -8.4041    -3.6958  H       1  <O>11       0.0625
@<TRIPOS>BOND
     1     1     2    2
     2     2     3   am
     3     3     4    1
     4     4     5   am
     5     5     6    2
     6     5     7    1
     7     7     8   ar
     8     8     9   ar
     9     9    10   ar
    10    10    11   ar
    11    11    12    1
    12    12    13    2
    13    12    14    2
    14    12    15    1
    15    15    16    1
    16    16    17    1
    17    17    18    1
    18    18    19   ar
    19    19    20   ar
    20    20    21   ar
    21    21    22   ar
    22    22    23   ar
    23    18    23   ar
    24    15    23    1
    25    11    24   ar
    26     7    24   ar
    27     2    25    1
    28    25    26   ar
    29    26    27   ar
    30    27    28   ar
    31    28    29   ar
    32    29    30   ar
    33    25    30   ar
    34     3    31    1
    35     4    32    1
    36    16    33    1
    37    16    34    1
    38    17    35    1
    39    17    36    1
    40     8    37    1
    41     9    38    1
    42    10    39    1
    43    19    40    1
    44    20    41    1
    45    21    42    1
    46    22    43    1
    47    24    44    1
    48    26    45    1
    49    27    46    1
    50    28    47    1
    51    29    48    1
    52    30    49    1
@<TRIPOS>MOLECULE
mol97_1_4
 49 52 0 0 0
SMALL
USER_CHARGES
****
VDW energy = 161.59
@<TRIPOS>ATOM
   1 O1        3.4420    -9.1855    -5.2979  O.2     1  <O>11      -0.2687
   2 C1        2.8552    -9.8129    -4.4288  C.2     1  <O>11       0.2601
   3 N1        3.5160   -10.1860    -3.2900  N.am    1  <O>11      -0.2301
   4 N2        2.8557   -10.8918    -2.3123  N.am    1  <O>11      -0.2301
   5 C2        3.5356   -11.3355    -1.2114  C.2     1  <O>11       0.2602
   6 O2        2.9489   -11.9637    -0.3430  O.2     1  <O>11      -0.2687
   7 C3        4.9595   -11.0606    -1.0742  C.ar    1  <O>11       0.0400
   8 C4        5.3983    -9.8903    -0.4319  C.ar    1  <O>11      -0.0495
   9 C5        6.7661    -9.6217    -0.3123  C.ar    1  <O>11      -0.0592
  10 C6        7.7070   -10.5178    -0.8273  C.ar    1  <O>11      -0.0350
  11 C7        7.2711   -11.6862    -1.4600  C.ar    1  <O>11       0.1094
  12 S1        8.4613   -12.8103    -2.1042  S.O2    1  <O>11       0.0747
  13 O3        9.9623   -12.4352    -1.4976  O.2     1  <O>11      -0.1498
  14 O4        8.4901   -12.6979    -3.7613  O.2     1  <O>11      -0.1498
  15 N3        8.0595   -14.3513    -1.6628  N.pl3   1  <O>11      -0.2024
  16 C8        7.7727   -15.3702    -2.5948  C.3     1  <O>11       0.0390
  17 C9        7.5291   -16.6381    -1.7647  C.3     1  <O>11      -0.0083
  18 C10       7.6446   -16.1235    -0.3683  C.ar    1  <O>11      -0.0232
  19 C11       7.4768   -16.8469     0.8041  C.ar    1  <O>11      -0.0567
  20 C12       7.6428   -16.1844     2.0197  C.ar    1  <O>11      -0.0614
  21 C13       7.9754   -14.8232     2.0476  C.ar    1  <O>11      -0.0599
  22 C14       8.1436   -14.1066     0.8580  C.ar    1  <O>11      -0.0388
  23 C15       7.9749   -14.7674    -0.3466  C.ar    1  <O>11       0.0545
  24 C16       5.9084   -11.9633    -1.5838  C.ar    1  <O>11      -0.0229
  25 C17       1.4620   -10.1610    -4.6040  C.ar    1  <O>11       0.0382
  26 C18       1.1306   -11.3695    -5.2196  C.ar    1  <O>11      -0.0496
  27 C19      -0.2153   -11.7063    -5.4031  C.ar    1  <O>11      -0.0610
  28 C20      -1.2229   -10.8409    -4.9699  C.ar    1  <O>11      -0.0617
  29 C21      -0.8747    -9.6354    -4.3492  C.ar    1  <O>11      -0.0610
  30 C22       0.4636    -9.2915    -4.1595  C.ar    1  <O>11      -0.0496
  31 H1        4.4984    -9.9405    -3.1657  H       1  <O>11       0.1731
  32 H2        1.8585   -11.0844    -2.4084  H       1  <O>11       0.1731
  33 H3        6.8812   -15.1180    -3.1698  H       1  <O>11       0.0485
  34 H4        8.6133   -15.5154    -3.2703  H       1  <O>11       0.0485
  35 H5        6.5392   -17.0517    -1.9558  H       1  <O>11       0.0330
  36 H6        8.2858   -17.3945    -1.9723  H       1  <O>11       0.0330
  37 H7        4.7087    -9.2262    -0.0468  H       1  <O>11       0.0625
  38 H8        7.0814    -8.7588     0.1579  H       1  <O>11       0.0618
  39 H9        8.7159   -10.3186    -0.7413  H       1  <O>11       0.0637
  40 H10       7.2353   -17.8499     0.7769  H       1  <O>11       0.0621
  41 H11       7.5199   -16.7001     2.9051  H       1  <O>11       0.0618
  42 H12       8.0973   -14.3451     2.9540  H       1  <O>11       0.0618
  43 H13       8.3888   -13.1044     0.8781  H       1  <O>11       0.0637
  44 H14       5.5980   -12.8305    -2.0493  H       1  <O>11       0.0645
  45 H15       1.8739   -12.0109    -5.5376  H       1  <O>11       0.0625
  46 H16      -0.4644   -12.5974    -5.8601  H       1  <O>11       0.0618
  47 H17      -2.2155   -11.0882    -5.1063  H       1  <O>11       0.0618
  48 H18      -1.6167    -8.9938    -4.0283  H       1  <O>11       0.0618
  49 H19       0.7134    -8.4041    -3.6958  H       1  <O>11       0.0625
@<TRIPOS>BOND
     1     1     2    2
     2     2     3   am
     3     3     4    1
     4     4     5   am
     5     5     6    2
     6     5     7    1
     7     7     8   ar
     8     8     9   ar
     9     9    10   ar
    10    10    11   ar
    11    11    12    1
    12    12    13    2
    13    12    14    2
    14    12    15    1
    15    15    16    1
    16    16    17    1
    17    17    18    1
    18    18    19   ar
    19    19    20   ar
    20    20    21   ar
    21    21    22   ar
    22    22    23   ar
    23    18    23   ar
    24    15    23    1
    25    11    24   ar
    26     7    24   ar
    27     2    25    1
    28    25    26   ar
    29    26    27   ar
    30    27    28   ar
    31    28    29   ar
    32    29    30   ar
    33    25    30   ar
    34     3    31    1
    35     4    32    1
    36    16    33    1
    37    16    34    1
    38    17    35    1
    39    17    36    1
    40     8    37    1
    41     9    38    1
    42    10    39    1
    43    19    40    1
    44    20    41    1
    45    21    42    1
    46    22    43    1
    47    24    44    1
    48    26    45    1
    49    27    46    1
    50    28    47    1
    51    29    48    1
    52    30    49    1
@<TRIPOS>MOLECULE
mol97_1_5
 49 52 0 0 0
SMALL
USER_CHARGES
****
VDW energy = 162.57
@<TRIPOS>ATOM
   1 O1        3.4420    -9.1855    -5.2979  O.2     1  <O>11      -0.2687
   2 C1        2.8552    -9.8129    -4.4288  C.2     1  <O>11       0.2601
   3 N1        3.5160   -10.1860    -3.2900  N.am    1  <O>11      -0.2301
   4 N2        4.8400    -9.8550    -3.1240  N.am    1  <O>11      -0.2301
   5 C2        5.4787   -10.1558    -1.9524  C.2     1  <O>11       0.2602
   6 O2        6.6551    -9.8606    -1.8046  O.2     1  <O>11      -0.2687
   7 C3        4.7567   -10.8270    -0.8800  C.ar    1  <O>11       0.0400
   8 C4        4.7305   -12.2302    -0.8110  C.ar    1  <O>11      -0.0495
   9 C5        4.0260   -12.8733     0.2124  C.ar    1  <O>11      -0.0592
  10 C6        3.3459   -12.1244     1.1768  C.ar    1  <O>11      -0.0350
  11 C7        3.3778   -10.7278     1.1131  C.ar    1  <O>11       0.1094
  12 S1        2.5209    -9.7918     2.3317  S.O2    1  <O>11       0.0747
  13 O3        2.1086   -10.7816     3.6013  O.2     1  <O>11      -0.1498
  14 O4        1.1443    -9.1431     1.6659  O.2     1  <O>11      -0.1498
  15 N3        3.4959    -8.5744     2.8779  N.pl3   1  <O>11      -0.2024
  16 C8        3.1682    -7.2086     2.7510  C.3     1  <O>11       0.0390
  17 C9        4.2993    -6.4418     3.4500  C.3     1  <O>11      -0.0083
  18 C10       5.2243    -7.5439     3.8470  C.ar    1  <O>11      -0.0232
  19 C11       6.4466    -7.4159     4.4918  C.ar    1  <O>11      -0.0567
  20 C12       7.1604    -8.5752     4.7926  C.ar    1  <O>11      -0.0614
  21 C13       6.6469    -9.8343     4.4530  C.ar    1  <O>11      -0.0599
  22 C14       5.4124    -9.9488     3.8050  C.ar    1  <O>11      -0.0388
  23 C15       4.7083    -8.7952     3.5054  C.ar    1  <O>11       0.0545
  24 C16       4.0785   -10.0769     0.0960  C.ar    1  <O>11      -0.0229
  25 C17       1.4620   -10.1610    -4.6040  C.ar    1  <O>11       0.0382
  26 C18       1.1306   -11.3695    -5.2196  C.ar    1  <O>11      -0.0496
  27 C19      -0.2153   -11.7063    -5.4031  C.ar    1  <O>11      -0.0610
  28 C20      -1.2229   -10.8409    -4.9699  C.ar    1  <O>11      -0.0617
  29 C21      -0.8747    -9.6354    -4.3492  C.ar    1  <O>11      -0.0610
  30 C22       0.4636    -9.2915    -4.1595  C.ar    1  <O>11      -0.0496
  31 H1        3.0270   -10.7100    -2.5640  H       1  <O>11       0.1731
  32 H2        5.3456    -9.3849    -3.8751  H       1  <O>11       0.1731
  33 H3        3.1155    -6.9277     1.6987  H       1  <O>11       0.0485
  34 H4        2.2150    -6.9998     3.2324  H       1  <O>11       0.0485
  35 H5        4.7829    -5.7423     2.7686  H       1  <O>11       0.0330
  36 H6        3.9278    -5.9028     4.3215  H       1  <O>11       0.0330
  37 H7        5.2332   -12.7888    -1.5183  H       1  <O>11       0.0625
  38 H8        4.0083   -13.9043     0.2553  H       1  <O>11       0.0618
  39 H9        2.8241   -12.5986     1.9304  H       1  <O>11       0.0637
  40 H10       6.8177    -6.4862     4.7423  H       1  <O>11       0.0621
  41 H11       8.0734    -8.5056     5.2687  H       1  <O>11       0.0618
  42 H12       7.1844   -10.6847     4.6830  H       1  <O>11       0.0618
  43 H13       5.0338   -10.8757     3.5550  H       1  <O>11       0.0637
  44 H14       4.0984    -9.0458     0.0609  H       1  <O>11       0.0645
  45 H15       1.8739   -12.0109    -5.5376  H       1  <O>11       0.0625
  46 H16      -0.4644   -12.5974    -5.8601  H       1  <O>11       0.0618
  47 H17      -2.2155   -11.0882    -5.1063  H       1  <O>11       0.0618
  48 H18      -1.6167    -8.9938    -4.0283  H       1  <O>11       0.0618
  49 H19       0.7134    -8.4041    -3.6958  H       1  <O>11       0.0625
@<TRIPOS>BOND
     1     1     2    2
     2     2     3   am
     3     3     4    1
     4     4     5   am
     5     5     6    2
     6     5     7    1
     7     7     8   ar
     8     8     9   ar
     9     9    10   ar
    10    10    11   ar
    11    11    12    1
    12    12    13    2
    13    12    14    2
    14    12    15    1
    15    15    16    1
    16    16    17    1
    17    17    18    1
    18    18    19   ar
    19    19    20   ar
    20    20    21   ar
    21    21    22   ar
    22    22    23   ar
    23    18    23   ar
    24    15    23    1
    25    11    24   ar
    26     7    24   ar
    27     2    25    1
    28    25    26   ar
    29    26    27   ar
    30    27    28   ar
    31    28    29   ar
    32    29    30   ar
    33    25    30   ar
    34     3    31    1
    35     4    32    1
    36    16    33    1
    37    16    34    1
    38    17    35    1
    39    17    36    1
    40     8    37    1
    41     9    38    1
    42    10    39    1
    43    19    40    1
    44    20    41    1
    45    21    42    1
    46    22    43    1
    47    24    44    1
    48    26    45    1
    49    27    46    1
    50    28    47    1
    51    29    48    1
    52    30    49    1
@<TRIPOS>MOLECULE
mol97_1_6
 49 52 0 0 0
SMALL
USER_CHARGES
****
VDW energy = 162.67
@<TRIPOS>ATOM
   1 O1        3.4420    -9.1855    -5.2979  O.2     1  <O>11      -0.2687
   2 C1        2.8552    -9.8129    -4.4288  C.2     1  <O>11       0.2601
   3 N1        3.5160   -10.1860    -3.2900  N.am    1  <O>11      -0.2301
   4 N2        4.8400    -9.8550    -3.1240  N.am    1  <O>11      -0.2301
   5 C2        5.4787   -10.1558    -1.9524  C.2     1  <O>11       0.2602
   6 O2        4.8729   -10.7193    -1.0534  O.2     1  <O>11      -0.2687
   7 C3        6.8817    -9.8058    -1.7764  C.ar    1  <O>11       0.0400
   8 C4        7.3742    -8.5812    -2.2584  C.ar    1  <O>11      -0.0495
   9 C5        8.7247    -8.2522    -2.0997  C.ar    1  <O>11      -0.0592
  10 C6        9.5939    -9.1377    -1.4564  C.ar    1  <O>11      -0.0350
  11 C7        9.1028   -10.3534    -0.9698  C.ar    1  <O>11       0.1094
  12 S1       10.2025   -11.4622    -0.1597  S.O2    1  <O>11       0.0747
  13 O3       11.6137   -10.6681     0.2141  O.2     1  <O>11      -0.1498
  14 O4       10.5372   -12.7431    -1.1629  O.2     1  <O>11      -0.1498
  15 N3        9.5004   -12.0183     1.2291  N.pl3   1  <O>11      -0.2024
  16 C8        9.2295   -13.3824     1.4634  C.3     1  <O>11       0.0390
  17 C9        8.6548   -13.4553     2.8848  C.3     1  <O>11      -0.0083
  18 C10       8.6013   -12.0152     3.2737  C.ar    1  <O>11      -0.0232
  19 C11       8.1232   -11.4901     4.4661  C.ar    1  <O>11      -0.0567
  20 C12       8.1729   -10.1086     4.6476  C.ar    1  <O>11      -0.0614
  21 C13       8.6984    -9.2788     3.6477  C.ar    1  <O>11      -0.0599
  22 C14       9.1788    -9.8218     2.4513  C.ar    1  <O>11      -0.0388
  23 C15       9.1248   -11.1936     2.2739  C.ar    1  <O>11       0.0545
  24 C16       7.7567   -10.6904    -1.1229  C.ar    1  <O>11      -0.0229
  25 C17       1.4620   -10.1610    -4.6040  C.ar    1  <O>11       0.0382
  26 C18       1.1306   -11.3695    -5.2196  C.ar    1  <O>11      -0.0496
  27 C19      -0.2153   -11.7063    -5.4031  C.ar    1  <O>11      -0.0610
  28 C20      -1.2229   -10.8409    -4.9699  C.ar    1  <O>11      -0.0617
  29 C21      -0.8747    -9.6354    -4.3492  C.ar    1  <O>11      -0.0610
  30 C22       0.4636    -9.2915    -4.1595  C.ar    1  <O>11      -0.0496
  31 H1        3.0270   -10.7100    -2.5640  H       1  <O>11       0.1731
  32 H2        5.3456    -9.3849    -3.8751  H       1  <O>11       0.1731
  33 H3        8.5010   -13.7535     0.7418  H       1  <O>11       0.0485
  34 H4       10.1432   -13.9690     1.3937  H       1  <O>11       0.0485
  35 H5        7.6624   -13.9053     2.8875  H       1  <O>11       0.0330
  36 H6        9.3123   -14.0202     3.5454  H       1  <O>11       0.0330
  37 H7        6.7369    -7.9216    -2.7315  H       1  <O>11       0.0625
  38 H8        9.0804    -7.3525    -2.4589  H       1  <O>11       0.0618
  39 H9       10.5906    -8.8963    -1.3414  H       1  <O>11       0.0637
  40 H10       7.7407   -12.1066     5.2000  H       1  <O>11       0.0621
  41 H11       7.8203    -9.6941     5.5244  H       1  <O>11       0.0618
  42 H12       8.7313    -8.2580     3.7954  H       1  <O>11       0.0618
  43 H13       9.5661    -9.2112     1.7150  H       1  <O>11       0.0637
  44 H14       7.4044   -11.5885    -0.7566  H       1  <O>11       0.0645
  45 H15       1.8739   -12.0109    -5.5376  H       1  <O>11       0.0625
  46 H16      -0.4644   -12.5974    -5.8601  H       1  <O>11       0.0618
  47 H17      -2.2155   -11.0882    -5.1063  H       1  <O>11       0.0618
  48 H18      -1.6167    -8.9938    -4.0283  H       1  <O>11       0.0618
  49 H19       0.7134    -8.4041    -3.6958  H       1  <O>11       0.0625
@<TRIPOS>BOND
     1     1     2    2
     2     2     3   am
     3     3     4    1
     4     4     5   am
     5     5     6    2
     6     5     7    1
     7     7     8   ar
     8     8     9   ar
     9     9    10   ar
    10    10    11   ar
    11    11    12    1
    12    12    13    2
    13    12    14    2
    14    12    15    1
    15    15    16    1
    16    16    17    1
    17    17    18    1
    18    18    19   ar
    19    19    20   ar
    20    20    21   ar
    21    21    22   ar
    22    22    23   ar
    23    18    23   ar
    24    15    23    1
    25    11    24   ar
    26     7    24   ar
    27     2    25    1
    28    25    26   ar
    29    26    27   ar
    30    27    28   ar
    31    28    29   ar
    32    29    30   ar
    33    25    30   ar
    34     3    31    1
    35     4    32    1
    36    16    33    1
    37    16    34    1
    38    17    35    1
    39    17    36    1
    40     8    37    1
    41     9    38    1
    42    10    39    1
    43    19    40    1
    44    20    41    1
    45    21    42    1
    46    22    43    1
    47    24    44    1
    48    26    45    1
    49    27    46    1
    50    28    47    1
    51    29    48    1
    52    30    49    1
@<TRIPOS>MOLECULE
mol97_1_7
 49 52 0 0 0
SMALL
USER_CHARGES
****
VDW energy = 162.95
@<TRIPOS>ATOM
   1 O1        3.4420    -9.1855    -5.2979  O.2     1  <O>11      -0.2687
   2 C1        2.8552    -9.8129    -4.4288  C.2     1  <O>11       0.2601
   3 N1        3.5160   -10.1860    -3.2900  N.am    1  <O>11      -0.2301
   4 N2        2.8557   -10.8918    -2.3123  N.am    1  <O>11      -0.2301
   5 C2        3.5356   -11.3355    -1.2114  C.2     1  <O>11       0.2602
   6 O2        4.7298   -11.1041    -1.0964  O.2     1  <O>11      -0.2687
   7 C3        2.8362   -12.0828    -0.1749  C.ar    1  <O>11       0.0400
   8 C4        2.7502   -13.4836    -0.2447  C.ar    1  <O>11      -0.0495
   9 C5        2.0671   -14.1988     0.7449  C.ar    1  <O>11      -0.0592
  10 C6        1.4685   -13.5253     1.8133  C.ar    1  <O>11      -0.0350
  11 C7        1.5602   -12.1318     1.8874  C.ar    1  <O>11       0.1094
  12 S1        0.8056   -11.2911     3.2361  S.O2    1  <O>11       0.0747
  13 O3        1.0609    -9.6562     3.0821  O.2     1  <O>11      -0.1498
  14 O4        1.4697   -11.8231     4.6626  O.2     1  <O>11      -0.1498
  15 N3       -0.8186   -11.5961     3.2363  N.pl3   1  <O>11      -0.2024
  16 C8       -1.4830   -12.2347     4.3040  C.3     1  <O>11       0.0390
  17 C9       -2.9699   -12.2448     3.9235  C.3     1  <O>11      -0.0083
  18 C10      -2.9475   -11.6344     2.5616  C.ar    1  <O>11      -0.0232
  19 C11      -4.0326   -11.4290     1.7212  C.ar    1  <O>11      -0.0567
  20 C12      -3.8069   -10.8252     0.4848  C.ar    1  <O>11      -0.0614
  21 C13      -2.5141   -10.4344     0.1102  C.ar    1  <O>11      -0.0599
  22 C14      -1.4295   -10.6456     0.9681  C.ar    1  <O>11      -0.0388
  23 C15      -1.6575   -11.2481     2.1934  C.ar    1  <O>11       0.0545
  24 C16       2.2400   -11.4094     0.9050  C.ar    1  <O>11      -0.0229
  25 C17       1.4620   -10.1610    -4.6040  C.ar    1  <O>11       0.0382
  26 C18       0.4750    -9.2817    -4.1546  C.ar    1  <O>11      -0.0496
  27 C19      -0.8745    -9.6183    -4.3101  C.ar    1  <O>11      -0.0610
  28 C20      -1.2337   -10.8255    -4.9148  C.ar    1  <O>11      -0.0617
  29 C21      -0.2326   -11.6941    -5.3653  C.ar    1  <O>11      -0.0610
  30 C22       1.1151   -11.3668    -5.2172  C.ar    1  <O>11      -0.0496
  31 H1        4.4984    -9.9405    -3.1657  H       1  <O>11       0.1731
  32 H2        1.8585   -11.0844    -2.4084  H       1  <O>11       0.1731
  33 H3       -1.1164   -13.2547     4.4227  H       1  <O>11       0.0485
  34 H4       -1.3326   -11.6831     5.2299  H       1  <O>11       0.0485
  35 H5       -3.3647   -13.2602     3.8980  H       1  <O>11       0.0330
  36 H6       -3.5568   -11.6436     4.6178  H       1  <O>11       0.0330
  37 H7        3.1927   -13.9871    -1.0294  H       1  <O>11       0.0625
  38 H8        2.0051   -15.2272     0.6858  H       1  <O>11       0.0618
  39 H9        0.9625   -14.0524     2.5421  H       1  <O>11       0.0637
  40 H10      -4.9826   -11.7158     2.0042  H       1  <O>11       0.0621
  41 H11      -4.5974   -10.6650    -0.1590  H       1  <O>11       0.0618
  42 H12      -2.3609    -9.9867    -0.8069  H       1  <O>11       0.0618
  43 H13      -0.4776   -10.3576     0.6928  H       1  <O>11       0.0637
  44 H14       2.3046   -10.3816     0.9717  H       1  <O>11       0.0645
  45 H15       0.7391    -8.3884    -3.7103  H       1  <O>11       0.0625
  46 H16      -1.6070    -8.9723    -3.9769  H       1  <O>11       0.0618
  47 H17      -2.2287   -11.0748    -5.0282  H       1  <O>11       0.0618
  48 H18      -0.4947   -12.5867    -5.8121  H       1  <O>11       0.0618
  49 H19       1.8481   -12.0089    -5.5570  H       1  <O>11       0.0625
@<TRIPOS>BOND
     1     1     2    2
     2     2     3   am
     3     3     4    1
     4     4     5   am
     5     5     6    2
     6     5     7    1
     7     7     8   ar
     8     8     9   ar
     9     9    10   ar
    10    10    11   ar
    11    11    12    1
    12    12    13    2
    13    12    14    2
    14    12    15    1
    15    15    16    1
    16    16    17    1
    17    17    18    1
    18    18    19   ar
    19    19    20   ar
    20    20    21   ar
    21    21    22   ar
    22    22    23   ar
    23    18    23   ar
    24    15    23    1
    25    11    24   ar
    26     7    24   ar
    27     2    25    1
    28    25    26   ar
    29    26    27   ar
    30    27    28   ar
    31    28    29   ar
    32    29    30   ar
    33    25    30   ar
    34     3    31    1
    35     4    32    1
    36    16    33    1
    37    16    34    1
    38    17    35    1
    39    17    36    1
    40     8    37    1
    41     9    38    1
    42    10    39    1
    43    19    40    1
    44    20    41    1
    45    21    42    1
    46    22    43    1
    47    24    44    1
    48    26    45    1
    49    27    46    1
    50    28    47    1
    51    29    48    1
    52    30    49    1
@<TRIPOS>MOLECULE
mol97_1_8
 49 52 0 0 0
SMALL
USER_CHARGES
****
VDW energy = 162.97
@<TRIPOS>ATOM
   1 O1        3.4420    -9.1855    -5.2979  O.2     1  <O>11      -0.2687
   2 C1        2.8552    -9.8129    -4.4288  C.2     1  <O>11       0.2601
   3 N1        3.5160   -10.1860    -3.2900  N.am    1  <O>11      -0.2301
   4 N2        2.8557   -10.8918    -2.3123  N.am    1  <O>11      -0.2301
   5 C2        3.5356   -11.3355    -1.2114  C.2     1  <O>11       0.2602
   6 O2        4.7298   -11.1041    -1.0964  O.2     1  <O>11      -0.2687
   7 C3        2.8362   -12.0828    -0.1749  C.ar    1  <O>11       0.0400
   8 C4        2.7502   -13.4836    -0.2447  C.ar    1  <O>11      -0.0495
   9 C5        2.0671   -14.1988     0.7449  C.ar    1  <O>11      -0.0592
  10 C6        1.4685   -13.5253     1.8133  C.ar    1  <O>11      -0.0350
  11 C7        1.5602   -12.1318     1.8874  C.ar    1  <O>11       0.1094
  12 S1        0.8056   -11.2911     3.2361  S.O2    1  <O>11       0.0747
  13 O3        1.0609    -9.6562     3.0821  O.2     1  <O>11      -0.1498
  14 O4        1.4697   -11.8231     4.6626  O.2     1  <O>11      -0.1498
  15 N3       -0.8186   -11.5961     3.2363  N.pl3   1  <O>11      -0.2024
  16 C8       -1.4830   -12.2347     4.3040  C.3     1  <O>11       0.0390
  17 C9       -2.9699   -12.2448     3.9235  C.3     1  <O>11      -0.0083
  18 C10      -2.9475   -11.6344     2.5616  C.ar    1  <O>11      -0.0232
  19 C11      -4.0326   -11.4290     1.7212  C.ar    1  <O>11      -0.0567
  20 C12      -3.8069   -10.8252     0.4848  C.ar    1  <O>11      -0.0614
  21 C13      -2.5141   -10.4344     0.1102  C.ar    1  <O>11      -0.0599
  22 C14      -1.4295   -10.6456     0.9681  C.ar    1  <O>11      -0.0388
  23 C15      -1.6575   -11.2481     2.1934  C.ar    1  <O>11       0.0545
  24 C16       2.2400   -11.4094     0.9050  C.ar    1  <O>11      -0.0229
  25 C17       1.4620   -10.1610    -4.6040  C.ar    1  <O>11       0.0382
  26 C18       1.1306   -11.3695    -5.2196  C.ar    1  <O>11      -0.0496
  27 C19      -0.2153   -11.7063    -5.4031  C.ar    1  <O>11      -0.0610
  28 C20      -1.2229   -10.8409    -4.9699  C.ar    1  <O>11      -0.0617
  29 C21      -0.8747    -9.6354    -4.3492  C.ar    1  <O>11      -0.0610
  30 C22       0.4636    -9.2915    -4.1595  C.ar    1  <O>11      -0.0496
  31 H1        4.4984    -9.9405    -3.1657  H       1  <O>11       0.1731
  32 H2        1.8585   -11.0844    -2.4084  H       1  <O>11       0.1731
  33 H3       -1.1164   -13.2547     4.4227  H       1  <O>11       0.0485
  34 H4       -1.3326   -11.6831     5.2299  H       1  <O>11       0.0485
  35 H5       -3.3647   -13.2602     3.8980  H       1  <O>11       0.0330
  36 H6       -3.5568   -11.6436     4.6178  H       1  <O>11       0.0330
  37 H7        3.1927   -13.9871    -1.0294  H       1  <O>11       0.0625
  38 H8        2.0051   -15.2272     0.6858  H       1  <O>11       0.0618
  39 H9        0.9625   -14.0524     2.5421  H       1  <O>11       0.0637
  40 H10      -4.9826   -11.7158     2.0042  H       1  <O>11       0.0621
  41 H11      -4.5974   -10.6650    -0.1590  H       1  <O>11       0.0618
  42 H12      -2.3609    -9.9867    -0.8069  H       1  <O>11       0.0618
  43 H13      -0.4776   -10.3576     0.6928  H       1  <O>11       0.0637
  44 H14       2.3046   -10.3816     0.9717  H       1  <O>11       0.0645
  45 H15       1.8739   -12.0109    -5.5376  H       1  <O>11       0.0625
  46 H16      -0.4644   -12.5974    -5.8601  H       1  <O>11       0.0618
  47 H17      -2.2155   -11.0882    -5.1063  H       1  <O>11       0.0618
  48 H18      -1.6167    -8.9938    -4.0283  H       1  <O>11       0.0618
  49 H19       0.7134    -8.4041    -3.6958  H       1  <O>11       0.0625
@<TRIPOS>BOND
     1     1     2    2
     2     2     3   am
     3     3     4    1
     4     4     5   am
     5     5     6    2
     6     5     7    1
     7     7     8   ar
     8     8     9   ar
     9     9    10   ar
    10    10    11   ar
    11    11    12    1
    12    12    13    2
    13    12    14    2
    14    12    15    1
    15    15    16    1
    16    16    17    1
    17    17    18    1
    18    18    19   ar
    19    19    20   ar
    20    20    21   ar
    21    21    22   ar
    22    22    23   ar
    23    18    23   ar
    24    15    23    1
    25    11    24   ar
    26     7    24   ar
    27     2    25    1
    28    25    26   ar
    29    26    27   ar
    30    27    28   ar
    31    28    29   ar
    32    29    30   ar
    33    25    30   ar
    34     3    31    1
    35     4    32    1
    36    16    33    1
    37    16    34    1
    38    17    35    1
    39    17    36    1
    40     8    37    1
    41     9    38    1
    42    10    39    1
    43    19    40    1
    44    20    41    1
    45    21    42    1
    46    22    43    1
    47    24    44    1
    48    26    45    1
    49    27    46    1
    50    28    47    1
    51    29    48    1
    52    30    49    1
@<TRIPOS>MOLECULE
mol97_1_9
 49 52 0 0 0
SMALL
USER_CHARGES
****
VDW energy = 165.62
@<TRIPOS>ATOM
   1 O1        3.4420    -9.1855    -5.2979  O.2     1  <O>11      -0.2687
   2 C1        2.8552    -9.8129    -4.4288  C.2     1  <O>11       0.2601
   3 N1        3.5160   -10.1860    -3.2900  N.am    1  <O>11      -0.2301
   4 N2        4.8400    -9.8550    -3.1240  N.am    1  <O>11      -0.2301
   5 C2        5.4787   -10.1558    -1.9524  C.2     1  <O>11       0.2602
   6 O2        4.8729   -10.7193    -1.0534  O.2     1  <O>11      -0.2687
   7 C3        6.8817    -9.8058    -1.7764  C.ar    1  <O>11       0.0400
   8 C4        7.8916   -10.7027    -2.1641  C.ar    1  <O>11      -0.0495
   9 C5        9.2384   -10.3701    -1.9826  C.ar    1  <O>11      -0.0592
  10 C6        9.5898    -9.1410    -1.4178  C.ar    1  <O>11      -0.0350
  11 C7        8.5854    -8.2448    -1.0386  C.ar    1  <O>11       0.1094
  12 S1        9.0355    -6.6987    -0.3299  S.O2    1  <O>11       0.0747
  13 O3        7.8828    -5.5616    -0.7040  O.2     1  <O>11      -0.1498
  14 O4       10.5051    -6.2175    -0.9366  O.2     1  <O>11      -0.1498
  15 N3        9.1410    -6.8549     1.3119  N.pl3   1  <O>11      -0.2024
  16 C8       10.3305    -6.6235     2.0334  C.3     1  <O>11       0.0390
  17 C9        9.9632    -6.8062     3.5125  C.3     1  <O>11      -0.0083
  18 C10       8.5310    -7.2183     3.4295  C.ar    1  <O>11      -0.0232
  19 C11       7.6959    -7.5516     4.4867  C.ar    1  <O>11      -0.0567
  20 C12       6.3754    -7.8976     4.2031  C.ar    1  <O>11      -0.0614
  21 C13       5.9100    -7.9013     2.8810  C.ar    1  <O>11      -0.0599
  22 C14       6.7621    -7.5612     1.8250  C.ar    1  <O>11      -0.0388
  23 C15       8.0732    -7.2213     2.1107  C.ar    1  <O>11       0.0545
  24 C16       7.2388    -8.5673    -1.2162  C.ar    1  <O>11      -0.0229
  25 C17       1.4620   -10.1610    -4.6040  C.ar    1  <O>11       0.0382
  26 C18       0.4750    -9.2817    -4.1546  C.ar    1  <O>11      -0.0496
  27 C19      -0.8745    -9.6183    -4.3101  C.ar    1  <O>11      -0.0610
  28 C20      -1.2337   -10.8255    -4.9148  C.ar    1  <O>11      -0.0617
  29 C21      -0.2326   -11.6941    -5.3653  C.ar    1  <O>11      -0.0610
  30 C22       1.1151   -11.3668    -5.2172  C.ar    1  <O>11      -0.0496
  31 H1        3.0270   -10.7100    -2.5640  H       1  <O>11       0.1731
  32 H2        5.3456    -9.3849    -3.8751  H       1  <O>11       0.1731
  33 H3       11.0963    -7.3432     1.7426  H       1  <O>11       0.0485
  34 H4       10.6931    -5.6132     1.8552  H       1  <O>11       0.0485
  35 H5       10.5733    -7.5793     3.9789  H       1  <O>11       0.0330
  36 H6       10.0757    -5.8724     4.0631  H       1  <O>11       0.0330
  37 H7        7.6387   -11.6106    -2.5845  H       1  <O>11       0.0625
  38 H8        9.9749   -11.0348    -2.2667  H       1  <O>11       0.0618
  39 H9       10.5831    -8.8965    -1.2815  H       1  <O>11       0.0637
  40 H10       8.0436    -7.5436     5.4583  H       1  <O>11       0.0621
  41 H11       5.7361    -8.1526     4.9720  H       1  <O>11       0.0618
  42 H12       4.9297    -8.1574     2.6848  H       1  <O>11       0.0618
  43 H13       6.4197    -7.5635     0.8515  H       1  <O>11       0.0637
  44 H14       6.5060    -7.8968    -0.9362  H       1  <O>11       0.0645
  45 H15       0.7391    -8.3884    -3.7103  H       1  <O>11       0.0625
  46 H16      -1.6070    -8.9723    -3.9769  H       1  <O>11       0.0618
  47 H17      -2.2287   -11.0748    -5.0282  H       1  <O>11       0.0618
  48 H18      -0.4947   -12.5867    -5.8121  H       1  <O>11       0.0618
  49 H19       1.8481   -12.0089    -5.5570  H       1  <O>11       0.0625
@<TRIPOS>BOND
     1     1     2    2
     2     2     3   am
     3     3     4    1
     4     4     5   am
     5     5     6    2
     6     5     7    1
     7     7     8   ar
     8     8     9   ar
     9     9    10   ar
    10    10    11   ar
    11    11    12    1
    12    12    13    2
    13    12    14    2
    14    12    15    1
    15    15    16    1
    16    16    17    1
    17    17    18    1
    18    18    19   ar
    19    19    20   ar
    20    20    21   ar
    21    21    22   ar
    22    22    23   ar
    23    18    23   ar
    24    15    23    1
    25    11    24   ar
    26     7    24   ar
    27     2    25    1
    28    25    26   ar
    29    26    27   ar
    30    27    28   ar
    31    28    29   ar
    32    29    30   ar
    33    25    30   ar
    34     3    31    1
    35     4    32    1
    36    16    33    1
    37    16    34    1
    38    17    35    1
    39    17    36    1
    40     8    37    1
    41     9    38    1
    42    10    39    1
    43    19    40    1
    44    20    41    1
    45    21    42    1
    46    22    43    1
    47    24    44    1
    48    26    45    1
    49    27    46    1
    50    28    47    1
    51    29    48    1
    52    30    49    1
@<TRIPOS>MOLECULE
mol97_1_10
 49 52 0 0 0
SMALL
USER_CHARGES
****
VDW energy = 165.62
@<TRIPOS>ATOM
   1 O1        3.4420    -9.1855    -5.2979  O.2     1  <O>11      -0.2687
   2 C1        2.8552    -9.8129    -4.4288  C.2     1  <O>11       0.2601
   3 N1        3.5160   -10.1860    -3.2900  N.am    1  <O>11      -0.2301
   4 N2        4.8400    -9.8550    -3.1240  N.am    1  <O>11      -0.2301
   5 C2        5.4787   -10.1558    -1.9524  C.2     1  <O>11       0.2602
   6 O2        4.8729   -10.7193    -1.0534  O.2     1  <O>11      -0.2687
   7 C3        6.8817    -9.8058    -1.7764  C.ar    1  <O>11       0.0400
   8 C4        7.8916   -10.7027    -2.1641  C.ar    1  <O>11      -0.0495
   9 C5        9.2384   -10.3701    -1.9826  C.ar    1  <O>11      -0.0592
  10 C6        9.5898    -9.1410    -1.4178  C.ar    1  <O>11      -0.0350
  11 C7        8.5854    -8.2448    -1.0386  C.ar    1  <O>11       0.1094
  12 S1        9.0355    -6.6987    -0.3299  S.O2    1  <O>11       0.0747
  13 O3        7.8828    -5.5616    -0.7040  O.2     1  <O>11      -0.1498
  14 O4       10.5051    -6.2175    -0.9366  O.2     1  <O>11      -0.1498
  15 N3        9.1410    -6.8549     1.3119  N.pl3   1  <O>11      -0.2024
  16 C8       10.3305    -6.6235     2.0334  C.3     1  <O>11       0.0390
  17 C9        9.9632    -6.8062     3.5125  C.3     1  <O>11      -0.0083
  18 C10       8.5310    -7.2183     3.4295  C.ar    1  <O>11      -0.0232
  19 C11       7.6959    -7.5516     4.4867  C.ar    1  <O>11      -0.0567
  20 C12       6.3754    -7.8976     4.2031  C.ar    1  <O>11      -0.0614
  21 C13       5.9100    -7.9013     2.8810  C.ar    1  <O>11      -0.0599
  22 C14       6.7621    -7.5612     1.8250  C.ar    1  <O>11      -0.0388
  23 C15       8.0732    -7.2213     2.1107  C.ar    1  <O>11       0.0545
  24 C16       7.2388    -8.5673    -1.2162  C.ar    1  <O>11      -0.0229
  25 C17       1.4620   -10.1610    -4.6040  C.ar    1  <O>11       0.0382
  26 C18       1.1306   -11.3695    -5.2196  C.ar    1  <O>11      -0.0496
  27 C19      -0.2153   -11.7063    -5.4031  C.ar    1  <O>11      -0.0610
  28 C20      -1.2229   -10.8409    -4.9699  C.ar    1  <O>11      -0.0617
  29 C21      -0.8747    -9.6354    -4.3492  C.ar    1  <O>11      -0.0610
  30 C22       0.4636    -9.2915    -4.1595  C.ar    1  <O>11      -0.0496
  31 H1        3.0270   -10.7100    -2.5640  H       1  <O>11       0.1731
  32 H2        5.3456    -9.3849    -3.8751  H       1  <O>11       0.1731
  33 H3       11.0963    -7.3432     1.7426  H       1  <O>11       0.0485
  34 H4       10.6931    -5.6132     1.8552  H       1  <O>11       0.0485
  35 H5       10.5733    -7.5793     3.9789  H       1  <O>11       0.0330
  36 H6       10.0757    -5.8724     4.0631  H       1  <O>11       0.0330
  37 H7        7.6387   -11.6106    -2.5845  H       1  <O>11       0.0625
  38 H8        9.9749   -11.0348    -2.2667  H       1  <O>11       0.0618
  39 H9       10.5831    -8.8965    -1.2815  H       1  <O>11       0.0637
  40 H10       8.0436    -7.5436     5.4583  H       1  <O>11       0.0621
  41 H11       5.7361    -8.1526     4.9720  H       1  <O>11       0.0618
  42 H12       4.9297    -8.1574     2.6848  H       1  <O>11       0.0618
  43 H13       6.4197    -7.5635     0.8515  H       1  <O>11       0.0637
  44 H14       6.5060    -7.8968    -0.9362  H       1  <O>11       0.0645
  45 H15       1.8739   -12.0109    -5.5376  H       1  <O>11       0.0625
  46 H16      -0.4644   -12.5974    -5.8601  H       1  <O>11       0.0618
  47 H17      -2.2155   -11.0882    -5.1063  H       1  <O>11       0.0618
  48 H18      -1.6167    -8.9938    -4.0283  H       1  <O>11       0.0618
  49 H19       0.7134    -8.4041    -3.6958  H       1  <O>11       0.0625
@<TRIPOS>BOND
     1     1     2    2
     2     2     3   am
     3     3     4    1
     4     4     5   am
     5     5     6    2
     6     5     7    1
     7     7     8   ar
     8     8     9   ar
     9     9    10   ar
    10    10    11   ar
    11    11    12    1
    12    12    13    2
    13    12    14    2
    14    12    15    1
    15    15    16    1
    16    16    17    1
    17    17    18    1
    18    18    19   ar
    19    19    20   ar
    20    20    21   ar
    21    21    22   ar
    22    22    23   ar
    23    18    23   ar
    24    15    23    1
    25    11    24   ar
    26     7    24   ar
    27     2    25    1
    28    25    26   ar
    29    26    27   ar
    30    27    28   ar
    31    28    29   ar
    32    29    30   ar
    33    25    30   ar
    34     3    31    1
    35     4    32    1
    36    16    33    1
    37    16    34    1
    38    17    35    1
    39    17    36    1
    40     8    37    1
    41     9    38    1
    42    10    39    1
    43    19    40    1
    44    20    41    1
    45    21    42    1
    46    22    43    1
    47    24    44    1
    48    26    45    1
    49    27    46    1
    50    28    47    1
    51    29    48    1
    52    30    49    1
@<TRIPOS>MOLECULE
mol97_1_11
 49 52 0 0 0
SMALL
USER_CHARGES
****
VDW energy = 166.08
@<TRIPOS>ATOM
   1 O1        3.4420    -9.1855    -5.2979  O.2     1  <O>11      -0.2687
   2 C1        2.8552    -9.8129    -4.4288  C.2     1  <O>11       0.2601
   3 N1        3.5160   -10.1860    -3.2900  N.am    1  <O>11      -0.2301
   4 N2        4.8400    -9.8550    -3.1240  N.am    1  <O>11      -0.2301
   5 C2        5.4787   -10.1558    -1.9524  C.2     1  <O>11       0.2602
   6 O2        4.8729   -10.7193    -1.0534  O.2     1  <O>11      -0.2687
   7 C3        6.8817    -9.8058    -1.7764  C.ar    1  <O>11       0.0400
   8 C4        7.2404    -8.5589    -1.2368  C.ar    1  <O>11      -0.0495
   9 C5        8.5886    -8.2194    -1.0802  C.ar    1  <O>11      -0.0592
  10 C6        9.5893    -9.1199    -1.4556  C.ar    1  <O>11      -0.0350
  11 C7        9.2330   -10.3640    -1.9857  C.ar    1  <O>11       0.1094
  12 S1       10.4982   -11.4931    -2.4543  S.O2    1  <O>11       0.0747
  13 O3       11.4300   -11.8619    -1.1287  O.2     1  <O>11      -0.1498
  14 O4       11.4515   -10.8024    -3.6261  O.2     1  <O>11      -0.1498
  15 N3        9.8119   -12.8753    -3.0455  N.pl3   1  <O>11      -0.2024
  16 C8       10.0215   -13.3384    -4.3611  C.3     1  <O>11       0.0390
  17 C9        9.2692   -14.6727    -4.4583  C.3     1  <O>11      -0.0083
  18 C10       8.6242   -14.7656    -3.1154  C.ar    1  <O>11      -0.0232
  19 C11       7.7824   -15.7714    -2.6617  C.ar    1  <O>11      -0.0567
  20 C12       7.2902   -15.6851    -1.3601  C.ar    1  <O>11      -0.0614
  21 C13       7.6454   -14.6087    -0.5358  C.ar    1  <O>11      -0.0599
  22 C14       8.4966   -13.6027    -1.0053  C.ar    1  <O>11      -0.0388
  23 C15       8.9806   -13.6906    -2.2993  C.ar    1  <O>11       0.0545
  24 C16       7.8904   -10.7121    -2.1453  C.ar    1  <O>11      -0.0229
  25 C17       1.4620   -10.1610    -4.6040  C.ar    1  <O>11       0.0382
  26 C18       1.1306   -11.3695    -5.2196  C.ar    1  <O>11      -0.0496
  27 C19      -0.2153   -11.7063    -5.4031  C.ar    1  <O>11      -0.0610
  28 C20      -1.2229   -10.8409    -4.9699  C.ar    1  <O>11      -0.0617
  29 C21      -0.8747    -9.6354    -4.3492  C.ar    1  <O>11      -0.0610
  30 C22       0.4636    -9.2915    -4.1595  C.ar    1  <O>11      -0.0496
  31 H1        3.0270   -10.7100    -2.5640  H       1  <O>11       0.1731
  32 H2        5.3456    -9.3849    -3.8751  H       1  <O>11       0.1731
  33 H3        9.6208   -12.6253    -5.0822  H       1  <O>11       0.0485
  34 H4       11.0831   -13.4876    -4.5472  H       1  <O>11       0.0485
  35 H5        8.5268   -14.6510    -5.2556  H       1  <O>11       0.0330
  36 H6        9.9583   -15.5005    -4.6251  H       1  <O>11       0.0330
  37 H7        6.5062    -7.8907    -0.9548  H       1  <O>11       0.0625
  38 H8        8.8450    -7.3007    -0.6862  H       1  <O>11       0.0618
  39 H9       10.5838    -8.8687    -1.3424  H       1  <O>11       0.0637
  40 H10       7.5273   -16.5632    -3.2723  H       1  <O>11       0.0621
  41 H11       6.6598   -16.4191    -1.0011  H       1  <O>11       0.0618
  42 H12       7.2757   -14.5577     0.4264  H       1  <O>11       0.0618
  43 H13       8.7587   -12.8101    -0.3986  H       1  <O>11       0.0637
  44 H14       7.6389   -11.6344    -2.5340  H       1  <O>11       0.0645
  45 H15       1.8739   -12.0109    -5.5376  H       1  <O>11       0.0625
  46 H16      -0.4644   -12.5974    -5.8601  H       1  <O>11       0.0618
  47 H17      -2.2155   -11.0882    -5.1063  H       1  <O>11       0.0618
  48 H18      -1.6167    -8.9938    -4.0283  H       1  <O>11       0.0618
  49 H19       0.7134    -8.4041    -3.6958  H       1  <O>11       0.0625
@<TRIPOS>BOND
     1     1     2    2
     2     2     3   am
     3     3     4    1
     4     4     5   am
     5     5     6    2
     6     5     7    1
     7     7     8   ar
     8     8     9   ar
     9     9    10   ar
    10    10    11   ar
    11    11    12    1
    12    12    13    2
    13    12    14    2
    14    12    15    1
    15    15    16    1
    16    16    17    1
    17    17    18    1
    18    18    19   ar
    19    19    20   ar
    20    20    21   ar
    21    21    22   ar
    22    22    23   ar
    23    18    23   ar
    24    15    23    1
    25    11    24   ar
    26     7    24   ar
    27     2    25    1
    28    25    26   ar
    29    26    27   ar
    30    27    28   ar
    31    28    29   ar
    32    29    30   ar
    33    25    30   ar
    34     3    31    1
    35     4    32    1
    36    16    33    1
    37    16    34    1
    38    17    35    1
    39    17    36    1
    40     8    37    1
    41     9    38    1
    42    10    39    1
    43    19    40    1
    44    20    41    1
    45    21    42    1
    46    22    43    1
    47    24    44    1
    48    26    45    1
    49    27    46    1
    50    28    47    1
    51    29    48    1
    52    30    49    1
@<TRIPOS>MOLECULE
mol97_1_12
 49 52 0 0 0
SMALL
USER_CHARGES
****
VDW energy = 166.84
@<TRIPOS>ATOM
   1 O1        3.4420    -9.1855    -5.2979  O.2     1  <O>11      -0.2687
   2 C1        2.8552    -9.8129    -4.4288  C.2     1  <O>11       0.2601
   3 N1        3.5160   -10.1860    -3.2900  N.am    1  <O>11      -0.2301
   4 N2        4.8400    -9.8550    -3.1240  N.am    1  <O>11      -0.2301
   5 C2        5.4787   -10.1558    -1.9524  C.2     1  <O>11       0.2602
   6 O2        4.8729   -10.7193    -1.0534  O.2     1  <O>11      -0.2687
   7 C3        6.8817    -9.8058    -1.7764  C.ar    1  <O>11       0.0400
   8 C4        7.8916   -10.7027    -2.1641  C.ar    1  <O>11      -0.0495
   9 C5        9.2384   -10.3701    -1.9826  C.ar    1  <O>11      -0.0592
  10 C6        9.5898    -9.1410    -1.4178  C.ar    1  <O>11      -0.0350
  11 C7        8.5854    -8.2448    -1.0386  C.ar    1  <O>11       0.1094
  12 S1        9.0355    -6.6987    -0.3299  S.O2    1  <O>11       0.0747
  13 O3       10.4715    -6.8626     0.4902  O.2     1  <O>11      -0.1498
  14 O4        7.8497    -6.2053     0.7234  O.2     1  <O>11      -0.1498
  15 N3        9.2120    -5.5739    -1.5278  N.pl3   1  <O>11      -0.2024
  16 C8        8.4310    -4.4022    -1.6062  C.3     1  <O>11       0.0390
  17 C9        8.9729    -3.6197    -2.8104  C.3     1  <O>11      -0.0083
  18 C10      10.0152    -4.5469    -3.3413  C.ar    1  <O>11      -0.0232
  19 C11      10.8090    -4.3554    -4.4635  C.ar    1  <O>11      -0.0567
  20 C12      11.7426    -5.3384    -4.7890  C.ar    1  <O>11      -0.0614
  21 C13      11.8730    -6.4857    -3.9945  C.ar    1  <O>11      -0.0599
  22 C14      11.0677    -6.6650    -2.8648  C.ar    1  <O>11      -0.0388
  23 C15      10.1399    -5.6880    -2.5469  C.ar    1  <O>11       0.0545
  24 C16       7.2388    -8.5673    -1.2162  C.ar    1  <O>11      -0.0229
  25 C17       1.4620   -10.1610    -4.6040  C.ar    1  <O>11       0.0382
  26 C18       0.4750    -9.2817    -4.1546  C.ar    1  <O>11      -0.0496
  27 C19      -0.8745    -9.6183    -4.3101  C.ar    1  <O>11      -0.0610
  28 C20      -1.2337   -10.8255    -4.9148  C.ar    1  <O>11      -0.0617
  29 C21      -0.2326   -11.6941    -5.3653  C.ar    1  <O>11      -0.0610
  30 C22       1.1151   -11.3668    -5.2172  C.ar    1  <O>11      -0.0496
  31 H1        3.0270   -10.7100    -2.5640  H       1  <O>11       0.1731
  32 H2        5.3456    -9.3849    -3.8751  H       1  <O>11       0.1731
  33 H3        7.3819    -4.6557    -1.7615  H       1  <O>11       0.0485
  34 H4        8.5334    -3.8152    -0.6958  H       1  <O>11       0.0485
  35 H5        8.1911    -3.4362    -3.5470  H       1  <O>11       0.0330
  36 H6        9.4085    -2.6708    -2.4979  H       1  <O>11       0.0330
  37 H7        7.6387   -11.6106    -2.5845  H       1  <O>11       0.0625
  38 H8        9.9749   -11.0348    -2.2667  H       1  <O>11       0.0618
  39 H9       10.5831    -8.8965    -1.2815  H       1  <O>11       0.0637
  40 H10      10.7106    -3.5068    -5.0424  H       1  <O>11       0.0621
  41 H11      12.3420    -5.2203    -5.6207  H       1  <O>11       0.0618
  42 H12      12.5693    -7.2049    -4.2453  H       1  <O>11       0.0618
  43 H13      11.1636    -7.5094    -2.2794  H       1  <O>11       0.0637
  44 H14       6.5060    -7.8968    -0.9362  H       1  <O>11       0.0645
  45 H15       0.7391    -8.3884    -3.7103  H       1  <O>11       0.0625
  46 H16      -1.6070    -8.9723    -3.9769  H       1  <O>11       0.0618
  47 H17      -2.2287   -11.0748    -5.0282  H       1  <O>11       0.0618
  48 H18      -0.4947   -12.5867    -5.8121  H       1  <O>11       0.0618
  49 H19       1.8481   -12.0089    -5.5570  H       1  <O>11       0.0625
@<TRIPOS>BOND
     1     1     2    2
     2     2     3   am
     3     3     4    1
     4     4     5   am
     5     5     6    2
     6     5     7    1
     7     7     8   ar
     8     8     9   ar
     9     9    10   ar
    10    10    11   ar
    11    11    12    1
    12    12    13    2
    13    12    14    2
    14    12    15    1
    15    15    16    1
    16    16    17    1
    17    17    18    1
    18    18    19   ar
    19    19    20   ar
    20    20    21   ar
    21    21    22   ar
    22    22    23   ar
    23    18    23   ar
    24    15    23    1
    25    11    24   ar
    26     7    24   ar
    27     2    25    1
    28    25    26   ar
    29    26    27   ar
    30    27    28   ar
    31    28    29   ar
    32    29    30   ar
    33    25    30   ar
    34     3    31    1
    35     4    32    1
    36    16    33    1
    37    16    34    1
    38    17    35    1
    39    17    36    1
    40     8    37    1
    41     9    38    1
    42    10    39    1
    43    19    40    1
    44    20    41    1
    45    21    42    1
    46    22    43    1
    47    24    44    1
    48    26    45    1
    49    27    46    1
    50    28    47    1
    51    29    48    1
    52    30    49    1
@<TRIPOS>MOLECULE
mol97_1_13
 49 52 0 0 0
SMALL
USER_CHARGES
****
VDW energy = 167.27
@<TRIPOS>ATOM
   1 O1        3.4420    -9.1855    -5.2979  O.2     1  <O>11      -0.2687
   2 C1        2.8552    -9.8129    -4.4288  C.2     1  <O>11       0.2601
   3 N1        3.5160   -10.1860    -3.2900  N.am    1  <O>11      -0.2301
   4 N2        2.8557   -10.8918    -2.3123  N.am    1  <O>11      -0.2301
   5 C2        3.5356   -11.3355    -1.2114  C.2     1  <O>11       0.2602
   6 O2        2.9489   -11.9637    -0.3430  O.2     1  <O>11      -0.2687
   7 C3        4.9595   -11.0606    -1.0742  C.ar    1  <O>11       0.0400
   8 C4        5.3983    -9.8903    -0.4319  C.ar    1  <O>11      -0.0495
   9 C5        6.7661    -9.6217    -0.3123  C.ar    1  <O>11      -0.0592
  10 C6        7.7070   -10.5178    -0.8273  C.ar    1  <O>11      -0.0350
  11 C7        7.2711   -11.6862    -1.4600  C.ar    1  <O>11       0.1094
  12 S1        8.4613   -12.8103    -2.1042  S.O2    1  <O>11       0.0747
  13 O3        9.4379   -13.3489    -0.8723  O.2     1  <O>11      -0.1498
  14 O4        9.3874   -12.0414    -3.2490  O.2     1  <O>11      -0.1498
  15 N3        7.6872   -14.0969    -2.7944  N.pl3   1  <O>11      -0.2024
  16 C8        7.8131   -14.4310    -4.1588  C.3     1  <O>11       0.0390
  17 C9        6.9987   -15.7180    -4.3498  C.3     1  <O>11      -0.0083
  18 C10       6.4150   -15.9221    -2.9914  C.ar    1  <O>11      -0.0232
  19 C11       5.5521   -16.9353    -2.5975  C.ar    1  <O>11      -0.0567
  20 C12       5.1267   -16.9631    -1.2700  C.ar    1  <O>11      -0.0614
  21 C13       5.5681   -15.9913    -0.3617  C.ar    1  <O>11      -0.0599
  22 C14       6.4396   -14.9767    -0.7717  C.ar    1  <O>11      -0.0388
  23 C15       6.8571   -14.9509    -2.0913  C.ar    1  <O>11       0.0545
  24 C16       5.9084   -11.9633    -1.5838  C.ar    1  <O>11      -0.0229
  25 C17       1.4620   -10.1610    -4.6040  C.ar    1  <O>11       0.0382
  26 C18       1.1306   -11.3695    -5.2196  C.ar    1  <O>11      -0.0496
  27 C19      -0.2153   -11.7063    -5.4031  C.ar    1  <O>11      -0.0610
  28 C20      -1.2229   -10.8409    -4.9699  C.ar    1  <O>11      -0.0617
  29 C21      -0.8747    -9.6354    -4.3492  C.ar    1  <O>11      -0.0610
  30 C22       0.4636    -9.2915    -4.1595  C.ar    1  <O>11      -0.0496
  31 H1        4.4984    -9.9405    -3.1657  H       1  <O>11       0.1731
  32 H2        1.8585   -11.0844    -2.4084  H       1  <O>11       0.1731
  33 H3        7.4104   -13.6329    -4.7832  H       1  <O>11       0.0485
  34 H4        8.8570   -14.6020    -4.4137  H       1  <O>11       0.0485
  35 H5        6.2209   -15.5858    -5.1014  H       1  <O>11       0.0330
  36 H6        7.6418   -16.5507    -4.6342  H       1  <O>11       0.0330
  37 H7        4.7087    -9.2262    -0.0468  H       1  <O>11       0.0625
  38 H8        7.0814    -8.7588     0.1579  H       1  <O>11       0.0618
  39 H9        8.7159   -10.3186    -0.7413  H       1  <O>11       0.0637
  40 H10       5.2334   -17.6500    -3.2702  H       1  <O>11       0.0621
  41 H11       4.4822   -17.7047    -0.9540  H       1  <O>11       0.0618
  42 H12       5.2473   -16.0244     0.6186  H       1  <O>11       0.0618
  43 H13       6.7651   -14.2612    -0.1032  H       1  <O>11       0.0637
  44 H14       5.5980   -12.8305    -2.0493  H       1  <O>11       0.0645
  45 H15       1.8739   -12.0109    -5.5376  H       1  <O>11       0.0625
  46 H16      -0.4644   -12.5974    -5.8601  H       1  <O>11       0.0618
  47 H17      -2.2155   -11.0882    -5.1063  H       1  <O>11       0.0618
  48 H18      -1.6167    -8.9938    -4.0283  H       1  <O>11       0.0618
  49 H19       0.7134    -8.4041    -3.6958  H       1  <O>11       0.0625
@<TRIPOS>BOND
     1     1     2    2
     2     2     3   am
     3     3     4    1
     4     4     5   am
     5     5     6    2
     6     5     7    1
     7     7     8   ar
     8     8     9   ar
     9     9    10   ar
    10    10    11   ar
    11    11    12    1
    12    12    13    2
    13    12    14    2
    14    12    15    1
    15    15    16    1
    16    16    17    1
    17    17    18    1
    18    18    19   ar
    19    19    20   ar
    20    20    21   ar
    21    21    22   ar
    22    22    23   ar
    23    18    23   ar
    24    15    23    1
    25    11    24   ar
    26     7    24   ar
    27     2    25    1
    28    25    26   ar
    29    26    27   ar
    30    27    28   ar
    31    28    29   ar
    32    29    30   ar
    33    25    30   ar
    34     3    31    1
    35     4    32    1
    36    16    33    1
    37    16    34    1
    38    17    35    1
    39    17    36    1
    40     8    37    1
    41     9    38    1
    42    10    39    1
    43    19    40    1
    44    20    41    1
    45    21    42    1
    46    22    43    1
    47    24    44    1
    48    26    45    1
    49    27    46    1
    50    28    47    1
    51    29    48    1
    52    30    49    1
@<TRIPOS>MOLECULE
mol97_1_14
 49 52 0 0 0
SMALL
USER_CHARGES
****
VDW energy = 167.39
@<TRIPOS>ATOM
   1 O1        3.4420    -9.1855    -5.2979  O.2     1  <O>11      -0.2687
   2 C1        2.8552    -9.8129    -4.4288  C.2     1  <O>11       0.2601
   3 N1        3.5160   -10.1860    -3.2900  N.am    1  <O>11      -0.2301
   4 N2        4.8400    -9.8550    -3.1240  N.am    1  <O>11      -0.2301
   5 C2        5.4787   -10.1558    -1.9524  C.2     1  <O>11       0.2602
   6 O2        4.8729   -10.7193    -1.0534  O.2     1  <O>11      -0.2687
   7 C3        6.8817    -9.8058    -1.7764  C.ar    1  <O>11       0.0400
   8 C4        7.5448   -10.1115    -0.5758  C.ar    1  <O>11      -0.0495
   9 C5        8.8888    -9.7632    -0.4036  C.ar    1  <O>11      -0.0592
  10 C6        9.5837    -9.1120    -1.4266  C.ar    1  <O>11      -0.0350
  11 C7        8.9265    -8.8142    -2.6245  C.ar    1  <O>11       0.1094
  12 S1        9.8082    -7.9959    -3.9084  S.O2    1  <O>11       0.0747
  13 O3       11.4369    -8.0497    -3.5829  O.2     1  <O>11      -0.1498
  14 O4        9.3138    -6.4127    -3.9987  O.2     1  <O>11      -0.1498
  15 N3        9.5103    -8.7497    -5.3485  N.pl3   1  <O>11      -0.2024
  16 C8        8.9050    -8.1035    -6.4463  C.3     1  <O>11       0.0390
  17 C9        8.8906    -9.1360    -7.5819  C.3     1  <O>11      -0.0083
  18 C10       9.4623   -10.3422    -6.9140  C.ar    1  <O>11      -0.0232
  19 C11       9.6485   -11.5976    -7.4756  C.ar    1  <O>11      -0.0567
  20 C12      10.2161   -12.5975    -6.6870  C.ar    1  <O>11      -0.0614
  21 C13      10.5907   -12.3316    -5.3628  C.ar    1  <O>11      -0.0599
  22 C14      10.3991   -11.0609    -4.8100  C.ar    1  <O>11      -0.0388
  23 C15       9.8324   -10.0718    -5.5954  C.ar    1  <O>11       0.0545
  24 C16       7.5857    -9.1581    -2.8060  C.ar    1  <O>11      -0.0229
  25 C17       1.4620   -10.1610    -4.6040  C.ar    1  <O>11       0.0382
  26 C18       1.1306   -11.3695    -5.2196  C.ar    1  <O>11      -0.0496
  27 C19      -0.2153   -11.7063    -5.4031  C.ar    1  <O>11      -0.0610
  28 C20      -1.2229   -10.8409    -4.9699  C.ar    1  <O>11      -0.0617
  29 C21      -0.8747    -9.6354    -4.3492  C.ar    1  <O>11      -0.0610
  30 C22       0.4636    -9.2915    -4.1595  C.ar    1  <O>11      -0.0496
  31 H1        3.0270   -10.7100    -2.5640  H       1  <O>11       0.1731
  32 H2        5.3456    -9.3849    -3.8751  H       1  <O>11       0.1731
  33 H3        7.8872    -7.8035    -6.1954  H       1  <O>11       0.0485
  34 H4        9.4819    -7.2280    -6.7376  H       1  <O>11       0.0485
  35 H5        7.8766    -9.3202    -7.9360  H       1  <O>11       0.0330
  36 H6        9.5137    -8.8115    -8.4152  H       1  <O>11       0.0330
  37 H7        7.0382   -10.5950     0.1823  H       1  <O>11       0.0625
  38 H8        9.3688    -9.9879     0.4819  H       1  <O>11       0.0618
  39 H9       10.5744    -8.8528    -1.2988  H       1  <O>11       0.0637
  40 H10       9.3739   -11.7861    -8.4523  H       1  <O>11       0.0621
  41 H11      10.3615   -13.5401    -7.0812  H       1  <O>11       0.0618
  42 H12      11.0116   -13.0801    -4.7904  H       1  <O>11       0.0618
  43 H13      10.6750   -10.8647    -3.8351  H       1  <O>11       0.0637
  44 H14       7.1117    -8.9369    -3.6956  H       1  <O>11       0.0645
  45 H15       1.8739   -12.0109    -5.5376  H       1  <O>11       0.0625
  46 H16      -0.4644   -12.5974    -5.8601  H       1  <O>11       0.0618
  47 H17      -2.2155   -11.0882    -5.1063  H       1  <O>11       0.0618
  48 H18      -1.6167    -8.9938    -4.0283  H       1  <O>11       0.0618
  49 H19       0.7134    -8.4041    -3.6958  H       1  <O>11       0.0625
@<TRIPOS>BOND
     1     1     2    2
     2     2     3   am
     3     3     4    1
     4     4     5   am
     5     5     6    2
     6     5     7    1
     7     7     8   ar
     8     8     9   ar
     9     9    10   ar
    10    10    11   ar
    11    11    12    1
    12    12    13    2
    13    12    14    2
    14    12    15    1
    15    15    16    1
    16    16    17    1
    17    17    18    1
    18    18    19   ar
    19    19    20   ar
    20    20    21   ar
    21    21    22   ar
    22    22    23   ar
    23    18    23   ar
    24    15    23    1
    25    11    24   ar
    26     7    24   ar
    27     2    25    1
    28    25    26   ar
    29    26    27   ar
    30    27    28   ar
    31    28    29   ar
    32    29    30   ar
    33    25    30   ar
    34     3    31    1
    35     4    32    1
    36    16    33    1
    37    16    34    1
    38    17    35    1
    39    17    36    1
    40     8    37    1
    41     9    38    1
    42    10    39    1
    43    19    40    1
    44    20    41    1
    45    21    42    1
    46    22    43    1
    47    24    44    1
    48    26    45    1
    49    27    46    1
    50    28    47    1
    51    29    48    1
    52    30    49    1
@<TRIPOS>MOLECULE
mol97_1_15
 49 52 0 0 0
SMALL
USER_CHARGES
****
VDW energy = 167.95
@<TRIPOS>ATOM
   1 O1        3.4420    -9.1855    -5.2979  O.2     1  <O>11      -0.2687
   2 C1        2.8552    -9.8129    -4.4288  C.2     1  <O>11       0.2601
   3 N1        3.5160   -10.1860    -3.2900  N.am    1  <O>11      -0.2301
   4 N2        4.8400    -9.8550    -3.1240  N.am    1  <O>11      -0.2301
   5 C2        5.4787   -10.1558    -1.9524  C.2     1  <O>11       0.2602
   6 O2        6.6551    -9.8606    -1.8046  O.2     1  <O>11      -0.2687
   7 C3        4.7567   -10.8270    -0.8800  C.ar    1  <O>11       0.0400
   8 C4        4.0609   -10.0787     0.0846  C.ar    1  <O>11      -0.0495
   9 C5        3.3785   -10.7245     1.1212  C.ar    1  <O>11      -0.0592
  10 C6        3.3802   -12.1198     1.2028  C.ar    1  <O>11      -0.0350
  11 C7        4.0662   -12.8653     0.2389  C.ar    1  <O>11       0.1094
  12 S1        4.0624   -14.6213     0.3472  S.O2    1  <O>11       0.0747
  13 O3        4.1802   -15.2704    -1.1781  O.2     1  <O>11      -0.1498
  14 O4        2.6498   -15.1300     1.0577  O.2     1  <O>11      -0.1498
  15 N3        5.3484   -15.1200     1.2575  N.pl3   1  <O>11      -0.2024
  16 C8        5.2075   -15.8455     2.4587  C.3     1  <O>11       0.0390
  17 C9        6.6353   -16.1617     2.9248  C.3     1  <O>11      -0.0083
  18 C10       7.4610   -15.4635     1.8959  C.ar    1  <O>11      -0.0232
  19 C11       8.8460   -15.3886     1.8476  C.ar    1  <O>11      -0.0567
  20 C12       9.4346   -14.6976     0.7893  C.ar    1  <O>11      -0.0614
  21 C13       8.6402   -14.1007    -0.1992  C.ar    1  <O>11      -0.0599
  22 C14       7.2452   -14.1857    -0.1393  C.ar    1  <O>11      -0.0388
  23 C15       6.6647   -14.8701     0.9148  C.ar    1  <O>11       0.0545
  24 C16       4.7497   -12.2300    -0.7995  C.ar    1  <O>11      -0.0229
  25 C17       1.4620   -10.1610    -4.6040  C.ar    1  <O>11       0.0382
  26 C18       1.1306   -11.3695    -5.2196  C.ar    1  <O>11      -0.0496
  27 C19      -0.2153   -11.7063    -5.4031  C.ar    1  <O>11      -0.0610
  28 C20      -1.2229   -10.8409    -4.9699  C.ar    1  <O>11      -0.0617
  29 C21      -0.8747    -9.6354    -4.3492  C.ar    1  <O>11      -0.0610
  30 C22       0.4636    -9.2915    -4.1595  C.ar    1  <O>11      -0.0496
  31 H1        3.0270   -10.7100    -2.5640  H       1  <O>11       0.1731
  32 H2        5.3456    -9.3849    -3.8751  H       1  <O>11       0.1731
  33 H3        4.6905   -15.2435     3.2066  H       1  <O>11       0.0485
  34 H4        4.6534   -16.7656     2.2846  H       1  <O>11       0.0485
  35 H5        6.8229   -15.7645     3.9220  H       1  <O>11       0.0330
  36 H6        6.8209   -17.2357     2.9200  H       1  <O>11       0.0330
  37 H7        4.0532    -9.0482     0.0282  H       1  <O>11       0.0625
  38 H8        2.8721   -10.1687     1.8281  H       1  <O>11       0.0618
  39 H9        2.8789   -12.5963     1.9688  H       1  <O>11       0.0637
  40 H10       9.4256   -15.8332     2.5765  H       1  <O>11       0.0621
  41 H11      10.4626   -14.6251     0.7334  H       1  <O>11       0.0618
  42 H12       9.0885   -13.5937    -0.9784  H       1  <O>11       0.0618
  43 H13       6.6599   -13.7466    -0.8670  H       1  <O>11       0.0637
  44 H14       5.2494   -12.7903    -1.5075  H       1  <O>11       0.0645
  45 H15       1.8739   -12.0109    -5.5376  H       1  <O>11       0.0625
  46 H16      -0.4644   -12.5974    -5.8601  H       1  <O>11       0.0618
  47 H17      -2.2155   -11.0882    -5.1063  H       1  <O>11       0.0618
  48 H18      -1.6167    -8.9938    -4.0283  H       1  <O>11       0.0618
  49 H19       0.7134    -8.4041    -3.6958  H       1  <O>11       0.0625
@<TRIPOS>BOND
     1     1     2    2
     2     2     3   am
     3     3     4    1
     4     4     5   am
     5     5     6    2
     6     5     7    1
     7     7     8   ar
     8     8     9   ar
     9     9    10   ar
    10    10    11   ar
    11    11    12    1
    12    12    13    2
    13    12    14    2
    14    12    15    1
    15    15    16    1
    16    16    17    1
    17    17    18    1
    18    18    19   ar
    19    19    20   ar
    20    20    21   ar
    21    21    22   ar
    22    22    23   ar
    23    18    23   ar
    24    15    23    1
    25    11    24   ar
    26     7    24   ar
    27     2    25    1
    28    25    26   ar
    29    26    27   ar
    30    27    28   ar
    31    28    29   ar
    32    29    30   ar
    33    25    30   ar
    34     3    31    1
    35     4    32    1
    36    16    33    1
    37    16    34    1
    38    17    35    1
    39    17    36    1
    40     8    37    1
    41     9    38    1
    42    10    39    1
    43    19    40    1
    44    20    41    1
    45    21    42    1
    46    22    43    1
    47    24    44    1
    48    26    45    1
    49    27    46    1
    50    28    47    1
    51    29    48    1
    52    30    49    1
@<TRIPOS>MOLECULE
mol97_1_16
 49 52 0 0 0
SMALL
USER_CHARGES
****
VDW energy = 168.26
@<TRIPOS>ATOM
   1 O1        3.4420    -9.1855    -5.2979  O.2     1  <O>11      -0.2687
   2 C1        2.8552    -9.8129    -4.4288  C.2     1  <O>11       0.2601
   3 N1        3.5160   -10.1860    -3.2900  N.am    1  <O>11      -0.2301
   4 N2        4.8400    -9.8550    -3.1240  N.am    1  <O>11      -0.2301
   5 C2        5.4787   -10.1558    -1.9524  C.2     1  <O>11       0.2602
   6 O2        4.8729   -10.7193    -1.0534  O.2     1  <O>11      -0.2687
   7 C3        6.8817    -9.8058    -1.7764  C.ar    1  <O>11       0.0400
   8 C4        7.7899    -9.9561    -2.8380  C.ar    1  <O>11      -0.0495
   9 C5        9.1395    -9.6314    -2.6634  C.ar    1  <O>11      -0.0592
  10 C6        9.5941    -9.1510    -1.4322  C.ar    1  <O>11      -0.0350
  11 C7        8.6894    -8.9940    -0.3774  C.ar    1  <O>11       0.1094
  12 S1        9.2686    -8.3870     1.1690  S.O2    1  <O>11       0.0747
  13 O3        9.9236    -6.8741     0.9597  O.2     1  <O>11      -0.1498
  14 O4       10.4283    -9.4141     1.7686  O.2     1  <O>11      -0.1498
  15 N3        8.0075    -8.2976     2.2332  N.pl3   1  <O>11      -0.2024
  16 C8        7.9658    -9.0232     3.4419  C.3     1  <O>11       0.0390
  17 C9        6.6720    -8.5890     4.1444  C.3     1  <O>11      -0.0083
  18 C10       6.0675    -7.6641     3.1409  C.ar    1  <O>11      -0.0232
  19 C11       4.8532    -6.9999     3.2432  C.ar    1  <O>11      -0.0567
  20 C12       4.4678    -6.1613     2.1982  C.ar    1  <O>11      -0.0614
  21 C13       5.2941    -5.9953     1.0783  C.ar    1  <O>11      -0.0599
  22 C14       6.5166    -6.6694     0.9891  C.ar    1  <O>11      -0.0388
  23 C15       6.8942    -7.5034     2.0275  C.ar    1  <O>11       0.0545
  24 C16       7.3407    -9.3148    -0.5421  C.ar    1  <O>11      -0.0229
  25 C17       1.4620   -10.1610    -4.6040  C.ar    1  <O>11       0.0382
  26 C18       1.1306   -11.3695    -5.2196  C.ar    1  <O>11      -0.0496
  27 C19      -0.2153   -11.7063    -5.4031  C.ar    1  <O>11      -0.0610
  28 C20      -1.2229   -10.8409    -4.9699  C.ar    1  <O>11      -0.0617
  29 C21      -0.8747    -9.6354    -4.3492  C.ar    1  <O>11      -0.0610
  30 C22       0.4636    -9.2915    -4.1595  C.ar    1  <O>11      -0.0496
  31 H1        3.0270   -10.7100    -2.5640  H       1  <O>11       0.1731
  32 H2        5.3456    -9.3849    -3.8751  H       1  <O>11       0.1731
  33 H3        7.9451   -10.0945     3.2403  H       1  <O>11       0.0485
  34 H4        8.8300    -8.7848     4.0586  H       1  <O>11       0.0485
  35 H5        6.0232    -9.4422     4.3407  H       1  <O>11       0.0330
  36 H6        6.8875    -8.0729     5.0798  H       1  <O>11       0.0330
  37 H7        7.4600   -10.3075    -3.7506  H       1  <O>11       0.0625
  38 H8        9.8017    -9.7472    -3.4464  H       1  <O>11       0.0618
  39 H9       10.5900    -8.9137    -1.3024  H       1  <O>11       0.0637
  40 H10       4.2508    -7.1237     4.0719  H       1  <O>11       0.0621
  41 H11       3.5676    -5.6593     2.2496  H       1  <O>11       0.0618
  42 H12       4.9979    -5.3701     0.3126  H       1  <O>11       0.0618
  43 H13       7.1255    -6.5472     0.1650  H       1  <O>11       0.0637
  44 H14       6.6811    -9.1915     0.2420  H       1  <O>11       0.0645
  45 H15       1.8739   -12.0109    -5.5376  H       1  <O>11       0.0625
  46 H16      -0.4644   -12.5974    -5.8601  H       1  <O>11       0.0618
  47 H17      -2.2155   -11.0882    -5.1063  H       1  <O>11       0.0618
  48 H18      -1.6167    -8.9938    -4.0283  H       1  <O>11       0.0618
  49 H19       0.7134    -8.4041    -3.6958  H       1  <O>11       0.0625
@<TRIPOS>BOND
     1     1     2    2
     2     2     3   am
     3     3     4    1
     4     4     5   am
     5     5     6    2
     6     5     7    1
     7     7     8   ar
     8     8     9   ar
     9     9    10   ar
    10    10    11   ar
    11    11    12    1
    12    12    13    2
    13    12    14    2
    14    12    15    1
    15    15    16    1
    16    16    17    1
    17    17    18    1
    18    18    19   ar
    19    19    20   ar
    20    20    21   ar
    21    21    22   ar
    22    22    23   ar
    23    18    23   ar
    24    15    23    1
    25    11    24   ar
    26     7    24   ar
    27     2    25    1
    28    25    26   ar
    29    26    27   ar
    30    27    28   ar
    31    28    29   ar
    32    29    30   ar
    33    25    30   ar
    34     3    31    1
    35     4    32    1
    36    16    33    1
    37    16    34    1
    38    17    35    1
    39    17    36    1
    40     8    37    1
    41     9    38    1
    42    10    39    1
    43    19    40    1
    44    20    41    1
    45    21    42    1
    46    22    43    1
    47    24    44    1
    48    26    45    1
    49    27    46    1
    50    28    47    1
    51    29    48    1
    52    30    49    1
@<TRIPOS>MOLECULE
mol97_1_17
 49 52 0 0 0
SMALL
USER_CHARGES
****
VDW energy = 168.38
@<TRIPOS>ATOM
   1 O1        3.4420    -9.1855    -5.2979  O.2     1  <O>11      -0.2687
   2 C1        2.8552    -9.8129    -4.4288  C.2     1  <O>11       0.2601
   3 N1        3.5160   -10.1860    -3.2900  N.am    1  <O>11      -0.2301
   4 N2        4.8400    -9.8550    -3.1240  N.am    1  <O>11      -0.2301
   5 C2        5.4787   -10.1558    -1.9524  C.2     1  <O>11       0.2602
   6 O2        4.8729   -10.7193    -1.0534  O.2     1  <O>11      -0.2687
   7 C3        6.8817    -9.8058    -1.7764  C.ar    1  <O>11       0.0400
   8 C4        7.8916   -10.7027    -2.1641  C.ar    1  <O>11      -0.0495
   9 C5        9.2384   -10.3701    -1.9826  C.ar    1  <O>11      -0.0592
  10 C6        9.5898    -9.1410    -1.4178  C.ar    1  <O>11      -0.0350
  11 C7        8.5854    -8.2448    -1.0386  C.ar    1  <O>11       0.1094
  12 S1        9.0355    -6.6987    -0.3299  S.O2    1  <O>11       0.0747
  13 O3       10.6549    -6.4242    -0.5826  O.2     1  <O>11      -0.1498
  14 O4        8.7267    -6.7258     1.3019  O.2     1  <O>11      -0.1498
  15 N3        8.1565    -5.4914    -1.0376  N.pl3   1  <O>11      -0.2024
  16 C8        7.2761    -4.6560    -0.3191  C.3     1  <O>11       0.0390
  17 C9        6.7369    -3.6433    -1.3388  C.3     1  <O>11      -0.0083
  18 C10       7.3677    -4.1124    -2.6076  C.ar    1  <O>11      -0.0232
  19 C11       7.1948    -3.5731    -3.8747  C.ar    1  <O>11      -0.0567
  20 C12       7.8888    -4.1479    -4.9386  C.ar    1  <O>11      -0.0614
  21 C13       8.7413    -5.2396    -4.7243  C.ar    1  <O>11      -0.0599
  22 C14       8.9079    -5.7719    -3.4414  C.ar    1  <O>11      -0.0388
  23 C15       8.2147    -5.2003    -2.3883  C.ar    1  <O>11       0.0545
  24 C16       7.2388    -8.5673    -1.2162  C.ar    1  <O>11      -0.0229
  25 C17       1.4620   -10.1610    -4.6040  C.ar    1  <O>11       0.0382
  26 C18       0.8011    -9.7734    -5.7712  C.ar    1  <O>11      -0.0496
  27 C19      -0.5499   -10.0964    -5.9412  C.ar    1  <O>11      -0.0610
  28 C20      -1.2340   -10.8060    -4.9510  C.ar    1  <O>11      -0.0617
  29 C21      -0.5561   -11.1926    -3.7888  C.ar    1  <O>11      -0.0610
  30 C22       0.7909   -10.8776    -3.6108  C.ar    1  <O>11      -0.0496
  31 H1        3.0270   -10.7100    -2.5640  H       1  <O>11       0.1731
  32 H2        5.3456    -9.3849    -3.8751  H       1  <O>11       0.1731
  33 H3        6.4576    -5.2407     0.1018  H       1  <O>11       0.0485
  34 H4        7.8064    -4.1427     0.4805  H       1  <O>11       0.0485
  35 H5        5.6495    -3.6817    -1.3971  H       1  <O>11       0.0330
  36 H6        7.0525    -2.6302    -1.0902  H       1  <O>11       0.0330
  37 H7        7.6387   -11.6106    -2.5845  H       1  <O>11       0.0625
  38 H8        9.9749   -11.0348    -2.2667  H       1  <O>11       0.0618
  39 H9       10.5831    -8.8965    -1.2815  H       1  <O>11       0.0637
  40 H10       6.5684    -2.7671    -4.0255  H       1  <O>11       0.0621
  41 H11       7.7739    -3.7667    -5.8908  H       1  <O>11       0.0618
  42 H12       9.2507    -5.6545    -5.5201  H       1  <O>11       0.0618
  43 H13       9.5357    -6.5755    -3.2831  H       1  <O>11       0.0637
  44 H14       6.5060    -7.8968    -0.9362  H       1  <O>11       0.0645
  45 H15       1.3061    -9.2516    -6.5046  H       1  <O>11       0.0625
  46 H16      -1.0427    -9.8094    -6.8013  H       1  <O>11       0.0618
  47 H17      -2.2307   -11.0431    -5.0753  H       1  <O>11       0.0618
  48 H18      -1.0587   -11.7166    -3.0554  H       1  <O>11       0.0618
  49 H19       1.2863   -11.1709    -2.7543  H       1  <O>11       0.0625
@<TRIPOS>BOND
     1     1     2    2
     2     2     3   am
     3     3     4    1
     4     4     5   am
     5     5     6    2
     6     5     7    1
     7     7     8   ar
     8     8     9   ar
     9     9    10   ar
    10    10    11   ar
    11    11    12    1
    12    12    13    2
    13    12    14    2
    14    12    15    1
    15    15    16    1
    16    16    17    1
    17    17    18    1
    18    18    19   ar
    19    19    20   ar
    20    20    21   ar
    21    21    22   ar
    22    22    23   ar
    23    18    23   ar
    24    15    23    1
    25    11    24   ar
    26     7    24   ar
    27     2    25    1
    28    25    26   ar
    29    26    27   ar
    30    27    28   ar
    31    28    29   ar
    32    29    30   ar
    33    25    30   ar
    34     3    31    1
    35     4    32    1
    36    16    33    1
    37    16    34    1
    38    17    35    1
    39    17    36    1
    40     8    37    1
    41     9    38    1
    42    10    39    1
    43    19    40    1
    44    20    41    1
    45    21    42    1
    46    22    43    1
    47    24    44    1
    48    26    45    1
    49    27    46    1
    50    28    47    1
    51    29    48    1
    52    30    49    1
@<TRIPOS>MOLECULE
mol97_1_18
 49 52 0 0 0
SMALL
USER_CHARGES
****
VDW energy = 168.66
@<TRIPOS>ATOM
   1 O1        3.4420    -9.1855    -5.2979  O.2     1  <O>11      -0.2687
   2 C1        2.8552    -9.8129    -4.4288  C.2     1  <O>11       0.2601
   3 N1        3.5160   -10.1860    -3.2900  N.am    1  <O>11      -0.2301
   4 N2        2.8557   -10.8918    -2.3123  N.am    1  <O>11      -0.2301
   5 C2        3.5356   -11.3355    -1.2114  C.2     1  <O>11       0.2602
   6 O2        4.7298   -11.1041    -1.0964  O.2     1  <O>11      -0.2687
   7 C3        2.8362   -12.0828    -0.1749  C.ar    1  <O>11       0.0400
   8 C4        2.7502   -13.4836    -0.2447  C.ar    1  <O>11      -0.0495
   9 C5        2.0671   -14.1988     0.7449  C.ar    1  <O>11      -0.0592
  10 C6        1.4685   -13.5253     1.8133  C.ar    1  <O>11      -0.0350
  11 C7        1.5602   -12.1318     1.8874  C.ar    1  <O>11       0.1094
  12 S1        0.8056   -11.2911     3.2361  S.O2    1  <O>11       0.0747
  13 O3        1.4708   -11.8239     4.6627  O.2     1  <O>11      -0.1498
  14 O4       -0.8268   -11.5985     3.2377  O.2     1  <O>11      -0.1498
  15 N3        1.0606    -9.6654     3.0842  N.pl3   1  <O>11      -0.2024
  16 C8        0.0133    -8.7294     2.9562  C.3     1  <O>11       0.0390
  17 C9        0.6880    -7.3512     2.9198  C.3     1  <O>11      -0.0083
  18 C10       2.1359    -7.7116     2.9606  C.ar    1  <O>11      -0.0232
  19 C11       3.2145    -6.8395     2.9152  C.ar    1  <O>11      -0.0567
  20 C12       4.5006    -7.3740     2.9816  C.ar    1  <O>11      -0.0614
  21 C13       4.6901    -8.7580     3.0960  C.ar    1  <O>11      -0.0599
  22 C14       3.5936    -9.6255     3.1427  C.ar    1  <O>11      -0.0388
  23 C15       2.3186    -9.0910     3.0734  C.ar    1  <O>11       0.0545
  24 C16       2.2400   -11.4094     0.9050  C.ar    1  <O>11      -0.0229
  25 C17       1.4620   -10.1610    -4.6040  C.ar    1  <O>11       0.0382
  26 C18       1.1306   -11.3695    -5.2196  C.ar    1  <O>11      -0.0496
  27 C19      -0.2153   -11.7063    -5.4031  C.ar    1  <O>11      -0.0610
  28 C20      -1.2229   -10.8409    -4.9699  C.ar    1  <O>11      -0.0617
  29 C21      -0.8747    -9.6354    -4.3492  C.ar    1  <O>11      -0.0610
  30 C22       0.4636    -9.2915    -4.1595  C.ar    1  <O>11      -0.0496
  31 H1        4.4984    -9.9405    -3.1657  H       1  <O>11       0.1731
  32 H2        1.8585   -11.0844    -2.4084  H       1  <O>11       0.1731
  33 H3       -0.5401    -8.9037     2.0330  H       1  <O>11       0.0485
  34 H4       -0.6635    -8.7975     3.8055  H       1  <O>11       0.0485
  35 H5        0.4376    -6.8124     2.0063  H       1  <O>11       0.0330
  36 H6        0.4041    -6.7523     3.7849  H       1  <O>11       0.0330
  37 H7        3.1927   -13.9871    -1.0294  H       1  <O>11       0.0625
  38 H8        2.0051   -15.2272     0.6858  H       1  <O>11       0.0618
  39 H9        0.9625   -14.0524     2.5421  H       1  <O>11       0.0637
  40 H10       3.0684    -5.8212     2.8344  H       1  <O>11       0.0621
  41 H11       5.3188    -6.7460     2.9462  H       1  <O>11       0.0618
  42 H12       5.6472    -9.1406     3.1461  H       1  <O>11       0.0618
  43 H13       3.7327   -10.6445     3.2272  H       1  <O>11       0.0637
  44 H14       2.3046   -10.3816     0.9717  H       1  <O>11       0.0645
  45 H15       1.8739   -12.0109    -5.5376  H       1  <O>11       0.0625
  46 H16      -0.4644   -12.5974    -5.8601  H       1  <O>11       0.0618
  47 H17      -2.2155   -11.0882    -5.1063  H       1  <O>11       0.0618
  48 H18      -1.6167    -8.9938    -4.0283  H       1  <O>11       0.0618
  49 H19       0.7134    -8.4041    -3.6958  H       1  <O>11       0.0625
@<TRIPOS>BOND
     1     1     2    2
     2     2     3   am
     3     3     4    1
     4     4     5   am
     5     5     6    2
     6     5     7    1
     7     7     8   ar
     8     8     9   ar
     9     9    10   ar
    10    10    11   ar
    11    11    12    1
    12    12    13    2
    13    12    14    2
    14    12    15    1
    15    15    16    1
    16    16    17    1
    17    17    18    1
    18    18    19   ar
    19    19    20   ar
    20    20    21   ar
    21    21    22   ar
    22    22    23   ar
    23    18    23   ar
    24    15    23    1
    25    11    24   ar
    26     7    24   ar
    27     2    25    1
    28    25    26   ar
    29    26    27   ar
    30    27    28   ar
    31    28    29   ar
    32    29    30   ar
    33    25    30   ar
    34     3    31    1
    35     4    32    1
    36    16    33    1
    37    16    34    1
    38    17    35    1
    39    17    36    1
    40     8    37    1
    41     9    38    1
    42    10    39    1
    43    19    40    1
    44    20    41    1
    45    21    42    1
    46    22    43    1
    47    24    44    1
    48    26    45    1
    49    27    46    1
    50    28    47    1
    51    29    48    1
    52    30    49    1
@<TRIPOS>MOLECULE
mol97_1_19
 49 52 0 0 0
SMALL
USER_CHARGES
****
VDW energy = 168.84
@<TRIPOS>ATOM
   1 O1        3.4420    -9.1855    -5.2979  O.2     1  <O>11      -0.2687
   2 C1        2.8552    -9.8129    -4.4288  C.2     1  <O>11       0.2601
   3 N1        3.5160   -10.1860    -3.2900  N.am    1  <O>11      -0.2301
   4 N2        4.8400    -9.8550    -3.1240  N.am    1  <O>11      -0.2301
   5 C2        5.4787   -10.1558    -1.9524  C.2     1  <O>11       0.2602
   6 O2        6.6551    -9.8606    -1.8046  O.2     1  <O>11      -0.2687
   7 C3        4.7567   -10.8270    -0.8800  C.ar    1  <O>11       0.0400
   8 C4        4.7305   -12.2302    -0.8110  C.ar    1  <O>11      -0.0495
   9 C5        4.0260   -12.8733     0.2124  C.ar    1  <O>11      -0.0592
  10 C6        3.3459   -12.1244     1.1768  C.ar    1  <O>11      -0.0350
  11 C7        3.3778   -10.7278     1.1131  C.ar    1  <O>11       0.1094
  12 S1        2.5209    -9.7918     2.3317  S.O2    1  <O>11       0.0747
  13 O3        3.1315   -10.1495     3.8353  O.2     1  <O>11      -0.1498
  14 O4        0.9042   -10.1707     2.2864  O.2     1  <O>11      -0.1498
  15 N3        2.7182    -8.1795     2.0276  N.pl3   1  <O>11      -0.2024
  16 C8        1.6424    -7.3091     1.7551  C.3     1  <O>11       0.0390
  17 C9        2.2624    -5.9124     1.6110  C.3     1  <O>11      -0.0083
  18 C10       3.7195    -6.2013     1.7575  C.ar    1  <O>11      -0.0232
  19 C11       4.7633    -5.2904     1.6754  C.ar    1  <O>11      -0.0567
  20 C12       6.0645    -5.7571     1.8572  C.ar    1  <O>11      -0.0614
  21 C13       6.3030    -7.1128     2.1207  C.ar    1  <O>11      -0.0599
  22 C14       5.2411    -8.0199     2.2029  C.ar    1  <O>11      -0.0388
  23 C15       3.9511    -7.5530     2.0187  C.ar    1  <O>11       0.0545
  24 C16       4.0785   -10.0769     0.0960  C.ar    1  <O>11      -0.0229
  25 C17       1.4620   -10.1610    -4.6040  C.ar    1  <O>11       0.0382
  26 C18       1.1306   -11.3695    -5.2196  C.ar    1  <O>11      -0.0496
  27 C19      -0.2153   -11.7063    -5.4031  C.ar    1  <O>11      -0.0610
  28 C20      -1.2229   -10.8409    -4.9699  C.ar    1  <O>11      -0.0617
  29 C21      -0.8747    -9.6354    -4.3492  C.ar    1  <O>11      -0.0610
  30 C22       0.4636    -9.2915    -4.1595  C.ar    1  <O>11      -0.0496
  31 H1        3.0270   -10.7100    -2.5640  H       1  <O>11       0.1731
  32 H2        5.3456    -9.3849    -3.8751  H       1  <O>11       0.1731
  33 H3        1.1454    -7.5992     0.8290  H       1  <O>11       0.0485
  34 H4        0.9255    -7.3227     2.5735  H       1  <O>11       0.0485
  35 H5        2.0387    -5.4790     0.6365  H       1  <O>11       0.0330
  36 H6        1.9100    -5.2436     2.3962  H       1  <O>11       0.0330
  37 H7        5.2332   -12.7888    -1.5183  H       1  <O>11       0.0625
  38 H8        4.0083   -13.9043     0.2553  H       1  <O>11       0.0618
  39 H9        2.8241   -12.5986     1.9304  H       1  <O>11       0.0637
  40 H10       4.5809    -4.2927     1.4845  H       1  <O>11       0.0621
  41 H11       6.8576    -5.0995     1.7974  H       1  <O>11       0.0618
  42 H12       7.2707    -7.4450     2.2553  H       1  <O>11       0.0618
  43 H13       5.4163    -9.0181     2.3972  H       1  <O>11       0.0637
  44 H14       4.0984    -9.0458     0.0609  H       1  <O>11       0.0645
  45 H15       1.8739   -12.0109    -5.5376  H       1  <O>11       0.0625
  46 H16      -0.4644   -12.5974    -5.8601  H       1  <O>11       0.0618
  47 H17      -2.2155   -11.0882    -5.1063  H       1  <O>11       0.0618
  48 H18      -1.6167    -8.9938    -4.0283  H       1  <O>11       0.0618
  49 H19       0.7134    -8.4041    -3.6958  H       1  <O>11       0.0625
@<TRIPOS>BOND
     1     1     2    2
     2     2     3   am
     3     3     4    1
     4     4     5   am
     5     5     6    2
     6     5     7    1
     7     7     8   ar
     8     8     9   ar
     9     9    10   ar
    10    10    11   ar
    11    11    12    1
    12    12    13    2
    13    12    14    2
    14    12    15    1
    15    15    16    1
    16    16    17    1
    17    17    18    1
    18    18    19   ar
    19    19    20   ar
    20    20    21   ar
    21    21    22   ar
    22    22    23   ar
    23    18    23   ar
    24    15    23    1
    25    11    24   ar
    26     7    24   ar
    27     2    25    1
    28    25    26   ar
    29    26    27   ar
    30    27    28   ar
    31    28    29   ar
    32    29    30   ar
    33    25    30   ar
    34     3    31    1
    35     4    32    1
    36    16    33    1
    37    16    34    1
    38    17    35    1
    39    17    36    1
    40     8    37    1
    41     9    38    1
    42    10    39    1
    43    19    40    1
    44    20    41    1
    45    21    42    1
    46    22    43    1
    47    24    44    1
    48    26    45    1
    49    27    46    1
    50    28    47    1
    51    29    48    1
    52    30    49    1
@<TRIPOS>MOLECULE
mol97_1_20
 49 52 0 0 0
SMALL
USER_CHARGES
****
VDW energy = 172.15
@<TRIPOS>ATOM
   1 O1        3.4420    -9.1855    -5.2979  O.2     1  <O>11      -0.2687
   2 C1        2.8552    -9.8129    -4.4288  C.2     1  <O>11       0.2601
   3 N1        3.5160   -10.1860    -3.2900  N.am    1  <O>11      -0.2301
   4 N2        4.8400    -9.8550    -3.1240  N.am    1  <O>11      -0.2301
   5 C2        5.4787   -10.1558    -1.9524  C.2     1  <O>11       0.2602
   6 O2        4.8729   -10.7193    -1.0534  O.2     1  <O>11      -0.2687
   7 C3        6.8817    -9.8058    -1.7764  C.ar    1  <O>11       0.0400
   8 C4        7.5448   -10.1115    -0.5758  C.ar    1  <O>11      -0.0495
   9 C5        8.8888    -9.7632    -0.4036  C.ar    1  <O>11      -0.0592
  10 C6        9.5837    -9.1120    -1.4266  C.ar    1  <O>11      -0.0350
  11 C7        8.9265    -8.8142    -2.6245  C.ar    1  <O>11       0.1094
  12 S1        9.8082    -7.9959    -3.9084  S.O2    1  <O>11       0.0747
  13 O3       11.1046    -8.9273    -4.3704  O.2     1  <O>11      -0.1498
  14 O4       10.3510    -6.5256    -3.3583  O.2     1  <O>11      -0.1498
  15 N3        8.8079    -7.7652    -5.2034  N.pl3   1  <O>11      -0.2024
  16 C8        8.4818    -6.4892    -5.7080  C.3     1  <O>11       0.0390
  17 C9        7.6017    -6.7405    -6.9402  C.3     1  <O>11      -0.0083
  18 C10       7.4721    -8.2275    -6.9328  C.ar    1  <O>11      -0.0232
  19 C11       6.7419    -9.0059    -7.8199  C.ar    1  <O>11      -0.0567
  20 C12       6.7591   -10.3902    -7.6543  C.ar    1  <O>11      -0.0614
  21 C13       7.5017   -10.9729    -6.6182  C.ar    1  <O>11      -0.0599
  22 C14       8.2350   -10.1764    -5.7324  C.ar    1  <O>11      -0.0388
  23 C15       8.2128    -8.8022    -5.8985  C.ar    1  <O>11       0.0545
  24 C16       7.5857    -9.1581    -2.8060  C.ar    1  <O>11      -0.0229
  25 C17       1.4620   -10.1610    -4.6040  C.ar    1  <O>11       0.0382
  26 C18       1.1306   -11.3695    -5.2196  C.ar    1  <O>11      -0.0496
  27 C19      -0.2153   -11.7063    -5.4031  C.ar    1  <O>11      -0.0610
  28 C20      -1.2229   -10.8409    -4.9699  C.ar    1  <O>11      -0.0617
  29 C21      -0.8747    -9.6354    -4.3492  C.ar    1  <O>11      -0.0610
  30 C22       0.4636    -9.2915    -4.1595  C.ar    1  <O>11      -0.0496
  31 H1        3.0270   -10.7100    -2.5640  H       1  <O>11       0.1731
  32 H2        5.3456    -9.3849    -3.8751  H       1  <O>11       0.1731
  33 H3        7.9317    -5.9157    -4.9615  H       1  <O>11       0.0485
  34 H4        9.3838    -5.9500    -5.9903  H       1  <O>11       0.0485
  35 H5        6.6311    -6.2560    -6.8383  H       1  <O>11       0.0330
  36 H6        8.0900    -6.3897    -7.8493  H       1  <O>11       0.0330
  37 H7        7.0382   -10.5950     0.1823  H       1  <O>11       0.0625
  38 H8        9.3688    -9.9879     0.4819  H       1  <O>11       0.0618
  39 H9       10.5744    -8.8528    -1.2988  H       1  <O>11       0.0637
  40 H10       6.1999    -8.5711    -8.5829  H       1  <O>11       0.0621
  41 H11       6.2211   -10.9900    -8.2992  H       1  <O>11       0.0618
  42 H12       7.5075   -11.9990    -6.5078  H       1  <O>11       0.0618
  43 H13       8.7821   -10.6050    -4.9696  H       1  <O>11       0.0637
  44 H14       7.1117    -8.9369    -3.6956  H       1  <O>11       0.0645
  45 H15       1.8739   -12.0109    -5.5376  H       1  <O>11       0.0625
  46 H16      -0.4644   -12.5974    -5.8601  H       1  <O>11       0.0618
  47 H17      -2.2155   -11.0882    -5.1063  H       1  <O>11       0.0618
  48 H18      -1.6167    -8.9938    -4.0283  H       1  <O>11       0.0618
  49 H19       0.7134    -8.4041    -3.6958  H       1  <O>11       0.0625
@<TRIPOS>BOND
     1     1     2    2
     2     2     3   am
     3     3     4    1
     4     4     5   am
     5     5     6    2
     6     5     7    1
     7     7     8   ar
     8     8     9   ar
     9     9    10   ar
    10    10    11   ar
    11    11    12    1
    12    12    13    2
    13    12    14    2
    14    12    15    1
    15    15    16    1
    16    16    17    1
    17    17    18    1
    18    18    19   ar
    19    19    20   ar
    20    20    21   ar
    21    21    22   ar
    22    22    23   ar
    23    18    23   ar
    24    15    23    1
    25    11    24   ar
    26     7    24   ar
    27     2    25    1
    28    25    26   ar
    29    26    27   ar
    30    27    28   ar
    31    28    29   ar
    32    29    30   ar
    33    25    30   ar
    34     3    31    1
    35     4    32    1
    36    16    33    1
    37    16    34    1
    38    17    35    1
    39    17    36    1
    40     8    37    1
    41     9    38    1
    42    10    39    1
    43    19    40    1
    44    20    41    1
    45    21    42    1
    46    22    43    1
    47    24    44    1
    48    26    45    1
    49    27    46    1
    50    28    47    1
    51    29    48    1
    52    30    49    1
@<TRIPOS>MOLECULE
mol97_1_21
 49 52 0 0 0
SMALL
USER_CHARGES
****
VDW energy = 172.27
@<TRIPOS>ATOM
   1 O1        3.4420    -9.1855    -5.2979  O.2     1  <O>11      -0.2687
   2 C1        2.8552    -9.8129    -4.4288  C.2     1  <O>11       0.2601
   3 N1        3.5160   -10.1860    -3.2900  N.am    1  <O>11      -0.2301
   4 N2        4.8400    -9.8550    -3.1240  N.am    1  <O>11      -0.2301
   5 C2        5.2216    -8.5414    -3.1205  C.2     1  <O>11       0.2602
   6 O2        4.3857    -7.6619    -3.2643  O.2     1  <O>11      -0.2687
   7 C3        6.6243    -8.1903    -2.9440  C.ar    1  <O>11       0.0400
   8 C4        7.1513    -7.9962    -1.6560  C.ar    1  <O>11      -0.0495
   9 C5        8.4956    -7.6465    -1.4890  C.ar    1  <O>11      -0.0592
  10 C6        9.3260    -7.4917    -2.6024  C.ar    1  <O>11      -0.0350
  11 C7        8.8040    -7.6920    -3.8843  C.ar    1  <O>11       0.1094
  12 S1        9.8558    -7.4970    -5.2810  S.O2    1  <O>11       0.0747
  13 O3       11.4400    -7.4593    -4.7802  O.2     1  <O>11      -0.1498
  14 O4        9.4872    -6.0762    -6.0586  O.2     1  <O>11      -0.1498
  15 N3        9.6370    -8.7657    -6.3171  N.pl3   1  <O>11      -0.2024
  16 C8        9.1826    -8.6087    -7.6429  C.3     1  <O>11       0.0390
  17 C9        9.1973   -10.0149    -8.2580  C.3     1  <O>11      -0.0083
  18 C10       9.6172   -10.8575    -7.0997  C.ar    1  <O>11      -0.0232
  19 C11       9.7629   -12.2376    -7.0811  C.ar    1  <O>11      -0.0567
  20 C12      10.1826   -12.8425    -5.8971  C.ar    1  <O>11      -0.0614
  21 C13      10.4530   -12.0684    -4.7604  C.ar    1  <O>11      -0.0599
  22 C14      10.3040   -10.6779    -4.7938  C.ar    1  <O>11      -0.0388
  23 C15       9.8841   -10.0815    -5.9704  C.ar    1  <O>11       0.0545
  24 C16       7.4640    -8.0416    -4.0611  C.ar    1  <O>11      -0.0229
  25 C17       1.4620   -10.1610    -4.6040  C.ar    1  <O>11       0.0382
  26 C18       1.1306   -11.3695    -5.2196  C.ar    1  <O>11      -0.0496
  27 C19      -0.2153   -11.7063    -5.4031  C.ar    1  <O>11      -0.0610
  28 C20      -1.2229   -10.8409    -4.9699  C.ar    1  <O>11      -0.0617
  29 C21      -0.8747    -9.6354    -4.3492  C.ar    1  <O>11      -0.0610
  30 C22       0.4636    -9.2915    -4.1595  C.ar    1  <O>11      -0.0496
  31 H1        3.0270   -10.7100    -2.5640  H       1  <O>11       0.1731
  32 H2        5.5375   -10.5896    -3.0036  H       1  <O>11       0.1731
  33 H3        8.1703    -8.2034    -7.6512  H       1  <O>11       0.0485
  34 H4        9.8452    -7.9463    -8.1962  H       1  <O>11       0.0485
  35 H5        8.2093   -10.2989    -8.6193  H       1  <O>11       0.0330
  36 H6        9.9156   -10.0782    -9.0753  H       1  <O>11       0.0330
  37 H7        6.5441    -8.1121    -0.8296  H       1  <O>11       0.0625
  38 H8        8.8754    -7.5024    -0.5403  H       1  <O>11       0.0618
  39 H9       10.3171    -7.2313    -2.4796  H       1  <O>11       0.0637
  40 H10       9.5656   -12.8017    -7.9224  H       1  <O>11       0.0621
  41 H11      10.2950   -13.8676    -5.8575  H       1  <O>11       0.0618
  42 H12      10.7649   -12.5284    -3.8909  H       1  <O>11       0.0618
  43 H13      10.5032   -10.1075    -3.9572  H       1  <O>11       0.0637
  44 H14       7.0904    -8.1907    -5.0114  H       1  <O>11       0.0645
  45 H15       1.8739   -12.0109    -5.5376  H       1  <O>11       0.0625
  46 H16      -0.4644   -12.5974    -5.8601  H       1  <O>11       0.0618
  47 H17      -2.2155   -11.0882    -5.1063  H       1  <O>11       0.0618
  48 H18      -1.6167    -8.9938    -4.0283  H       1  <O>11       0.0618
  49 H19       0.7134    -8.4041    -3.6958  H       1  <O>11       0.0625
@<TRIPOS>BOND
     1     1     2    2
     2     2     3   am
     3     3     4    1
     4     4     5   am
     5     5     6    2
     6     5     7    1
     7     7     8   ar
     8     8     9   ar
     9     9    10   ar
    10    10    11   ar
    11    11    12    1
    12    12    13    2
    13    12    14    2
    14    12    15    1
    15    15    16    1
    16    16    17    1
    17    17    18    1
    18    18    19   ar
    19    19    20   ar
    20    20    21   ar
    21    21    22   ar
    22    22    23   ar
    23    18    23   ar
    24    15    23    1
    25    11    24   ar
    26     7    24   ar
    27     2    25    1
    28    25    26   ar
    29    26    27   ar
    30    27    28   ar
    31    28    29   ar
    32    29    30   ar
    33    25    30   ar
    34     3    31    1
    35     4    32    1
    36    16    33    1
    37    16    34    1
    38    17    35    1
    39    17    36    1
    40     8    37    1
    41     9    38    1
    42    10    39    1
    43    19    40    1
    44    20    41    1
    45    21    42    1
    46    22    43    1
    47    24    44    1
    48    26    45    1
    49    27    46    1
    50    28    47    1
    51    29    48    1
    52    30    49    1
@<TRIPOS>MOLECULE
mol97_1_22
 49 52 0 0 0
SMALL
USER_CHARGES
****
VDW energy = 175.13
@<TRIPOS>ATOM
   1 O1        3.4420    -9.1855    -5.2979  O.2     1  <O>11      -0.2687
   2 C1        2.8552    -9.8129    -4.4288  C.2     1  <O>11       0.2601
   3 N1        3.5160   -10.1860    -3.2900  N.am    1  <O>11      -0.2301
   4 N2        4.8400    -9.8550    -3.1240  N.am    1  <O>11      -0.2301
   5 C2        5.4787   -10.1558    -1.9524  C.2     1  <O>11       0.2602
   6 O2        4.8729   -10.7193    -1.0534  O.2     1  <O>11      -0.2687
   7 C3        6.8817    -9.8058    -1.7764  C.ar    1  <O>11       0.0400
   8 C4        7.5448   -10.1115    -0.5758  C.ar    1  <O>11      -0.0495
   9 C5        8.8888    -9.7632    -0.4036  C.ar    1  <O>11      -0.0592
  10 C6        9.5837    -9.1120    -1.4266  C.ar    1  <O>11      -0.0350
  11 C7        8.9265    -8.8142    -2.6245  C.ar    1  <O>11       0.1094
  12 S1        9.8082    -7.9959    -3.9084  S.O2    1  <O>11       0.0747
  13 O3       11.1046    -8.9273    -4.3704  O.2     1  <O>11      -0.1498
  14 O4       10.3510    -6.5256    -3.3583  O.2     1  <O>11      -0.1498
  15 N3        8.8079    -7.7652    -5.2034  N.pl3   1  <O>11      -0.2024
  16 C8        8.4818    -6.4892    -5.7080  C.3     1  <O>11       0.0390
  17 C9        7.6017    -6.7405    -6.9402  C.3     1  <O>11      -0.0083
  18 C10       7.4721    -8.2275    -6.9328  C.ar    1  <O>11      -0.0232
  19 C11       6.7419    -9.0059    -7.8199  C.ar    1  <O>11      -0.0567
  20 C12       6.7591   -10.3902    -7.6543  C.ar    1  <O>11      -0.0614
  21 C13       7.5017   -10.9729    -6.6182  C.ar    1  <O>11      -0.0599
  22 C14       8.2350   -10.1764    -5.7324  C.ar    1  <O>11      -0.0388
  23 C15       8.2128    -8.8022    -5.8985  C.ar    1  <O>11       0.0545
  24 C16       7.5857    -9.1581    -2.8060  C.ar    1  <O>11      -0.0229
  25 C17       1.4620   -10.1610    -4.6040  C.ar    1  <O>11       0.0382
  26 C18       0.5946   -10.0837    -3.5126  C.ar    1  <O>11      -0.0496
  27 C19      -0.7516   -10.4309    -3.6727  C.ar    1  <O>11      -0.0610
  28 C20      -1.2274   -10.8492    -4.9180  C.ar    1  <O>11      -0.0617
  29 C21      -0.3466   -10.9160    -6.0041  C.ar    1  <O>11      -0.0610
  30 C22       0.9963   -10.5699    -5.8555  C.ar    1  <O>11      -0.0496
  31 H1        3.0270   -10.7100    -2.5640  H       1  <O>11       0.1731
  32 H2        5.3456    -9.3849    -3.8751  H       1  <O>11       0.1731
  33 H3        7.9317    -5.9157    -4.9615  H       1  <O>11       0.0485
  34 H4        9.3838    -5.9500    -5.9903  H       1  <O>11       0.0485
  35 H5        6.6311    -6.2560    -6.8383  H       1  <O>11       0.0330
  36 H6        8.0900    -6.3897    -7.8493  H       1  <O>11       0.0330
  37 H7        7.0382   -10.5950     0.1823  H       1  <O>11       0.0625
  38 H8        9.3688    -9.9879     0.4819  H       1  <O>11       0.0618
  39 H9       10.5744    -8.8528    -1.2988  H       1  <O>11       0.0637
  40 H10       6.1999    -8.5711    -8.5829  H       1  <O>11       0.0621
  41 H11       6.2211   -10.9900    -8.2992  H       1  <O>11       0.0618
  42 H12       7.5075   -11.9990    -6.5078  H       1  <O>11       0.0618
  43 H13       8.7821   -10.6050    -4.9696  H       1  <O>11       0.0637
  44 H14       7.1117    -8.9369    -3.6956  H       1  <O>11       0.0645
  45 H15       0.9443    -9.7723    -2.5929  H       1  <O>11       0.0625
  46 H16      -1.3953   -10.3778    -2.8679  H       1  <O>11       0.0618
  47 H17      -2.2197   -11.1068    -5.0362  H       1  <O>11       0.0618
  48 H18      -0.6950   -11.2248    -6.9251  H       1  <O>11       0.0618
  49 H19       1.6389   -10.6156    -6.6617  H       1  <O>11       0.0625
@<TRIPOS>BOND
     1     1     2    2
     2     2     3   am
     3     3     4    1
     4     4     5   am
     5     5     6    2
     6     5     7    1
     7     7     8   ar
     8     8     9   ar
     9     9    10   ar
    10    10    11   ar
    11    11    12    1
    12    12    13    2
    13    12    14    2
    14    12    15    1
    15    15    16    1
    16    16    17    1
    17    17    18    1
    18    18    19   ar
    19    19    20   ar
    20    20    21   ar
    21    21    22   ar
    22    22    23   ar
    23    18    23   ar
    24    15    23    1
    25    11    24   ar
    26     7    24   ar
    27     2    25    1
    28    25    26   ar
    29    26    27   ar
    30    27    28   ar
    31    28    29   ar
    32    29    30   ar
    33    25    30   ar
    34     3    31    1
    35     4    32    1
    36    16    33    1
    37    16    34    1
    38    17    35    1
    39    17    36    1
    40     8    37    1
    41     9    38    1
    42    10    39    1
    43    19    40    1
    44    20    41    1
    45    21    42    1
    46    22    43    1
    47    24    44    1
    48    26    45    1
    49    27    46    1
    50    28    47    1
    51    29    48    1
    52    30    49    1
@<TRIPOS>MOLECULE
mol97_1_23
 49 52 0 0 0
SMALL
USER_CHARGES
****
VDW energy = 177.48
@<TRIPOS>ATOM
   1 O1        3.4420    -9.1855    -5.2979  O.2     1  <O>11      -0.2687
   2 C1        2.8552    -9.8129    -4.4288  C.2     1  <O>11       0.2601
   3 N1        3.5160   -10.1860    -3.2900  N.am    1  <O>11      -0.2301
   4 N2        4.8400    -9.8550    -3.1240  N.am    1  <O>11      -0.2301
   5 C2        5.2216    -8.5414    -3.1205  C.2     1  <O>11       0.2602
   6 O2        4.3857    -7.6619    -3.2643  O.2     1  <O>11      -0.2687
   7 C3        6.6243    -8.1903    -2.9440  C.ar    1  <O>11       0.0400
   8 C4        7.1513    -7.9962    -1.6560  C.ar    1  <O>11      -0.0495
   9 C5        8.4956    -7.6465    -1.4890  C.ar    1  <O>11      -0.0592
  10 C6        9.3260    -7.4917    -2.6024  C.ar    1  <O>11      -0.0350
  11 C7        8.8040    -7.6920    -3.8843  C.ar    1  <O>11       0.1094
  12 S1        9.8558    -7.4970    -5.2810  S.O2    1  <O>11       0.0747
  13 O3        9.3445    -8.4997    -6.5036  O.2     1  <O>11      -0.1498
  14 O4       11.4145    -7.8876    -4.8602  O.2     1  <O>11      -0.1498
  15 N3        9.8007    -5.9282    -5.7975  N.pl3   1  <O>11      -0.2024
  16 C8       10.9329    -5.0880    -5.8331  C.3     1  <O>11       0.0390
  17 C9       10.4506    -3.7638    -6.4412  C.3     1  <O>11      -0.0083
  18 C10       8.9897    -4.0150    -6.6167  C.ar    1  <O>11      -0.0232
  19 C11       8.0426    -3.1254    -7.1040  C.ar    1  <O>11      -0.0567
  20 C12       6.7209    -3.5570    -7.2072  C.ar    1  <O>11      -0.0614
  21 C13       6.3672    -4.8599    -6.8306  C.ar    1  <O>11      -0.0599
  22 C14       7.3326    -5.7471    -6.3428  C.ar    1  <O>11      -0.0388
  23 C15       8.6432    -5.3135    -6.2390  C.ar    1  <O>11       0.0545
  24 C16       7.4640    -8.0416    -4.0611  C.ar    1  <O>11      -0.0229
  25 C17       1.4620   -10.1610    -4.6040  C.ar    1  <O>11       0.0382
  26 C18       1.1306   -11.3695    -5.2196  C.ar    1  <O>11      -0.0496
  27 C19      -0.2153   -11.7063    -5.4031  C.ar    1  <O>11      -0.0610
  28 C20      -1.2229   -10.8409    -4.9699  C.ar    1  <O>11      -0.0617
  29 C21      -0.8747    -9.6354    -4.3492  C.ar    1  <O>11      -0.0610
  30 C22       0.4636    -9.2915    -4.1595  C.ar    1  <O>11      -0.0496
  31 H1        3.0270   -10.7100    -2.5640  H       1  <O>11       0.1731
  32 H2        5.5375   -10.5896    -3.0036  H       1  <O>11       0.1731
  33 H3       11.3149    -4.9238    -4.8251  H       1  <O>11       0.0485
  34 H4       11.7130    -5.5270    -6.4517  H       1  <O>11       0.0485
  35 H5       10.6324    -2.9287    -5.7652  H       1  <O>11       0.0330
  36 H6       10.9372    -3.5707    -7.3972  H       1  <O>11       0.0330
  37 H7        6.5441    -8.1121    -0.8296  H       1  <O>11       0.0625
  38 H8        8.8754    -7.5024    -0.5403  H       1  <O>11       0.0618
  39 H9       10.3171    -7.2313    -2.4796  H       1  <O>11       0.0637
  40 H10       8.3099    -2.1685    -7.3830  H       1  <O>11       0.0621
  41 H11       5.9978    -2.9126    -7.5636  H       1  <O>11       0.0618
  42 H12       5.3857    -5.1676    -6.9138  H       1  <O>11       0.0618
  43 H13       7.0727    -6.7065    -6.0656  H       1  <O>11       0.0637
  44 H14       7.0904    -8.1907    -5.0114  H       1  <O>11       0.0645
  45 H15       1.8739   -12.0109    -5.5376  H       1  <O>11       0.0625
  46 H16      -0.4644   -12.5974    -5.8601  H       1  <O>11       0.0618
  47 H17      -2.2155   -11.0882    -5.1063  H       1  <O>11       0.0618
  48 H18      -1.6167    -8.9938    -4.0283  H       1  <O>11       0.0618
  49 H19       0.7134    -8.4041    -3.6958  H       1  <O>11       0.0625
@<TRIPOS>BOND
     1     1     2    2
     2     2     3   am
     3     3     4    1
     4     4     5   am
     5     5     6    2
     6     5     7    1
     7     7     8   ar
     8     8     9   ar
     9     9    10   ar
    10    10    11   ar
    11    11    12    1
    12    12    13    2
    13    12    14    2
    14    12    15    1
    15    15    16    1
    16    16    17    1
    17    17    18    1
    18    18    19   ar
    19    19    20   ar
    20    20    21   ar
    21    21    22   ar
    22    22    23   ar
    23    18    23   ar
    24    15    23    1
    25    11    24   ar
    26     7    24   ar
    27     2    25    1
    28    25    26   ar
    29    26    27   ar
    30    27    28   ar
    31    28    29   ar
    32    29    30   ar
    33    25    30   ar
    34     3    31    1
    35     4    32    1
    36    16    33    1
    37    16    34    1
    38    17    35    1
    39    17    36    1
    40     8    37    1
    41     9    38    1
    42    10    39    1
    43    19    40    1
    44    20    41    1
    45    21    42    1
    46    22    43    1
    47    24    44    1
    48    26    45    1
    49    27    46    1
    50    28    47    1
    51    29    48    1
    52    30    49    1
@<TRIPOS>MOLECULE
mol97_1_24
 49 52 0 0 0
SMALL
USER_CHARGES
****
VDW energy = 178.39
@<TRIPOS>ATOM
   1 O1        3.4420    -9.1855    -5.2979  O.2     1  <O>11      -0.2687
   2 C1        2.8552    -9.8129    -4.4288  C.2     1  <O>11       0.2601
   3 N1        3.5160   -10.1860    -3.2900  N.am    1  <O>11      -0.2301
   4 N2        4.8400    -9.8550    -3.1240  N.am    1  <O>11      -0.2301
   5 C2        5.4787   -10.1558    -1.9524  C.2     1  <O>11       0.2602
   6 O2        4.8729   -10.7193    -1.0534  O.2     1  <O>11      -0.2687
   7 C3        6.8817    -9.8058    -1.7764  C.ar    1  <O>11       0.0400
   8 C4        7.2404    -8.5589    -1.2368  C.ar    1  <O>11      -0.0495
   9 C5        8.5886    -8.2194    -1.0802  C.ar    1  <O>11      -0.0592
  10 C6        9.5893    -9.1199    -1.4556  C.ar    1  <O>11      -0.0350
  11 C7        9.2330   -10.3640    -1.9857  C.ar    1  <O>11       0.1094
  12 S1       10.4982   -11.4931    -2.4543  S.O2    1  <O>11       0.0747
  13 O3       11.4300   -11.8619    -1.1287  O.2     1  <O>11      -0.1498
  14 O4       11.4515   -10.8024    -3.6261  O.2     1  <O>11      -0.1498
  15 N3        9.8119   -12.8753    -3.0455  N.pl3   1  <O>11      -0.2024
  16 C8        8.9473   -13.6920    -2.2875  C.3     1  <O>11       0.0390
  17 C9        8.4907   -14.8090    -3.2361  C.3     1  <O>11      -0.0083
  18 C10       9.2661   -14.5031    -4.4742  C.ar    1  <O>11      -0.0232
  19 C11       9.2655   -15.2256    -5.6592  C.ar    1  <O>11      -0.0567
  20 C12      10.0514   -14.7656    -6.7149  C.ar    1  <O>11      -0.0614
  21 C13      10.8162   -13.5993    -6.5760  C.ar    1  <O>11      -0.0599
  22 C14      10.8059   -12.8795    -5.3765  C.ar    1  <O>11      -0.0388
  23 C15      10.0265   -13.3413    -4.3298  C.ar    1  <O>11       0.0545
  24 C16       7.8904   -10.7121    -2.1453  C.ar    1  <O>11      -0.0229
  25 C17       1.4620   -10.1610    -4.6040  C.ar    1  <O>11       0.0382
  26 C18       0.4750    -9.2817    -4.1546  C.ar    1  <O>11      -0.0496
  27 C19      -0.8745    -9.6183    -4.3101  C.ar    1  <O>11      -0.0610
  28 C20      -1.2337   -10.8255    -4.9148  C.ar    1  <O>11      -0.0617
  29 C21      -0.2326   -11.6941    -5.3653  C.ar    1  <O>11      -0.0610
  30 C22       1.1151   -11.3668    -5.2172  C.ar    1  <O>11      -0.0496
  31 H1        3.0270   -10.7100    -2.5640  H       1  <O>11       0.1731
  32 H2        5.3456    -9.3849    -3.8751  H       1  <O>11       0.1731
  33 H3        9.4771   -14.1147    -1.4334  H       1  <O>11       0.0485
  34 H4        8.0913   -13.1182    -1.9382  H       1  <O>11       0.0485
  35 H5        8.7444   -15.7921    -2.8404  H       1  <O>11       0.0330
  36 H6        7.4173   -14.7557    -3.4172  H       1  <O>11       0.0330
  37 H7        6.5062    -7.8907    -0.9548  H       1  <O>11       0.0625
  38 H8        8.8450    -7.3007    -0.6862  H       1  <O>11       0.0618
  39 H9       10.5838    -8.8687    -1.3424  H       1  <O>11       0.0637
  40 H10       8.6976   -16.0817    -5.7564  H       1  <O>11       0.0621
  41 H11      10.0702   -15.2876    -7.6049  H       1  <O>11       0.0618
  42 H12      11.3921   -13.2684    -7.3659  H       1  <O>11       0.0618
  43 H13      11.3685   -12.0205    -5.2740  H       1  <O>11       0.0637
  44 H14       7.6389   -11.6344    -2.5340  H       1  <O>11       0.0645
  45 H15       0.7391    -8.3884    -3.7103  H       1  <O>11       0.0625
  46 H16      -1.6070    -8.9723    -3.9769  H       1  <O>11       0.0618
  47 H17      -2.2287   -11.0748    -5.0282  H       1  <O>11       0.0618
  48 H18      -0.4947   -12.5867    -5.8121  H       1  <O>11       0.0618
  49 H19       1.8481   -12.0089    -5.5570  H       1  <O>11       0.0625
@<TRIPOS>BOND
     1     1     2    2
     2     2     3   am
     3     3     4    1
     4     4     5   am
     5     5     6    2
     6     5     7    1
     7     7     8   ar
     8     8     9   ar
     9     9    10   ar
    10    10    11   ar
    11    11    12    1
    12    12    13    2
    13    12    14    2
    14    12    15    1
    15    15    16    1
    16    16    17    1
    17    17    18    1
    18    18    19   ar
    19    19    20   ar
    20    20    21   ar
    21    21    22   ar
    22    22    23   ar
    23    18    23   ar
    24    15    23    1
    25    11    24   ar
    26     7    24   ar
    27     2    25    1
    28    25    26   ar
    29    26    27   ar
    30    27    28   ar
    31    28    29   ar
    32    29    30   ar
    33    25    30   ar
    34     3    31    1
    35     4    32    1
    36    16    33    1
    37    16    34    1
    38    17    35    1
    39    17    36    1
    40     8    37    1
    41     9    38    1
    42    10    39    1
    43    19    40    1
    44    20    41    1
    45    21    42    1
    46    22    43    1
    47    24    44    1
    48    26    45    1
    49    27    46    1
    50    28    47    1
    51    29    48    1
    52    30    49    1
@<TRIPOS>MOLECULE
mol97_1_25
 49 52 0 0 0
SMALL
USER_CHARGES
****
VDW energy = 178.40
@<TRIPOS>ATOM
   1 O1        3.4420    -9.1855    -5.2979  O.2     1  <O>11      -0.2687
   2 C1        2.8552    -9.8129    -4.4288  C.2     1  <O>11       0.2601
   3 N1        3.5160   -10.1860    -3.2900  N.am    1  <O>11      -0.2301
   4 N2        4.8400    -9.8550    -3.1240  N.am    1  <O>11      -0.2301
   5 C2        5.4787   -10.1558    -1.9524  C.2     1  <O>11       0.2602
   6 O2        4.8729   -10.7193    -1.0534  O.2     1  <O>11      -0.2687
   7 C3        6.8817    -9.8058    -1.7764  C.ar    1  <O>11       0.0400
   8 C4        7.2404    -8.5589    -1.2368  C.ar    1  <O>11      -0.0495
   9 C5        8.5886    -8.2194    -1.0802  C.ar    1  <O>11      -0.0592
  10 C6        9.5893    -9.1199    -1.4556  C.ar    1  <O>11      -0.0350
  11 C7        9.2330   -10.3640    -1.9857  C.ar    1  <O>11       0.1094
  12 S1       10.4982   -11.4931    -2.4543  S.O2    1  <O>11       0.0747
  13 O3       11.4300   -11.8619    -1.1287  O.2     1  <O>11      -0.1498
  14 O4       11.4515   -10.8024    -3.6261  O.2     1  <O>11      -0.1498
  15 N3        9.8119   -12.8753    -3.0455  N.pl3   1  <O>11      -0.2024
  16 C8        8.9473   -13.6920    -2.2875  C.3     1  <O>11       0.0390
  17 C9        8.4907   -14.8090    -3.2361  C.3     1  <O>11      -0.0083
  18 C10       9.2661   -14.5031    -4.4742  C.ar    1  <O>11      -0.0232
  19 C11       9.2655   -15.2256    -5.6592  C.ar    1  <O>11      -0.0567
  20 C12      10.0514   -14.7656    -6.7149  C.ar    1  <O>11      -0.0614
  21 C13      10.8162   -13.5993    -6.5760  C.ar    1  <O>11      -0.0599
  22 C14      10.8059   -12.8795    -5.3765  C.ar    1  <O>11      -0.0388
  23 C15      10.0265   -13.3413    -4.3298  C.ar    1  <O>11       0.0545
  24 C16       7.8904   -10.7121    -2.1453  C.ar    1  <O>11      -0.0229
  25 C17       1.4620   -10.1610    -4.6040  C.ar    1  <O>11       0.0382
  26 C18       1.1306   -11.3695    -5.2196  C.ar    1  <O>11      -0.0496
  27 C19      -0.2153   -11.7063    -5.4031  C.ar    1  <O>11      -0.0610
  28 C20      -1.2229   -10.8409    -4.9699  C.ar    1  <O>11      -0.0617
  29 C21      -0.8747    -9.6354    -4.3492  C.ar    1  <O>11      -0.0610
  30 C22       0.4636    -9.2915    -4.1595  C.ar    1  <O>11      -0.0496
  31 H1        3.0270   -10.7100    -2.5640  H       1  <O>11       0.1731
  32 H2        5.3456    -9.3849    -3.8751  H       1  <O>11       0.1731
  33 H3        9.4771   -14.1147    -1.4334  H       1  <O>11       0.0485
  34 H4        8.0913   -13.1182    -1.9382  H       1  <O>11       0.0485
  35 H5        8.7444   -15.7921    -2.8404  H       1  <O>11       0.0330
  36 H6        7.4173   -14.7557    -3.4172  H       1  <O>11       0.0330
  37 H7        6.5062    -7.8907    -0.9548  H       1  <O>11       0.0625
  38 H8        8.8450    -7.3007    -0.6862  H       1  <O>11       0.0618
  39 H9       10.5838    -8.8687    -1.3424  H       1  <O>11       0.0637
  40 H10       8.6976   -16.0817    -5.7564  H       1  <O>11       0.0621
  41 H11      10.0702   -15.2876    -7.6049  H       1  <O>11       0.0618
  42 H12      11.3921   -13.2684    -7.3659  H       1  <O>11       0.0618
  43 H13      11.3685   -12.0205    -5.2740  H       1  <O>11       0.0637
  44 H14       7.6389   -11.6344    -2.5340  H       1  <O>11       0.0645
  45 H15       1.8739   -12.0109    -5.5376  H       1  <O>11       0.0625
  46 H16      -0.4644   -12.5974    -5.8601  H       1  <O>11       0.0618
  47 H17      -2.2155   -11.0882    -5.1063  H       1  <O>11       0.0618
  48 H18      -1.6167    -8.9938    -4.0283  H       1  <O>11       0.0618
  49 H19       0.7134    -8.4041    -3.6958  H       1  <O>11       0.0625
@<TRIPOS>BOND
     1     1     2    2
     2     2     3   am
     3     3     4    1
     4     4     5   am
     5     5     6    2
     6     5     7    1
     7     7     8   ar
     8     8     9   ar
     9     9    10   ar
    10    10    11   ar
    11    11    12    1
    12    12    13    2
    13    12    14    2
    14    12    15    1
    15    15    16    1
    16    16    17    1
    17    17    18    1
    18    18    19   ar
    19    19    20   ar
    20    20    21   ar
    21    21    22   ar
    22    22    23   ar
    23    18    23   ar
    24    15    23    1
    25    11    24   ar
    26     7    24   ar
    27     2    25    1
    28    25    26   ar
    29    26    27   ar
    30    27    28   ar
    31    28    29   ar
    32    29    30   ar
    33    25    30   ar
    34     3    31    1
    35     4    32    1
    36    16    33    1
    37    16    34    1
    38    17    35    1
    39    17    36    1
    40     8    37    1
    41     9    38    1
    42    10    39    1
    43    19    40    1
    44    20    41    1
    45    21    42    1
    46    22    43    1
    47    24    44    1
    48    26    45    1
    49    27    46    1
    50    28    47    1
    51    29    48    1
    52    30    49    1
@<TRIPOS>MOLECULE
mol97_1_26
 49 52 0 0 0
SMALL
USER_CHARGES
****
VDW energy = 180.42
@<TRIPOS>ATOM
   1 O1        3.4420    -9.1855    -5.2979  O.2     1  <O>11      -0.2687
   2 C1        2.8552    -9.8129    -4.4288  C.2     1  <O>11       0.2601
   3 N1        3.5160   -10.1860    -3.2900  N.am    1  <O>11      -0.2301
   4 N2        2.8557   -10.8918    -2.3123  N.am    1  <O>11      -0.2301
   5 C2        3.5356   -11.3355    -1.2114  C.2     1  <O>11       0.2602
   6 O2        4.7298   -11.1041    -1.0964  O.2     1  <O>11      -0.2687
   7 C3        2.8362   -12.0828    -0.1749  C.ar    1  <O>11       0.0400
   8 C4        2.7502   -13.4836    -0.2447  C.ar    1  <O>11      -0.0495
   9 C5        2.0671   -14.1988     0.7449  C.ar    1  <O>11      -0.0592
  10 C6        1.4685   -13.5253     1.8133  C.ar    1  <O>11      -0.0350
  11 C7        1.5602   -12.1318     1.8874  C.ar    1  <O>11       0.1094
  12 S1        0.8056   -11.2911     3.2361  S.O2    1  <O>11       0.0747
  13 O3        1.0609    -9.6562     3.0821  O.2     1  <O>11      -0.1498
  14 O4        1.4697   -11.8231     4.6626  O.2     1  <O>11      -0.1498
  15 N3       -0.8186   -11.5961     3.2363  N.pl3   1  <O>11      -0.2024
  16 C8       -1.4830   -12.2347     4.3040  C.3     1  <O>11       0.0390
  17 C9       -2.9699   -12.2448     3.9235  C.3     1  <O>11      -0.0083
  18 C10      -2.9475   -11.6344     2.5616  C.ar    1  <O>11      -0.0232
  19 C11      -4.0326   -11.4290     1.7212  C.ar    1  <O>11      -0.0567
  20 C12      -3.8069   -10.8252     0.4848  C.ar    1  <O>11      -0.0614
  21 C13      -2.5141   -10.4344     0.1102  C.ar    1  <O>11      -0.0599
  22 C14      -1.4295   -10.6456     0.9681  C.ar    1  <O>11      -0.0388
  23 C15      -1.6575   -11.2481     2.1934  C.ar    1  <O>11       0.0545
  24 C16       2.2400   -11.4094     0.9050  C.ar    1  <O>11      -0.0229
  25 C17       1.4620   -10.1610    -4.6040  C.ar    1  <O>11       0.0382
  26 C18       1.0134   -11.4175    -4.1926  C.ar    1  <O>11      -0.0496
  27 C19      -0.3305   -11.7649    -4.3706  C.ar    1  <O>11      -0.0610
  28 C20      -1.2205   -10.8590    -4.9532  C.ar    1  <O>11      -0.0617
  29 C21      -0.7568    -9.6008    -5.3553  C.ar    1  <O>11      -0.0610
  30 C22       0.5801    -9.2441    -5.1802  C.ar    1  <O>11      -0.0496
  31 H1        4.4984    -9.9405    -3.1657  H       1  <O>11       0.1731
  32 H2        1.8585   -11.0844    -2.4084  H       1  <O>11       0.1731
  33 H3       -1.1164   -13.2547     4.4227  H       1  <O>11       0.0485
  34 H4       -1.3326   -11.6831     5.2299  H       1  <O>11       0.0485
  35 H5       -3.3647   -13.2602     3.8980  H       1  <O>11       0.0330
  36 H6       -3.5568   -11.6436     4.6178  H       1  <O>11       0.0330
  37 H7        3.1927   -13.9871    -1.0294  H       1  <O>11       0.0625
  38 H8        2.0051   -15.2272     0.6858  H       1  <O>11       0.0618
  39 H9        0.9625   -14.0524     2.5421  H       1  <O>11       0.0637
  40 H10      -4.9826   -11.7158     2.0042  H       1  <O>11       0.0621
  41 H11      -4.5974   -10.6650    -0.1590  H       1  <O>11       0.0618
  42 H12      -2.3609    -9.9867    -0.8069  H       1  <O>11       0.0618
  43 H13      -0.4776   -10.3576     0.6928  H       1  <O>11       0.0637
  44 H14       2.3046   -10.3816     0.9717  H       1  <O>11       0.0645
  45 H15       1.6693   -12.0865    -3.7596  H       1  <O>11       0.0625
  46 H16      -0.6655   -12.6936    -4.0704  H       1  <O>11       0.0618
  47 H17      -2.2113   -11.1153    -5.0861  H       1  <O>11       0.0618
  48 H18      -1.4117    -8.9296    -5.7862  H       1  <O>11       0.0618
  49 H19       0.9141    -8.3127    -5.4733  H       1  <O>11       0.0625
@<TRIPOS>BOND
     1     1     2    2
     2     2     3   am
     3     3     4    1
     4     4     5   am
     5     5     6    2
     6     5     7    1
     7     7     8   ar
     8     8     9   ar
     9     9    10   ar
    10    10    11   ar
    11    11    12    1
    12    12    13    2
    13    12    14    2
    14    12    15    1
    15    15    16    1
    16    16    17    1
    17    17    18    1
    18    18    19   ar
    19    19    20   ar
    20    20    21   ar
    21    21    22   ar
    22    22    23   ar
    23    18    23   ar
    24    15    23    1
    25    11    24   ar
    26     7    24   ar
    27     2    25    1
    28    25    26   ar
    29    26    27   ar
    30    27    28   ar
    31    28    29   ar
    32    29    30   ar
    33    25    30   ar
    34     3    31    1
    35     4    32    1
    36    16    33    1
    37    16    34    1
    38    17    35    1
    39    17    36    1
    40     8    37    1
    41     9    38    1
    42    10    39    1
    43    19    40    1
    44    20    41    1
    45    21    42    1
    46    22    43    1
    47    24    44    1
    48    26    45    1
    49    27    46    1
    50    28    47    1
    51    29    48    1
    52    30    49    1
@<TRIPOS>MOLECULE
mol97_1_27
 49 52 0 0 0
SMALL
USER_CHARGES
****
VDW energy = 180.66
@<TRIPOS>ATOM
   1 O1        3.4420    -9.1855    -5.2979  O.2     1  <O>11      -0.2687
   2 C1        2.8552    -9.8129    -4.4288  C.2     1  <O>11       0.2601
   3 N1        3.5160   -10.1860    -3.2900  N.am    1  <O>11      -0.2301
   4 N2        2.8557   -10.8918    -2.3123  N.am    1  <O>11      -0.2301
   5 C2        3.5356   -11.3355    -1.2114  C.2     1  <O>11       0.2602
   6 O2        4.7298   -11.1041    -1.0964  O.2     1  <O>11      -0.2687
   7 C3        2.8362   -12.0828    -0.1749  C.ar    1  <O>11       0.0400
   8 C4        2.7502   -13.4836    -0.2447  C.ar    1  <O>11      -0.0495
   9 C5        2.0671   -14.1988     0.7449  C.ar    1  <O>11      -0.0592
  10 C6        1.4685   -13.5253     1.8133  C.ar    1  <O>11      -0.0350
  11 C7        1.5602   -12.1318     1.8874  C.ar    1  <O>11       0.1094
  12 S1        0.8056   -11.2911     3.2361  S.O2    1  <O>11       0.0747
  13 O3        1.4708   -11.8239     4.6627  O.2     1  <O>11      -0.1498
  14 O4       -0.8268   -11.5985     3.2377  O.2     1  <O>11      -0.1498
  15 N3        1.0606    -9.6654     3.0842  N.pl3   1  <O>11      -0.2024
  16 C8        2.3462    -9.0863     3.0518  C.3     1  <O>11       0.0390
  17 C9        2.1216    -7.5848     2.8266  C.3     1  <O>11      -0.0083
  18 C10       0.6322    -7.4876     2.8342  C.ar    1  <O>11      -0.0232
  19 C11      -0.1296    -6.3347     2.7053  C.ar    1  <O>11      -0.0567
  20 C12      -1.5186    -6.4542     2.7218  C.ar    1  <O>11      -0.0614
  21 C13      -2.1222    -7.7116     2.8605  C.ar    1  <O>11      -0.0599
  22 C14      -1.3422    -8.8659     2.9874  C.ar    1  <O>11      -0.0388
  23 C15       0.0366    -8.7424     2.9737  C.ar    1  <O>11       0.0545
  24 C16       2.2400   -11.4094     0.9050  C.ar    1  <O>11      -0.0229
  25 C17       1.4620   -10.1610    -4.6040  C.ar    1  <O>11       0.0382
  26 C18       0.4750    -9.2817    -4.1546  C.ar    1  <O>11      -0.0496
  27 C19      -0.8745    -9.6183    -4.3101  C.ar    1  <O>11      -0.0610
  28 C20      -1.2337   -10.8255    -4.9148  C.ar    1  <O>11      -0.0617
  29 C21      -0.2326   -11.6941    -5.3653  C.ar    1  <O>11      -0.0610
  30 C22       1.1151   -11.3668    -5.2172  C.ar    1  <O>11      -0.0496
  31 H1        4.4984    -9.9405    -3.1657  H       1  <O>11       0.1731
  32 H2        1.8585   -11.0844    -2.4084  H       1  <O>11       0.1731
  33 H3        2.8612    -9.2536     3.9982  H       1  <O>11       0.0485
  34 H4        2.9327    -9.5079     2.2380  H       1  <O>11       0.0485
  35 H5        2.5630    -6.9942     3.6289  H       1  <O>11       0.0330
  36 H6        2.5348    -7.2653     1.8699  H       1  <O>11       0.0330
  37 H7        3.1927   -13.9871    -1.0294  H       1  <O>11       0.0625
  38 H8        2.0051   -15.2272     0.6858  H       1  <O>11       0.0618
  39 H9        0.9625   -14.0524     2.5421  H       1  <O>11       0.0637
  40 H10       0.3207    -5.4122     2.6000  H       1  <O>11       0.0621
  41 H11      -2.1065    -5.6109     2.6311  H       1  <O>11       0.0618
  42 H12      -3.1514    -7.7865     2.8692  H       1  <O>11       0.0618
  43 H13      -1.7861    -9.7919     3.0893  H       1  <O>11       0.0637
  44 H14       2.3046   -10.3816     0.9717  H       1  <O>11       0.0645
  45 H15       0.7391    -8.3884    -3.7103  H       1  <O>11       0.0625
  46 H16      -1.6070    -8.9723    -3.9769  H       1  <O>11       0.0618
  47 H17      -2.2287   -11.0748    -5.0282  H       1  <O>11       0.0618
  48 H18      -0.4947   -12.5867    -5.8121  H       1  <O>11       0.0618
  49 H19       1.8481   -12.0089    -5.5570  H       1  <O>11       0.0625
@<TRIPOS>BOND
     1     1     2    2
     2     2     3   am
     3     3     4    1
     4     4     5   am
     5     5     6    2
     6     5     7    1
     7     7     8   ar
     8     8     9   ar
     9     9    10   ar
    10    10    11   ar
    11    11    12    1
    12    12    13    2
    13    12    14    2
    14    12    15    1
    15    15    16    1
    16    16    17    1
    17    17    18    1
    18    18    19   ar
    19    19    20   ar
    20    20    21   ar
    21    21    22   ar
    22    22    23   ar
    23    18    23   ar
    24    15    23    1
    25    11    24   ar
    26     7    24   ar
    27     2    25    1
    28    25    26   ar
    29    26    27   ar
    30    27    28   ar
    31    28    29   ar
    32    29    30   ar
    33    25    30   ar
    34     3    31    1
    35     4    32    1
    36    16    33    1
    37    16    34    1
    38    17    35    1
    39    17    36    1
    40     8    37    1
    41     9    38    1
    42    10    39    1
    43    19    40    1
    44    20    41    1
    45    21    42    1
    46    22    43    1
    47    24    44    1
    48    26    45    1
    49    27    46    1
    50    28    47    1
    51    29    48    1
    52    30    49    1
@<TRIPOS>MOLECULE
mol97_1_28
 49 52 0 0 0
SMALL
USER_CHARGES
****
VDW energy = 185.05
@<TRIPOS>ATOM
   1 O1        3.4420    -9.1855    -5.2979  O.2     1  <O>11      -0.2687
   2 C1        2.8552    -9.8129    -4.4288  C.2     1  <O>11       0.2601
   3 N1        3.5160   -10.1860    -3.2900  N.am    1  <O>11      -0.2301
   4 N2        4.8400    -9.8550    -3.1240  N.am    1  <O>11      -0.2301
   5 C2        5.2216    -8.5414    -3.1205  C.2     1  <O>11       0.2602
   6 O2        6.3985    -8.2474    -2.9741  O.2     1  <O>11      -0.2687
   7 C3        4.2256    -7.4925    -3.2926  C.ar    1  <O>11       0.0400
   8 C4        3.8858    -7.0398    -4.5787  C.ar    1  <O>11      -0.0495
   9 C5        2.9382    -6.0234    -4.7415  C.ar    1  <O>11      -0.0592
  10 C6        2.3190    -5.4534    -3.6257  C.ar    1  <O>11      -0.0350
  11 C7        2.6511    -5.9087    -2.3459  C.ar    1  <O>11       0.1094
  12 S1        1.8662    -5.1875    -0.9463  S.O2    1  <O>11       0.0747
  13 O3        1.7595    -6.3143     0.2705  O.2     1  <O>11      -0.1498
  14 O4        0.3412    -4.6801    -1.3660  O.2     1  <O>11      -0.1498
  15 N3        2.7528    -3.8951    -0.4223  N.pl3   1  <O>11      -0.2024
  16 C8        2.2469    -2.5792    -0.3805  C.3     1  <O>11       0.0390
  17 C9        3.3631    -1.7227     0.2330  C.3     1  <O>11      -0.0083
  18 C10       4.4618    -2.7184     0.4045  C.ar    1  <O>11      -0.0232
  19 C11       5.7377    -2.4772     0.8943  C.ar    1  <O>11      -0.0567
  20 C12       6.6223    -3.5503     0.9930  C.ar    1  <O>11      -0.0614
  21 C13       6.2232    -4.8380     0.6094  C.ar    1  <O>11      -0.0599
  22 C14       4.9332    -5.0673     0.1192  C.ar    1  <O>11      -0.0388
  23 C15       4.0590    -3.9985     0.0200  C.ar    1  <O>11       0.0545
  24 C16       3.5951    -6.9227    -2.1733  C.ar    1  <O>11      -0.0229
  25 C17       1.4620   -10.1610    -4.6040  C.ar    1  <O>11       0.0382
  26 C18       1.1306   -11.3695    -5.2196  C.ar    1  <O>11      -0.0496
  27 C19      -0.2153   -11.7063    -5.4031  C.ar    1  <O>11      -0.0610
  28 C20      -1.2229   -10.8409    -4.9699  C.ar    1  <O>11      -0.0617
  29 C21      -0.8747    -9.6354    -4.3492  C.ar    1  <O>11      -0.0610
  30 C22       0.4636    -9.2915    -4.1595  C.ar    1  <O>11      -0.0496
  31 H1        3.0270   -10.7100    -2.5640  H       1  <O>11       0.1731
  32 H2        5.5375   -10.5896    -3.0036  H       1  <O>11       0.1731
  33 H3        2.0133    -2.2309    -1.3870  H       1  <O>11       0.0485
  34 H4        1.3524    -2.5351     0.2374  H       1  <O>11       0.0485
  35 H5        3.6576    -0.9168    -0.4386  H       1  <O>11       0.0330
  36 H6        3.0548    -1.3038     1.1908  H       1  <O>11       0.0330
  37 H7        4.3372    -7.4587    -5.4068  H       1  <O>11       0.0625
  38 H8        2.6957    -5.6934    -5.6888  H       1  <O>11       0.0618
  39 H9        1.6218    -4.7020    -3.7455  H       1  <O>11       0.0637
  40 H10       6.0244    -1.5274     1.1784  H       1  <O>11       0.0621
  41 H11       7.5777    -3.3954     1.3510  H       1  <O>11       0.0618
  42 H12       6.8870    -5.6241     0.6892  H       1  <O>11       0.0618
  43 H13       4.6388    -6.0153    -0.1631  H       1  <O>11       0.0637
  44 H14       3.8298    -7.2536    -1.2244  H       1  <O>11       0.0645
  45 H15       1.8739   -12.0109    -5.5376  H       1  <O>11       0.0625
  46 H16      -0.4644   -12.5974    -5.8601  H       1  <O>11       0.0618
  47 H17      -2.2155   -11.0882    -5.1063  H       1  <O>11       0.0618
  48 H18      -1.6167    -8.9938    -4.0283  H       1  <O>11       0.0618
  49 H19       0.7134    -8.4041    -3.6958  H       1  <O>11       0.0625
@<TRIPOS>BOND
     1     1     2    2
     2     2     3   am
     3     3     4    1
     4     4     5   am
     5     5     6    2
     6     5     7    1
     7     7     8   ar
     8     8     9   ar
     9     9    10   ar
    10    10    11   ar
    11    11    12    1
    12    12    13    2
    13    12    14    2
    14    12    15    1
    15    15    16    1
    16    16    17    1
    17    17    18    1
    18    18    19   ar
    19    19    20   ar
    20    20    21   ar
    21    21    22   ar
    22    22    23   ar
    23    18    23   ar
    24    15    23    1
    25    11    24   ar
    26     7    24   ar
    27     2    25    1
    28    25    26   ar
    29    26    27   ar
    30    27    28   ar
    31    28    29   ar
    32    29    30   ar
    33    25    30   ar
    34     3    31    1
    35     4    32    1
    36    16    33    1
    37    16    34    1
    38    17    35    1
    39    17    36    1
    40     8    37    1
    41     9    38    1
    42    10    39    1
    43    19    40    1
    44    20    41    1
    45    21    42    1
    46    22    43    1
    47    24    44    1
    48    26    45    1
    49    27    46    1
    50    28    47    1
    51    29    48    1
    52    30    49    1
@<TRIPOS>MOLECULE
mol97_1_29
 49 52 0 0 0
SMALL
USER_CHARGES
****
VDW energy = 185.67
@<TRIPOS>ATOM
   1 O1        3.4420    -9.1855    -5.2979  O.2     1  <O>11      -0.2687
   2 C1        2.8552    -9.8129    -4.4288  C.2     1  <O>11       0.2601
   3 N1        3.5160   -10.1860    -3.2900  N.am    1  <O>11      -0.2301
   4 N2        4.8400    -9.8550    -3.1240  N.am    1  <O>11      -0.2301
   5 C2        5.4787   -10.1558    -1.9524  C.2     1  <O>11       0.2602
   6 O2        4.8729   -10.7193    -1.0534  O.2     1  <O>11      -0.2687
   7 C3        6.8817    -9.8058    -1.7764  C.ar    1  <O>11       0.0400
   8 C4        7.5448   -10.1115    -0.5758  C.ar    1  <O>11      -0.0495
   9 C5        8.8888    -9.7632    -0.4036  C.ar    1  <O>11      -0.0592
  10 C6        9.5837    -9.1120    -1.4266  C.ar    1  <O>11      -0.0350
  11 C7        8.9265    -8.8142    -2.6245  C.ar    1  <O>11       0.1094
  12 S1        9.8082    -7.9959    -3.9084  S.O2    1  <O>11       0.0747
  13 O3       11.1046    -8.9273    -4.3704  O.2     1  <O>11      -0.1498
  14 O4       10.3510    -6.5256    -3.3583  O.2     1  <O>11      -0.1498
  15 N3        8.8079    -7.7652    -5.2034  N.pl3   1  <O>11      -0.2024
  16 C8        8.1858    -8.8250    -5.8955  C.3     1  <O>11       0.0390
  17 C9        7.3005    -8.1643    -6.9611  C.3     1  <O>11      -0.0083
  18 C10       7.6120    -6.7169    -6.7717  C.ar    1  <O>11      -0.0232
  19 C11       7.1088    -5.6520    -7.5058  C.ar    1  <O>11      -0.0567
  20 C12       7.5123    -4.3624    -7.1622  C.ar    1  <O>11      -0.0614
  21 C13       8.4002    -4.1554    -6.0977  C.ar    1  <O>11      -0.0599
  22 C14       8.8980    -5.2379    -5.3647  C.ar    1  <O>11      -0.0388
  23 C15       8.4973    -6.5169    -5.7111  C.ar    1  <O>11       0.0545
  24 C16       7.5857    -9.1581    -2.8060  C.ar    1  <O>11      -0.0229
  25 C17       1.4620   -10.1610    -4.6040  C.ar    1  <O>11       0.0382
  26 C18       1.1306   -11.3695    -5.2196  C.ar    1  <O>11      -0.0496
  27 C19      -0.2153   -11.7063    -5.4031  C.ar    1  <O>11      -0.0610
  28 C20      -1.2229   -10.8409    -4.9699  C.ar    1  <O>11      -0.0617
  29 C21      -0.8747    -9.6354    -4.3492  C.ar    1  <O>11      -0.0610
  30 C22       0.4636    -9.2915    -4.1595  C.ar    1  <O>11      -0.0496
  31 H1        3.0270   -10.7100    -2.5640  H       1  <O>11       0.1731
  32 H2        5.3456    -9.3849    -3.8751  H       1  <O>11       0.1731
  33 H3        8.9353    -9.4607    -6.3681  H       1  <O>11       0.0485
  34 H4        7.5798    -9.4198    -5.2151  H       1  <O>11       0.0485
  35 H5        7.5683    -8.5013    -7.9622  H       1  <O>11       0.0330
  36 H6        6.2460    -8.3702    -6.7779  H       1  <O>11       0.0330
  37 H7        7.0382   -10.5950     0.1823  H       1  <O>11       0.0625
  38 H8        9.3688    -9.9879     0.4819  H       1  <O>11       0.0618
  39 H9       10.5744    -8.8528    -1.2988  H       1  <O>11       0.0637
  40 H10       6.4527    -5.8107    -8.2863  H       1  <O>11       0.0621
  41 H11       7.1545    -3.5545    -7.6955  H       1  <O>11       0.0618
  42 H12       8.6893    -3.1956    -5.8523  H       1  <O>11       0.0618
  43 H13       9.5515    -5.0859    -4.5807  H       1  <O>11       0.0637
  44 H14       7.1117    -8.9369    -3.6956  H       1  <O>11       0.0645
  45 H15       1.8739   -12.0109    -5.5376  H       1  <O>11       0.0625
  46 H16      -0.4644   -12.5974    -5.8601  H       1  <O>11       0.0618
  47 H17      -2.2155   -11.0882    -5.1063  H       1  <O>11       0.0618
  48 H18      -1.6167    -8.9938    -4.0283  H       1  <O>11       0.0618
  49 H19       0.7134    -8.4041    -3.6958  H       1  <O>11       0.0625
@<TRIPOS>BOND
     1     1     2    2
     2     2     3   am
     3     3     4    1
     4     4     5   am
     5     5     6    2
     6     5     7    1
     7     7     8   ar
     8     8     9   ar
     9     9    10   ar
    10    10    11   ar
    11    11    12    1
    12    12    13    2
    13    12    14    2
    14    12    15    1
    15    15    16    1
    16    16    17    1
    17    17    18    1
    18    18    19   ar
    19    19    20   ar
    20    20    21   ar
    21    21    22   ar
    22    22    23   ar
    23    18    23   ar
    24    15    23    1
    25    11    24   ar
    26     7    24   ar
    27     2    25    1
    28    25    26   ar
    29    26    27   ar
    30    27    28   ar
    31    28    29   ar
    32    29    30   ar
    33    25    30   ar
    34     3    31    1
    35     4    32    1
    36    16    33    1
    37    16    34    1
    38    17    35    1
    39    17    36    1
    40     8    37    1
    41     9    38    1
    42    10    39    1
    43    19    40    1
    44    20    41    1
    45    21    42    1
    46    22    43    1
    47    24    44    1
    48    26    45    1
    49    27    46    1
    50    28    47    1
    51    29    48    1
    52    30    49    1
@<TRIPOS>MOLECULE
mol97_1_30
 49 52 0 0 0
SMALL
USER_CHARGES
****
VDW energy = 188.50
@<TRIPOS>ATOM
   1 O1        3.4420    -9.1855    -5.2979  O.2     1  <O>11      -0.2687
   2 C1        2.8552    -9.8129    -4.4288  C.2     1  <O>11       0.2601
   3 N1        3.5160   -10.1860    -3.2900  N.am    1  <O>11      -0.2301
   4 N2        4.8400    -9.8550    -3.1240  N.am    1  <O>11      -0.2301
   5 C2        5.7742   -10.3017    -4.0178  C.2     1  <O>11       0.2602
   6 O2        5.4320   -10.9945    -4.9643  O.2     1  <O>11      -0.2687
   7 C3        7.1770    -9.9507    -3.8426  C.ar    1  <O>11       0.0400
   8 C4        8.0266   -10.7758    -3.0863  C.ar    1  <O>11      -0.0495
   9 C5        9.3706   -10.4306    -2.9085  C.ar    1  <O>11      -0.0592
  10 C6        9.8798    -9.2639    -3.4856  C.ar    1  <O>11      -0.0350
  11 C7        9.0367    -8.4462    -4.2446  C.ar    1  <O>11       0.1094
  12 S1        9.6852    -6.9801    -4.9693  S.O2    1  <O>11       0.0747
  13 O3       10.9202    -7.3756    -6.0085  O.2     1  <O>11      -0.1498
  14 O4       10.2649    -5.9810    -3.7756  O.2     1  <O>11      -0.1498
  15 N3        8.4902    -6.2038    -5.8061  N.pl3   1  <O>11      -0.2024
  16 C8        7.7986    -6.7912    -6.8858  C.3     1  <O>11       0.0390
  17 C9        6.7404    -5.7640    -7.3114  C.3     1  <O>11      -0.0083
  18 C10       7.0364    -4.6168    -6.4036  C.ar    1  <O>11      -0.0232
  19 C11       6.3957    -3.3860    -6.3778  C.ar    1  <O>11      -0.0567
  20 C12       6.8108    -2.4436    -5.4379  C.ar    1  <O>11      -0.0614
  21 C13       7.8468    -2.7418    -4.5422  C.ar    1  <O>11      -0.0599
  22 C14       8.4827    -3.9873    -4.5778  C.ar    1  <O>11      -0.0388
  23 C15       8.0695    -4.9190    -5.5146  C.ar    1  <O>11       0.0545
  24 C16       7.6942    -8.7825    -4.4281  C.ar    1  <O>11      -0.0229
  25 C17       1.4620   -10.1610    -4.6040  C.ar    1  <O>11       0.0382
  26 C18       1.1306   -11.3695    -5.2196  C.ar    1  <O>11      -0.0496
  27 C19      -0.2153   -11.7063    -5.4031  C.ar    1  <O>11      -0.0610
  28 C20      -1.2229   -10.8409    -4.9699  C.ar    1  <O>11      -0.0617
  29 C21      -0.8747    -9.6354    -4.3492  C.ar    1  <O>11      -0.0610
  30 C22       0.4636    -9.2915    -4.1595  C.ar    1  <O>11      -0.0496
  31 H1        3.0270   -10.7100    -2.5640  H       1  <O>11       0.1731
  32 H2        5.1252    -9.2762    -2.3338  H       1  <O>11       0.1731
  33 H3        8.4834    -6.9919    -7.7103  H       1  <O>11       0.0485
  34 H4        7.3224    -7.7183    -6.5733  H       1  <O>11       0.0485
  35 H5        6.8592    -5.4843    -8.3579  H       1  <O>11       0.0330
  36 H6        5.7333    -6.1480    -7.1496  H       1  <O>11       0.0330
  37 H7        7.6574   -11.6403    -2.6602  H       1  <O>11       0.0625
  38 H8        9.9883   -11.0395    -2.3493  H       1  <O>11       0.0618
  39 H9       10.8706    -9.0078    -3.3525  H       1  <O>11       0.0637
  40 H10       5.6312    -3.1738    -7.0377  H       1  <O>11       0.0621
  41 H11       6.3520    -1.5199    -5.4016  H       1  <O>11       0.0618
  42 H12       8.1432    -2.0360    -3.8501  H       1  <O>11       0.0618
  43 H13       9.2452    -4.2073    -3.9183  H       1  <O>11       0.0637
  44 H14       7.0820    -8.1736    -4.9933  H       1  <O>11       0.0645
  45 H15       1.8739   -12.0109    -5.5376  H       1  <O>11       0.0625
  46 H16      -0.4644   -12.5974    -5.8601  H       1  <O>11       0.0618
  47 H17      -2.2155   -11.0882    -5.1063  H       1  <O>11       0.0618
  48 H18      -1.6167    -8.9938    -4.0283  H       1  <O>11       0.0618
  49 H19       0.7134    -8.4041    -3.6958  H       1  <O>11       0.0625
@<TRIPOS>BOND
     1     1     2    2
     2     2     3   am
     3     3     4    1
     4     4     5   am
     5     5     6    2
     6     5     7    1
     7     7     8   ar
     8     8     9   ar
     9     9    10   ar
    10    10    11   ar
    11    11    12    1
    12    12    13    2
    13    12    14    2
    14    12    15    1
    15    15    16    1
    16    16    17    1
    17    17    18    1
    18    18    19   ar
    19    19    20   ar
    20    20    21   ar
    21    21    22   ar
    22    22    23   ar
    23    18    23   ar
    24    15    23    1
    25    11    24   ar
    26     7    24   ar
    27     2    25    1
    28    25    26   ar
    29    26    27   ar
    30    27    28   ar
    31    28    29   ar
    32    29    30   ar
    33    25    30   ar
    34     3    31    1
    35     4    32    1
    36    16    33    1
    37    16    34    1
    38    17    35    1
    39    17    36    1
    40     8    37    1
    41     9    38    1
    42    10    39    1
    43    19    40    1
    44    20    41    1
    45    21    42    1
    46    22    43    1
    47    24    44    1
    48    26    45    1
    49    27    46    1
    50    28    47    1
    51    29    48    1
    52    30    49    1
