@<TRIPOS>MOLECULE
mol96_1_1
 58 62 0 0 0
SMALL
USER_CHARGES
****
VDW energy = 5.99
@<TRIPOS>ATOM
   1 O1       -4.2425     1.9267    -4.2583  O.2     1  <O>11      -0.2700
   2 C1       -4.7326     2.2891    -5.3174  C.2     1  <O>11       0.2466
   3 C2       -4.7890     3.7070    -5.6470  C.ar    1  <O>11       0.0372
   4 C3       -5.9052     4.4773    -5.2763  C.ar    1  <O>11      -0.0496
   5 C4       -5.9651     5.8365    -5.6044  C.ar    1  <O>11      -0.0608
   6 C5       -4.9121     6.4392    -6.2987  C.ar    1  <O>11      -0.0582
   7 C6       -3.7989     5.6740    -6.6602  C.ar    1  <O>11      -0.0408
   8 C7       -2.6890     6.3160    -7.3916  C.3     1  <O>11       0.0171
   9 C8       -1.7002     6.8531    -6.4207  C.ar    1  <O>11       0.0736
  10 N1       -1.9175     6.7006    -5.0468  N.ar    1  <O>11      -0.1750
  11 N2       -1.0814     7.2740    -4.1508  N.ar    1  <O>11      -0.2425
  12 C9       -0.0226     7.9888    -4.5994  C.ar    1  <O>11       0.2725
  13 O2        0.7500     8.6399    -3.6198  O.2     1  <O>11      -0.2658
  14 C10       0.3226     8.1027    -5.9544  C.ar    1  <O>11       0.0496
  15 C11       1.4607     8.7989    -6.4238  C.ar    1  <O>11      -0.0487
  16 C12       1.7285     8.9002    -7.7897  C.ar    1  <O>11      -0.0610
  17 C13       0.8652     8.3179    -8.7107  C.ar    1  <O>11      -0.0611
  18 C14      -0.2672     7.6325    -8.2663  C.ar    1  <O>11      -0.0521
  19 C15      -0.5494     7.5124    -6.8861  C.ar    1  <O>11       0.0106
  20 C16      -3.7287     4.3176    -6.3377  C.ar    1  <O>11      -0.0461
  21 N3       -5.2250     1.3690    -6.1880  N.am    1  <O>11      -0.2974
  22 C17      -5.8467     1.6516    -7.5052  C.3     1  <O>11       0.0173
  23 C18      -7.2453     1.0547    -7.5974  C.3     1  <O>11      -0.0107
  24 C19      -7.2181    -0.4446    -7.3197  C.3     1  <O>11       0.0619
  25 O3       -6.4934    -1.0936    -8.3517  O.3     1  <O>11      -0.3732
  26 C20      -7.1649    -2.2866    -8.7232  C.3     1  <O>11       0.0591
  27 C21      -7.7538    -2.2040   -10.0277  C.3     1  <O>11      -0.0265
  28 C22      -6.4447    -2.8809   -10.4780  C.3     1  <O>11      -0.0484
  29 C23      -6.2618    -3.3576    -9.0235  C.3     1  <O>11      -0.0265
  30 C24      -6.5512    -0.7389    -5.9809  C.3     1  <O>11      -0.0107
  31 C25      -5.1781    -0.0829    -5.8754  C.3     1  <O>11       0.0173
  32 H1       -3.0795     7.1305    -8.0018  H       1  <O>11       0.0377
  33 H2       -2.2045     5.5806    -8.0347  H       1  <O>11       0.0377
  34 H3       -1.2454     7.1686    -3.1596  H       1  <O>11       0.1921
  35 H4       -5.9118     2.7313    -7.6414  H       1  <O>11       0.0465
  36 H5       -5.2247     1.2225    -8.2907  H       1  <O>11       0.0465
  37 H6       -7.8898     1.5413    -6.8652  H       1  <O>11       0.0305
  38 H7       -7.6405     1.2261    -8.5991  H       1  <O>11       0.0305
  39 H8       -8.2401    -0.8220    -7.2997  H       1  <O>11       0.0597
  40 H9       -7.8879    -2.5513    -7.9523  H       1  <O>11       0.0596
  41 H10      -8.6600    -2.7934   -10.1694  H       1  <O>11       0.0290
  42 H11      -7.9128    -1.1940   -10.4056  H       1  <O>11       0.0290
  43 H12      -6.5775    -3.6823   -11.2052  H       1  <O>11       0.0267
  44 H13      -5.6774    -2.1930   -10.8307  H       1  <O>11       0.0267
  45 H14      -6.6335    -4.3593    -8.8086  H       1  <O>11       0.0290
  46 H15      -5.2547    -3.2491    -8.6192  H       1  <O>11       0.0290
  47 H16      -7.1850    -0.3589    -5.1796  H       1  <O>11       0.0305
  48 H17      -6.4357    -1.8179    -5.8731  H       1  <O>11       0.0305
  49 H18      -4.8045    -0.2122    -4.8597  H       1  <O>11       0.0465
  50 H19      -4.5007    -0.5715    -6.5769  H       1  <O>11       0.0465
  51 H20      -6.6838     4.0385    -4.7601  H       1  <O>11       0.0625
  52 H21      -6.7890     6.3955    -5.3330  H       1  <O>11       0.0618
  53 H22      -4.9560     7.4410    -6.5426  H       1  <O>11       0.0620
  54 H23       2.1028     9.2387    -5.7460  H       1  <O>11       0.0625
  55 H24       2.5665     9.4067    -8.1157  H       1  <O>11       0.0618
  56 H25       1.0610     8.3920    -9.7213  H       1  <O>11       0.0618
  57 H26      -0.9074     7.2076    -8.9552  H       1  <O>11       0.0624
  58 H27      -2.8998     3.7645    -6.6061  H       1  <O>11       0.0628
@<TRIPOS>BOND
     1     1     2    2
     2     2     3    1
     3     3     4   ar
     4     4     5   ar
     5     5     6   ar
     6     6     7   ar
     7     7     8    1
     8     8     9    1
     9     9    10   ar
    10    10    11   ar
    11    11    12   ar
    12    12    13    2
    13    12    14   ar
    14    14    15   ar
    15    15    16   ar
    16    16    17   ar
    17    17    18   ar
    18    18    19   ar
    19     9    19   ar
    20    14    19   ar
    21     7    20   ar
    22     3    20   ar
    23     2    21   am
    24    21    22    1
    25    22    23    1
    26    23    24    1
    27    24    25    1
    28    25    26    1
    29    26    27    1
    30    27    28    1
    31    28    29    1
    32    26    29    1
    33    24    30    1
    34    30    31    1
    35    21    31    1
    36     8    32    1
    37     8    33    1
    38    11    34    1
    39    22    35    1
    40    22    36    1
    41    23    37    1
    42    23    38    1
    43    24    39    1
    44    26    40    1
    45    27    41    1
    46    27    42    1
    47    28    43    1
    48    28    44    1
    49    29    45    1
    50    29    46    1
    51    30    47    1
    52    30    48    1
    53    31    49    1
    54    31    50    1
    55     4    51    1
    56     5    52    1
    57     6    53    1
    58    15    54    1
    59    16    55    1
    60    17    56    1
    61    18    57    1
    62    20    58    1
@<TRIPOS>MOLECULE
mol96_1_2
 58 62 0 0 0
SMALL
USER_CHARGES
****
VDW energy = 8.15
@<TRIPOS>ATOM
   1 O1       -4.2425     1.9267    -4.2583  O.2     1  <O>11      -0.2700
   2 C1       -4.7326     2.2891    -5.3174  C.2     1  <O>11       0.2466
   3 C2       -4.7890     3.7070    -5.6470  C.ar    1  <O>11       0.0372
   4 C3       -5.9052     4.4773    -5.2763  C.ar    1  <O>11      -0.0496
   5 C4       -5.9651     5.8365    -5.6044  C.ar    1  <O>11      -0.0608
   6 C5       -4.9121     6.4392    -6.2987  C.ar    1  <O>11      -0.0582
   7 C6       -3.7989     5.6740    -6.6602  C.ar    1  <O>11      -0.0408
   8 C7       -2.6890     6.3160    -7.3916  C.3     1  <O>11       0.0171
   9 C8       -1.7002     6.8531    -6.4207  C.ar    1  <O>11       0.0736
  10 N1       -1.9175     6.7006    -5.0468  N.ar    1  <O>11      -0.1750
  11 N2       -1.0814     7.2740    -4.1508  N.ar    1  <O>11      -0.2425
  12 C9       -0.0226     7.9888    -4.5994  C.ar    1  <O>11       0.2725
  13 O2        0.7500     8.6399    -3.6198  O.2     1  <O>11      -0.2658
  14 C10       0.3226     8.1027    -5.9544  C.ar    1  <O>11       0.0496
  15 C11       1.4607     8.7989    -6.4238  C.ar    1  <O>11      -0.0487
  16 C12       1.7285     8.9002    -7.7897  C.ar    1  <O>11      -0.0610
  17 C13       0.8652     8.3179    -8.7107  C.ar    1  <O>11      -0.0611
  18 C14      -0.2672     7.6325    -8.2663  C.ar    1  <O>11      -0.0521
  19 C15      -0.5494     7.5124    -6.8861  C.ar    1  <O>11       0.0106
  20 C16      -3.7287     4.3176    -6.3377  C.ar    1  <O>11      -0.0461
  21 N3       -5.2250     1.3690    -6.1880  N.am    1  <O>11      -0.2974
  22 C17      -5.2400    -0.1020    -5.9950  C.3     1  <O>11       0.0173
  23 C18      -4.5440    -0.8190    -7.1450  C.3     1  <O>11      -0.0107
  24 C19      -5.1700    -0.4400    -8.4830  C.3     1  <O>11       0.0619
  25 O3       -6.5020    -0.9250    -8.5250  O.3     1  <O>11      -0.3732
  26 C20      -6.7643    -1.4775    -9.8049  C.3     1  <O>11       0.0591
  27 C21      -6.8955    -2.9048    -9.7725  C.3     1  <O>11      -0.0265
  28 C22      -8.4020    -2.5961    -9.6719  C.3     1  <O>11      -0.0484
  29 C23      -8.0947    -1.2053   -10.2615  C.3     1  <O>11      -0.0265
  30 C24      -5.1840     1.0730    -8.6690  C.3     1  <O>11      -0.0107
  31 C25      -5.8260     1.7840    -7.4820  C.3     1  <O>11       0.0173
  32 H1       -3.0795     7.1305    -8.0018  H       1  <O>11       0.0377
  33 H2       -2.2045     5.5806    -8.0347  H       1  <O>11       0.0377
  34 H3       -1.2454     7.1686    -3.1596  H       1  <O>11       0.1921
  35 H4       -4.7260    -0.3420    -5.0640  H       1  <O>11       0.0465
  36 H5       -6.2740    -0.4420    -5.9380  H       1  <O>11       0.0465
  37 H6       -3.4900    -0.5410    -7.1530  H       1  <O>11       0.0305
  38 H7       -4.6340    -1.8960    -7.0000  H       1  <O>11       0.0305
  39 H8       -4.5920    -0.8930    -9.2880  H       1  <O>11       0.0597
  40 H9       -6.0026    -1.1419   -10.5080  H       1  <O>11       0.0596
  41 H10      -6.5820    -3.4235   -10.6787  H       1  <O>11       0.0290
  42 H11      -6.4589    -3.3947    -8.9022  H       1  <O>11       0.0290
  43 H12      -9.0348    -3.2252   -10.2985  H       1  <O>11       0.0267
  44 H13      -8.7945    -2.5825    -8.6560  H       1  <O>11       0.0267
  45 H14      -8.2118    -1.1180   -11.3415  H       1  <O>11       0.0290
  46 H15      -8.5964    -0.3693    -9.7728  H       1  <O>11       0.0290
  47 H16      -4.1580     1.4250    -8.7770  H       1  <O>11       0.0305
  48 H17      -5.7480     1.3130    -9.5710  H       1  <O>11       0.0305
  49 H18      -5.6930     2.8590    -7.6030  H       1  <O>11       0.0465
  50 H19      -6.8910     1.5490    -7.4660  H       1  <O>11       0.0465
  51 H20      -6.6838     4.0385    -4.7601  H       1  <O>11       0.0625
  52 H21      -6.7890     6.3955    -5.3330  H       1  <O>11       0.0618
  53 H22      -4.9560     7.4410    -6.5426  H       1  <O>11       0.0620
  54 H23       2.1028     9.2387    -5.7460  H       1  <O>11       0.0625
  55 H24       2.5665     9.4067    -8.1157  H       1  <O>11       0.0618
  56 H25       1.0610     8.3920    -9.7213  H       1  <O>11       0.0618
  57 H26      -0.9074     7.2076    -8.9552  H       1  <O>11       0.0624
  58 H27      -2.8998     3.7645    -6.6061  H       1  <O>11       0.0628
@<TRIPOS>BOND
     1     1     2    2
     2     2     3    1
     3     3     4   ar
     4     4     5   ar
     5     5     6   ar
     6     6     7   ar
     7     7     8    1
     8     8     9    1
     9     9    10   ar
    10    10    11   ar
    11    11    12   ar
    12    12    13    2
    13    12    14   ar
    14    14    15   ar
    15    15    16   ar
    16    16    17   ar
    17    17    18   ar
    18    18    19   ar
    19     9    19   ar
    20    14    19   ar
    21     7    20   ar
    22     3    20   ar
    23     2    21   am
    24    21    22    1
    25    22    23    1
    26    23    24    1
    27    24    25    1
    28    25    26    1
    29    26    27    1
    30    27    28    1
    31    28    29    1
    32    26    29    1
    33    24    30    1
    34    30    31    1
    35    21    31    1
    36     8    32    1
    37     8    33    1
    38    11    34    1
    39    22    35    1
    40    22    36    1
    41    23    37    1
    42    23    38    1
    43    24    39    1
    44    26    40    1
    45    27    41    1
    46    27    42    1
    47    28    43    1
    48    28    44    1
    49    29    45    1
    50    29    46    1
    51    30    47    1
    52    30    48    1
    53    31    49    1
    54    31    50    1
    55     4    51    1
    56     5    52    1
    57     6    53    1
    58    15    54    1
    59    16    55    1
    60    17    56    1
    61    18    57    1
    62    20    58    1
@<TRIPOS>MOLECULE
mol96_1_3
 58 62 0 0 0
SMALL
USER_CHARGES
****
VDW energy = 8.94
@<TRIPOS>ATOM
   1 O1       -4.2425     1.9267    -4.2583  O.2     1  <O>11      -0.2700
   2 C1       -4.7326     2.2891    -5.3174  C.2     1  <O>11       0.2466
   3 C2       -4.7890     3.7070    -5.6470  C.ar    1  <O>11       0.0372
   4 C3       -3.7277     4.3170    -6.3385  C.ar    1  <O>11      -0.0496
   5 C4       -3.7762     5.6820    -6.6437  C.ar    1  <O>11      -0.0608
   6 C5       -4.8835     6.4476    -6.2675  C.ar    1  <O>11      -0.0582
   7 C6       -5.9421     5.8384    -5.5865  C.ar    1  <O>11      -0.0408
   8 C7       -7.1099     6.6512    -5.1933  C.3     1  <O>11       0.0171
   9 C8       -8.1192     6.6295    -6.2839  C.ar    1  <O>11       0.0736
  10 N1       -8.8582     5.4666    -6.5279  N.ar    1  <O>11      -0.1750
  11 N2       -9.7041     5.3980    -7.5816  N.ar    1  <O>11      -0.2425
  12 C9       -9.8371     6.4741    -8.3925  C.ar    1  <O>11       0.2725
  13 O2      -10.6561     6.3044    -9.5244  O.2     1  <O>11      -0.2658
  14 C10      -9.2124     7.7082    -8.1580  C.ar    1  <O>11       0.0496
  15 C11      -9.3945     8.8524    -8.9690  C.ar    1  <O>11      -0.0487
  16 C12      -8.7167    10.0417    -8.6967  C.ar    1  <O>11      -0.0610
  17 C13      -7.8414    10.1097    -7.6188  C.ar    1  <O>11      -0.0611
  18 C14      -7.6435     8.9880    -6.8111  C.ar    1  <O>11      -0.0521
  19 C15      -8.3284     7.7779    -7.0669  C.ar    1  <O>11       0.0106
  20 C16      -5.9043     4.4776    -5.2773  C.ar    1  <O>11      -0.0461
  21 N3       -5.2250     1.3690    -6.1880  N.am    1  <O>11      -0.2974
  22 C17      -5.8467     1.6516    -7.5052  C.3     1  <O>11       0.0173
  23 C18      -7.2453     1.0547    -7.5974  C.3     1  <O>11      -0.0107
  24 C19      -7.2181    -0.4446    -7.3197  C.3     1  <O>11       0.0619
  25 O3       -6.4934    -1.0936    -8.3517  O.3     1  <O>11      -0.3732
  26 C20      -7.1649    -2.2866    -8.7232  C.3     1  <O>11       0.0591
  27 C21      -7.7538    -2.2040   -10.0277  C.3     1  <O>11      -0.0265
  28 C22      -6.4447    -2.8809   -10.4780  C.3     1  <O>11      -0.0484
  29 C23      -6.2618    -3.3576    -9.0235  C.3     1  <O>11      -0.0265
  30 C24      -6.5512    -0.7389    -5.9809  C.3     1  <O>11      -0.0107
  31 C25      -5.1781    -0.0829    -5.8754  C.3     1  <O>11       0.0173
  32 H1       -6.7927     7.6780    -5.0111  H       1  <O>11       0.0377
  33 H2       -7.5488     6.2400    -4.2836  H       1  <O>11       0.0377
  34 H3      -10.2304     4.5543    -7.7596  H       1  <O>11       0.1921
  35 H4       -5.9118     2.7313    -7.6414  H       1  <O>11       0.0465
  36 H5       -5.2247     1.2225    -8.2907  H       1  <O>11       0.0465
  37 H6       -7.8898     1.5413    -6.8652  H       1  <O>11       0.0305
  38 H7       -7.6405     1.2261    -8.5991  H       1  <O>11       0.0305
  39 H8       -8.2401    -0.8220    -7.2997  H       1  <O>11       0.0597
  40 H9       -7.8879    -2.5513    -7.9523  H       1  <O>11       0.0596
  41 H10      -8.6600    -2.7934   -10.1694  H       1  <O>11       0.0290
  42 H11      -7.9128    -1.1940   -10.4056  H       1  <O>11       0.0290
  43 H12      -6.5775    -3.6823   -11.2052  H       1  <O>11       0.0267
  44 H13      -5.6774    -2.1930   -10.8307  H       1  <O>11       0.0267
  45 H14      -6.6335    -4.3593    -8.8086  H       1  <O>11       0.0290
  46 H15      -5.2547    -3.2491    -8.6192  H       1  <O>11       0.0290
  47 H16      -7.1850    -0.3589    -5.1796  H       1  <O>11       0.0305
  48 H17      -6.4357    -1.8179    -5.8731  H       1  <O>11       0.0305
  49 H18      -4.8045    -0.2122    -4.8597  H       1  <O>11       0.0465
  50 H19      -4.5007    -0.5715    -6.5769  H       1  <O>11       0.0465
  51 H20      -2.9094     3.7558    -6.6222  H       1  <O>11       0.0625
  52 H21      -2.9921     6.1247    -7.1479  H       1  <O>11       0.0618
  53 H22      -4.9196     7.4546    -6.4905  H       1  <O>11       0.0620
  54 H23     -10.0382     8.8074    -9.7744  H       1  <O>11       0.0625
  55 H24      -8.8650    10.8695    -9.2947  H       1  <O>11       0.0618
  56 H25      -7.3387    10.9879    -7.4158  H       1  <O>11       0.0618
  57 H26      -6.9879     9.0432    -6.0160  H       1  <O>11       0.0624
  58 H27      -6.6937     4.0385    -4.7783  H       1  <O>11       0.0628
@<TRIPOS>BOND
     1     1     2    2
     2     2     3    1
     3     3     4   ar
     4     4     5   ar
     5     5     6   ar
     6     6     7   ar
     7     7     8    1
     8     8     9    1
     9     9    10   ar
    10    10    11   ar
    11    11    12   ar
    12    12    13    2
    13    12    14   ar
    14    14    15   ar
    15    15    16   ar
    16    16    17   ar
    17    17    18   ar
    18    18    19   ar
    19     9    19   ar
    20    14    19   ar
    21     7    20   ar
    22     3    20   ar
    23     2    21   am
    24    21    22    1
    25    22    23    1
    26    23    24    1
    27    24    25    1
    28    25    26    1
    29    26    27    1
    30    27    28    1
    31    28    29    1
    32    26    29    1
    33    24    30    1
    34    30    31    1
    35    21    31    1
    36     8    32    1
    37     8    33    1
    38    11    34    1
    39    22    35    1
    40    22    36    1
    41    23    37    1
    42    23    38    1
    43    24    39    1
    44    26    40    1
    45    27    41    1
    46    27    42    1
    47    28    43    1
    48    28    44    1
    49    29    45    1
    50    29    46    1
    51    30    47    1
    52    30    48    1
    53    31    49    1
    54    31    50    1
    55     4    51    1
    56     5    52    1
    57     6    53    1
    58    15    54    1
    59    16    55    1
    60    17    56    1
    61    18    57    1
    62    20    58    1
@<TRIPOS>MOLECULE
mol96_1_4
 58 62 0 0 0
SMALL
USER_CHARGES
****
VDW energy = 9.13
@<TRIPOS>ATOM
   1 O1       -4.2425     1.9267    -4.2583  O.2     1  <O>11      -0.2700
   2 C1       -4.7326     2.2891    -5.3174  C.2     1  <O>11       0.2466
   3 C2       -4.7890     3.7070    -5.6470  C.ar    1  <O>11       0.0372
   4 C3       -5.9052     4.4773    -5.2763  C.ar    1  <O>11      -0.0496
   5 C4       -5.9651     5.8365    -5.6044  C.ar    1  <O>11      -0.0608
   6 C5       -4.9121     6.4392    -6.2987  C.ar    1  <O>11      -0.0582
   7 C6       -3.7989     5.6740    -6.6602  C.ar    1  <O>11      -0.0408
   8 C7       -2.6890     6.3160    -7.3916  C.3     1  <O>11       0.0171
   9 C8       -1.7002     6.8531    -6.4207  C.ar    1  <O>11       0.0736
  10 N1       -0.8801     5.9758    -5.7025  N.ar    1  <O>11      -0.1750
  11 N2       -0.0499     6.4423    -4.7413  N.ar    1  <O>11      -0.2425
  12 C9       -0.0127     7.7722    -4.4897  C.ar    1  <O>11       0.2725
  13 O2        0.7968     8.1805    -3.4133  O.2     1  <O>11      -0.2658
  14 C10      -0.7244     8.7258    -5.2327  C.ar    1  <O>11       0.0496
  15 C11      -0.6433    10.1204    -5.0119  C.ar    1  <O>11      -0.0487
  16 C12      -1.4039    11.0133    -5.7683  C.ar    1  <O>11      -0.0610
  17 C13      -2.2628    10.5335    -6.7504  C.ar    1  <O>11      -0.0611
  18 C14      -2.3614     9.1594    -6.9779  C.ar    1  <O>11      -0.0521
  19 C15      -1.5919     8.2411    -6.2274  C.ar    1  <O>11       0.0106
  20 C16      -3.7287     4.3176    -6.3377  C.ar    1  <O>11      -0.0461
  21 N3       -5.2250     1.3690    -6.1880  N.am    1  <O>11      -0.2974
  22 C17      -5.8467     1.6516    -7.5052  C.3     1  <O>11       0.0173
  23 C18      -7.2453     1.0547    -7.5974  C.3     1  <O>11      -0.0107
  24 C19      -7.2181    -0.4446    -7.3197  C.3     1  <O>11       0.0619
  25 O3       -6.4934    -1.0936    -8.3517  O.3     1  <O>11      -0.3732
  26 C20      -7.1649    -2.2866    -8.7232  C.3     1  <O>11       0.0591
  27 C21      -7.7538    -2.2040   -10.0277  C.3     1  <O>11      -0.0265
  28 C22      -6.4447    -2.8809   -10.4780  C.3     1  <O>11      -0.0484
  29 C23      -6.2618    -3.3576    -9.0235  C.3     1  <O>11      -0.0265
  30 C24      -6.5512    -0.7389    -5.9809  C.3     1  <O>11      -0.0107
  31 C25      -5.1781    -0.0829    -5.8754  C.3     1  <O>11       0.0173
  32 H1       -3.0795     7.1305    -8.0018  H       1  <O>11       0.0377
  33 H2       -2.2045     5.5806    -8.0347  H       1  <O>11       0.0377
  34 H3        0.5353     5.8055    -4.2192  H       1  <O>11       0.1921
  35 H4       -5.9118     2.7313    -7.6414  H       1  <O>11       0.0465
  36 H5       -5.2247     1.2225    -8.2907  H       1  <O>11       0.0465
  37 H6       -7.8898     1.5413    -6.8652  H       1  <O>11       0.0305
  38 H7       -7.6405     1.2261    -8.5991  H       1  <O>11       0.0305
  39 H8       -8.2401    -0.8220    -7.2997  H       1  <O>11       0.0597
  40 H9       -7.8879    -2.5513    -7.9523  H       1  <O>11       0.0596
  41 H10      -8.6600    -2.7934   -10.1694  H       1  <O>11       0.0290
  42 H11      -7.9128    -1.1940   -10.4056  H       1  <O>11       0.0290
  43 H12      -6.5775    -3.6823   -11.2052  H       1  <O>11       0.0267
  44 H13      -5.6774    -2.1930   -10.8307  H       1  <O>11       0.0267
  45 H14      -6.6335    -4.3593    -8.8086  H       1  <O>11       0.0290
  46 H15      -5.2547    -3.2491    -8.6192  H       1  <O>11       0.0290
  47 H16      -7.1850    -0.3589    -5.1796  H       1  <O>11       0.0305
  48 H17      -6.4357    -1.8179    -5.8731  H       1  <O>11       0.0305
  49 H18      -4.8045    -0.2122    -4.8597  H       1  <O>11       0.0465
  50 H19      -4.5007    -0.5715    -6.5769  H       1  <O>11       0.0465
  51 H20      -6.6838     4.0385    -4.7601  H       1  <O>11       0.0625
  52 H21      -6.7890     6.3955    -5.3330  H       1  <O>11       0.0618
  53 H22      -4.9560     7.4410    -6.5426  H       1  <O>11       0.0620
  54 H23      -0.0122    10.4833    -4.2804  H       1  <O>11       0.0625
  55 H24      -1.3289    12.0285    -5.5987  H       1  <O>11       0.0618
  56 H25      -2.8267    11.1919    -7.3106  H       1  <O>11       0.0618
  57 H26      -3.0053     8.8091    -7.7044  H       1  <O>11       0.0624
  58 H27      -2.8998     3.7645    -6.6061  H       1  <O>11       0.0628
@<TRIPOS>BOND
     1     1     2    2
     2     2     3    1
     3     3     4   ar
     4     4     5   ar
     5     5     6   ar
     6     6     7   ar
     7     7     8    1
     8     8     9    1
     9     9    10   ar
    10    10    11   ar
    11    11    12   ar
    12    12    13    2
    13    12    14   ar
    14    14    15   ar
    15    15    16   ar
    16    16    17   ar
    17    17    18   ar
    18    18    19   ar
    19     9    19   ar
    20    14    19   ar
    21     7    20   ar
    22     3    20   ar
    23     2    21   am
    24    21    22    1
    25    22    23    1
    26    23    24    1
    27    24    25    1
    28    25    26    1
    29    26    27    1
    30    27    28    1
    31    28    29    1
    32    26    29    1
    33    24    30    1
    34    30    31    1
    35    21    31    1
    36     8    32    1
    37     8    33    1
    38    11    34    1
    39    22    35    1
    40    22    36    1
    41    23    37    1
    42    23    38    1
    43    24    39    1
    44    26    40    1
    45    27    41    1
    46    27    42    1
    47    28    43    1
    48    28    44    1
    49    29    45    1
    50    29    46    1
    51    30    47    1
    52    30    48    1
    53    31    49    1
    54    31    50    1
    55     4    51    1
    56     5    52    1
    57     6    53    1
    58    15    54    1
    59    16    55    1
    60    17    56    1
    61    18    57    1
    62    20    58    1
@<TRIPOS>MOLECULE
mol96_1_5
 58 62 0 0 0
SMALL
USER_CHARGES
****
VDW energy = 10.25
@<TRIPOS>ATOM
   1 O1       -4.2425     1.9267    -4.2583  O.2     1  <O>11      -0.2700
   2 C1       -4.7326     2.2891    -5.3174  C.2     1  <O>11       0.2466
   3 C2       -4.7890     3.7070    -5.6470  C.ar    1  <O>11       0.0372
   4 C3       -5.9052     4.4773    -5.2763  C.ar    1  <O>11      -0.0496
   5 C4       -5.9651     5.8365    -5.6044  C.ar    1  <O>11      -0.0608
   6 C5       -4.9121     6.4392    -6.2987  C.ar    1  <O>11      -0.0582
   7 C6       -3.7989     5.6740    -6.6602  C.ar    1  <O>11      -0.0408
   8 C7       -2.6890     6.3160    -7.3916  C.3     1  <O>11       0.0171
   9 C8       -2.1268     7.4200    -6.5706  C.ar    1  <O>11       0.0736
  10 N1       -1.3676     7.1264    -5.4325  N.ar    1  <O>11      -0.1750
  11 N2       -0.9380     8.1178    -4.6182  N.ar    1  <O>11      -0.2425
  12 C9       -1.2414     9.4015    -4.9241  C.ar    1  <O>11       0.2725
  13 O2       -0.8500    10.3750    -3.9862  O.2     1  <O>11      -0.2658
  14 C10      -1.9075     9.7861    -6.0973  C.ar    1  <O>11       0.0496
  15 C11      -2.1746    11.1295    -6.4498  C.ar    1  <O>11      -0.0487
  16 C12      -2.8708    11.4411    -7.6186  C.ar    1  <O>11      -0.0610
  17 C13      -3.3192    10.4221    -8.4511  C.ar    1  <O>11      -0.0611
  18 C14      -3.0710     9.0896    -8.1159  C.ar    1  <O>11      -0.0521
  19 C15      -2.3596     8.7559    -6.9405  C.ar    1  <O>11       0.0106
  20 C16      -3.7287     4.3176    -6.3377  C.ar    1  <O>11      -0.0461
  21 N3       -5.2250     1.3690    -6.1880  N.am    1  <O>11      -0.2974
  22 C17      -5.8467     1.6516    -7.5052  C.3     1  <O>11       0.0173
  23 C18      -7.2453     1.0547    -7.5974  C.3     1  <O>11      -0.0107
  24 C19      -7.2181    -0.4446    -7.3197  C.3     1  <O>11       0.0619
  25 O3       -6.4934    -1.0936    -8.3517  O.3     1  <O>11      -0.3732
  26 C20      -7.1649    -2.2866    -8.7232  C.3     1  <O>11       0.0591
  27 C21      -7.7538    -2.2040   -10.0277  C.3     1  <O>11      -0.0265
  28 C22      -6.4447    -2.8809   -10.4780  C.3     1  <O>11      -0.0484
  29 C23      -6.2618    -3.3576    -9.0235  C.3     1  <O>11      -0.0265
  30 C24      -6.5512    -0.7389    -5.9809  C.3     1  <O>11      -0.0107
  31 C25      -5.1781    -0.0829    -5.8754  C.3     1  <O>11       0.0173
  32 H1       -3.0597     6.7164    -8.3352  H       1  <O>11       0.0377
  33 H2       -1.9108     5.5785    -7.5908  H       1  <O>11       0.0377
  34 H3       -0.3966     7.9021    -3.7930  H       1  <O>11       0.1921
  35 H4       -5.9118     2.7313    -7.6414  H       1  <O>11       0.0465
  36 H5       -5.2247     1.2225    -8.2907  H       1  <O>11       0.0465
  37 H6       -7.8898     1.5413    -6.8652  H       1  <O>11       0.0305
  38 H7       -7.6405     1.2261    -8.5991  H       1  <O>11       0.0305
  39 H8       -8.2401    -0.8220    -7.2997  H       1  <O>11       0.0597
  40 H9       -7.8879    -2.5513    -7.9523  H       1  <O>11       0.0596
  41 H10      -8.6600    -2.7934   -10.1694  H       1  <O>11       0.0290
  42 H11      -7.9128    -1.1940   -10.4056  H       1  <O>11       0.0290
  43 H12      -6.5775    -3.6823   -11.2052  H       1  <O>11       0.0267
  44 H13      -5.6774    -2.1930   -10.8307  H       1  <O>11       0.0267
  45 H14      -6.6335    -4.3593    -8.8086  H       1  <O>11       0.0290
  46 H15      -5.2547    -3.2491    -8.6192  H       1  <O>11       0.0290
  47 H16      -7.1850    -0.3589    -5.1796  H       1  <O>11       0.0305
  48 H17      -6.4357    -1.8179    -5.8731  H       1  <O>11       0.0305
  49 H18      -4.8045    -0.2122    -4.8597  H       1  <O>11       0.0465
  50 H19      -4.5007    -0.5715    -6.5769  H       1  <O>11       0.0465
  51 H20      -6.6838     4.0385    -4.7601  H       1  <O>11       0.0625
  52 H21      -6.7890     6.3955    -5.3330  H       1  <O>11       0.0618
  53 H22      -4.9560     7.4410    -6.5426  H       1  <O>11       0.0620
  54 H23      -1.8498    11.8909    -5.8334  H       1  <O>11       0.0625
  55 H24      -3.0524    12.4267    -7.8645  H       1  <O>11       0.0618
  56 H25      -3.8347    10.6502    -9.3156  H       1  <O>11       0.0618
  57 H26      -3.4117     8.3375    -8.7351  H       1  <O>11       0.0624
  58 H27      -2.8998     3.7645    -6.6061  H       1  <O>11       0.0628
@<TRIPOS>BOND
     1     1     2    2
     2     2     3    1
     3     3     4   ar
     4     4     5   ar
     5     5     6   ar
     6     6     7   ar
     7     7     8    1
     8     8     9    1
     9     9    10   ar
    10    10    11   ar
    11    11    12   ar
    12    12    13    2
    13    12    14   ar
    14    14    15   ar
    15    15    16   ar
    16    16    17   ar
    17    17    18   ar
    18    18    19   ar
    19     9    19   ar
    20    14    19   ar
    21     7    20   ar
    22     3    20   ar
    23     2    21   am
    24    21    22    1
    25    22    23    1
    26    23    24    1
    27    24    25    1
    28    25    26    1
    29    26    27    1
    30    27    28    1
    31    28    29    1
    32    26    29    1
    33    24    30    1
    34    30    31    1
    35    21    31    1
    36     8    32    1
    37     8    33    1
    38    11    34    1
    39    22    35    1
    40    22    36    1
    41    23    37    1
    42    23    38    1
    43    24    39    1
    44    26    40    1
    45    27    41    1
    46    27    42    1
    47    28    43    1
    48    28    44    1
    49    29    45    1
    50    29    46    1
    51    30    47    1
    52    30    48    1
    53    31    49    1
    54    31    50    1
    55     4    51    1
    56     5    52    1
    57     6    53    1
    58    15    54    1
    59    16    55    1
    60    17    56    1
    61    18    57    1
    62    20    58    1
@<TRIPOS>MOLECULE
mol96_1_6
 58 62 0 0 0
SMALL
USER_CHARGES
****
VDW energy = 10.79
@<TRIPOS>ATOM
   1 O1       -4.2425     1.9267    -4.2583  O.2     1  <O>11      -0.2700
   2 C1       -4.7326     2.2891    -5.3174  C.2     1  <O>11       0.2466
   3 C2       -4.7890     3.7070    -5.6470  C.ar    1  <O>11       0.0372
   4 C3       -5.9052     4.4773    -5.2763  C.ar    1  <O>11      -0.0496
   5 C4       -5.9651     5.8365    -5.6044  C.ar    1  <O>11      -0.0608
   6 C5       -4.9121     6.4392    -6.2987  C.ar    1  <O>11      -0.0582
   7 C6       -3.7989     5.6740    -6.6602  C.ar    1  <O>11      -0.0408
   8 C7       -2.6890     6.3160    -7.3916  C.3     1  <O>11       0.0171
   9 C8       -1.7002     6.8531    -6.4207  C.ar    1  <O>11       0.0736
  10 N1       -0.8801     5.9758    -5.7025  N.ar    1  <O>11      -0.1750
  11 N2       -0.0499     6.4423    -4.7413  N.ar    1  <O>11      -0.2425
  12 C9       -0.0127     7.7722    -4.4897  C.ar    1  <O>11       0.2725
  13 O2        0.7968     8.1805    -3.4133  O.2     1  <O>11      -0.2658
  14 C10      -0.7244     8.7258    -5.2327  C.ar    1  <O>11       0.0496
  15 C11      -0.6433    10.1204    -5.0119  C.ar    1  <O>11      -0.0487
  16 C12      -1.4039    11.0133    -5.7683  C.ar    1  <O>11      -0.0610
  17 C13      -2.2628    10.5335    -6.7504  C.ar    1  <O>11      -0.0611
  18 C14      -2.3614     9.1594    -6.9779  C.ar    1  <O>11      -0.0521
  19 C15      -1.5919     8.2411    -6.2274  C.ar    1  <O>11       0.0106
  20 C16      -3.7287     4.3176    -6.3377  C.ar    1  <O>11      -0.0461
  21 N3       -5.2250     1.3690    -6.1880  N.am    1  <O>11      -0.2974
  22 C17      -5.8467     1.6516    -7.5052  C.3     1  <O>11       0.0173
  23 C18      -7.2453     1.0547    -7.5974  C.3     1  <O>11      -0.0107
  24 C19      -7.2181    -0.4446    -7.3197  C.3     1  <O>11       0.0619
  25 O3       -6.4934    -1.0936    -8.3517  O.3     1  <O>11      -0.3732
  26 C20      -7.3817    -1.4601    -9.3952  C.3     1  <O>11       0.0591
  27 C21      -6.7160    -2.1239   -10.4776  C.3     1  <O>11      -0.0265
  28 C22      -7.1584    -3.4044    -9.7431  C.3     1  <O>11      -0.0484
  29 C23      -8.2332    -2.5550    -9.0361  C.3     1  <O>11      -0.0265
  30 C24      -6.5512    -0.7389    -5.9809  C.3     1  <O>11      -0.0107
  31 C25      -5.1781    -0.0829    -5.8754  C.3     1  <O>11       0.0173
  32 H1       -3.0795     7.1305    -8.0018  H       1  <O>11       0.0377
  33 H2       -2.2045     5.5806    -8.0347  H       1  <O>11       0.0377
  34 H3        0.5353     5.8055    -4.2192  H       1  <O>11       0.1921
  35 H4       -5.9118     2.7313    -7.6414  H       1  <O>11       0.0465
  36 H5       -5.2247     1.2225    -8.2907  H       1  <O>11       0.0465
  37 H6       -7.8898     1.5413    -6.8652  H       1  <O>11       0.0305
  38 H7       -7.6405     1.2261    -8.5991  H       1  <O>11       0.0305
  39 H8       -8.2401    -0.8220    -7.2997  H       1  <O>11       0.0597
  40 H9       -7.9406    -0.5833    -9.7207  H       1  <O>11       0.0596
  41 H10      -7.1582    -1.9709   -11.4623  H       1  <O>11       0.0290
  42 H11      -5.6392    -1.9640   -10.5325  H       1  <O>11       0.0290
  43 H12      -7.5525    -4.1853   -10.3940  H       1  <O>11       0.0267
  44 H13      -6.4058    -3.8289    -9.0800  H       1  <O>11       0.0267
  45 H14      -9.2166    -2.5585    -9.5056  H       1  <O>11       0.0290
  46 H15      -8.3408    -2.7339    -7.9657  H       1  <O>11       0.0290
  47 H16      -7.1850    -0.3589    -5.1796  H       1  <O>11       0.0305
  48 H17      -6.4357    -1.8179    -5.8731  H       1  <O>11       0.0305
  49 H18      -4.8045    -0.2122    -4.8597  H       1  <O>11       0.0465
  50 H19      -4.5007    -0.5715    -6.5769  H       1  <O>11       0.0465
  51 H20      -6.6838     4.0385    -4.7601  H       1  <O>11       0.0625
  52 H21      -6.7890     6.3955    -5.3330  H       1  <O>11       0.0618
  53 H22      -4.9560     7.4410    -6.5426  H       1  <O>11       0.0620
  54 H23      -0.0122    10.4833    -4.2804  H       1  <O>11       0.0625
  55 H24      -1.3289    12.0285    -5.5987  H       1  <O>11       0.0618
  56 H25      -2.8267    11.1919    -7.3106  H       1  <O>11       0.0618
  57 H26      -3.0053     8.8091    -7.7044  H       1  <O>11       0.0624
  58 H27      -2.8998     3.7645    -6.6061  H       1  <O>11       0.0628
@<TRIPOS>BOND
     1     1     2    2
     2     2     3    1
     3     3     4   ar
     4     4     5   ar
     5     5     6   ar
     6     6     7   ar
     7     7     8    1
     8     8     9    1
     9     9    10   ar
    10    10    11   ar
    11    11    12   ar
    12    12    13    2
    13    12    14   ar
    14    14    15   ar
    15    15    16   ar
    16    16    17   ar
    17    17    18   ar
    18    18    19   ar
    19     9    19   ar
    20    14    19   ar
    21     7    20   ar
    22     3    20   ar
    23     2    21   am
    24    21    22    1
    25    22    23    1
    26    23    24    1
    27    24    25    1
    28    25    26    1
    29    26    27    1
    30    27    28    1
    31    28    29    1
    32    26    29    1
    33    24    30    1
    34    30    31    1
    35    21    31    1
    36     8    32    1
    37     8    33    1
    38    11    34    1
    39    22    35    1
    40    22    36    1
    41    23    37    1
    42    23    38    1
    43    24    39    1
    44    26    40    1
    45    27    41    1
    46    27    42    1
    47    28    43    1
    48    28    44    1
    49    29    45    1
    50    29    46    1
    51    30    47    1
    52    30    48    1
    53    31    49    1
    54    31    50    1
    55     4    51    1
    56     5    52    1
    57     6    53    1
    58    15    54    1
    59    16    55    1
    60    17    56    1
    61    18    57    1
    62    20    58    1
@<TRIPOS>MOLECULE
mol96_1_7
 58 62 0 0 0
SMALL
USER_CHARGES
****
VDW energy = 11.41
@<TRIPOS>ATOM
   1 O1       -4.2425     1.9267    -4.2583  O.2     1  <O>11      -0.2700
   2 C1       -4.7326     2.2891    -5.3174  C.2     1  <O>11       0.2466
   3 C2       -4.7890     3.7070    -5.6470  C.ar    1  <O>11       0.0372
   4 C3       -5.9052     4.4773    -5.2763  C.ar    1  <O>11      -0.0496
   5 C4       -5.9651     5.8365    -5.6044  C.ar    1  <O>11      -0.0608
   6 C5       -4.9121     6.4392    -6.2987  C.ar    1  <O>11      -0.0582
   7 C6       -3.7989     5.6740    -6.6602  C.ar    1  <O>11      -0.0408
   8 C7       -2.6890     6.3160    -7.3916  C.3     1  <O>11       0.0171
   9 C8       -1.7002     6.8531    -6.4207  C.ar    1  <O>11       0.0736
  10 N1       -0.8801     5.9758    -5.7025  N.ar    1  <O>11      -0.1750
  11 N2       -0.0499     6.4423    -4.7413  N.ar    1  <O>11      -0.2425
  12 C9       -0.0127     7.7722    -4.4897  C.ar    1  <O>11       0.2725
  13 O2        0.7968     8.1805    -3.4133  O.2     1  <O>11      -0.2658
  14 C10      -0.7244     8.7258    -5.2327  C.ar    1  <O>11       0.0496
  15 C11      -0.6433    10.1204    -5.0119  C.ar    1  <O>11      -0.0487
  16 C12      -1.4039    11.0133    -5.7683  C.ar    1  <O>11      -0.0610
  17 C13      -2.2628    10.5335    -6.7504  C.ar    1  <O>11      -0.0611
  18 C14      -2.3614     9.1594    -6.9779  C.ar    1  <O>11      -0.0521
  19 C15      -1.5919     8.2411    -6.2274  C.ar    1  <O>11       0.0106
  20 C16      -3.7287     4.3176    -6.3377  C.ar    1  <O>11      -0.0461
  21 N3       -5.2250     1.3690    -6.1880  N.am    1  <O>11      -0.2974
  22 C17      -5.2400    -0.1020    -5.9950  C.3     1  <O>11       0.0173
  23 C18      -4.5440    -0.8190    -7.1450  C.3     1  <O>11      -0.0107
  24 C19      -5.1700    -0.4400    -8.4830  C.3     1  <O>11       0.0619
  25 O3       -6.5020    -0.9250    -8.5250  O.3     1  <O>11      -0.3732
  26 C20      -6.7643    -1.4775    -9.8049  C.3     1  <O>11       0.0591
  27 C21      -6.8955    -2.9048    -9.7725  C.3     1  <O>11      -0.0265
  28 C22      -8.4020    -2.5961    -9.6719  C.3     1  <O>11      -0.0484
  29 C23      -8.0947    -1.2053   -10.2615  C.3     1  <O>11      -0.0265
  30 C24      -5.1840     1.0730    -8.6690  C.3     1  <O>11      -0.0107
  31 C25      -5.8260     1.7840    -7.4820  C.3     1  <O>11       0.0173
  32 H1       -3.0795     7.1305    -8.0018  H       1  <O>11       0.0377
  33 H2       -2.2045     5.5806    -8.0347  H       1  <O>11       0.0377
  34 H3        0.5353     5.8055    -4.2192  H       1  <O>11       0.1921
  35 H4       -4.7260    -0.3420    -5.0640  H       1  <O>11       0.0465
  36 H5       -6.2740    -0.4420    -5.9380  H       1  <O>11       0.0465
  37 H6       -3.4900    -0.5410    -7.1530  H       1  <O>11       0.0305
  38 H7       -4.6340    -1.8960    -7.0000  H       1  <O>11       0.0305
  39 H8       -4.5920    -0.8930    -9.2880  H       1  <O>11       0.0597
  40 H9       -6.0026    -1.1419   -10.5080  H       1  <O>11       0.0596
  41 H10      -6.5820    -3.4235   -10.6787  H       1  <O>11       0.0290
  42 H11      -6.4589    -3.3947    -8.9022  H       1  <O>11       0.0290
  43 H12      -9.0348    -3.2252   -10.2985  H       1  <O>11       0.0267
  44 H13      -8.7945    -2.5825    -8.6560  H       1  <O>11       0.0267
  45 H14      -8.2118    -1.1180   -11.3415  H       1  <O>11       0.0290
  46 H15      -8.5964    -0.3693    -9.7728  H       1  <O>11       0.0290
  47 H16      -4.1580     1.4250    -8.7770  H       1  <O>11       0.0305
  48 H17      -5.7480     1.3130    -9.5710  H       1  <O>11       0.0305
  49 H18      -5.6930     2.8590    -7.6030  H       1  <O>11       0.0465
  50 H19      -6.8910     1.5490    -7.4660  H       1  <O>11       0.0465
  51 H20      -6.6838     4.0385    -4.7601  H       1  <O>11       0.0625
  52 H21      -6.7890     6.3955    -5.3330  H       1  <O>11       0.0618
  53 H22      -4.9560     7.4410    -6.5426  H       1  <O>11       0.0620
  54 H23      -0.0122    10.4833    -4.2804  H       1  <O>11       0.0625
  55 H24      -1.3289    12.0285    -5.5987  H       1  <O>11       0.0618
  56 H25      -2.8267    11.1919    -7.3106  H       1  <O>11       0.0618
  57 H26      -3.0053     8.8091    -7.7044  H       1  <O>11       0.0624
  58 H27      -2.8998     3.7645    -6.6061  H       1  <O>11       0.0628
@<TRIPOS>BOND
     1     1     2    2
     2     2     3    1
     3     3     4   ar
     4     4     5   ar
     5     5     6   ar
     6     6     7   ar
     7     7     8    1
     8     8     9    1
     9     9    10   ar
    10    10    11   ar
    11    11    12   ar
    12    12    13    2
    13    12    14   ar
    14    14    15   ar
    15    15    16   ar
    16    16    17   ar
    17    17    18   ar
    18    18    19   ar
    19     9    19   ar
    20    14    19   ar
    21     7    20   ar
    22     3    20   ar
    23     2    21   am
    24    21    22    1
    25    22    23    1
    26    23    24    1
    27    24    25    1
    28    25    26    1
    29    26    27    1
    30    27    28    1
    31    28    29    1
    32    26    29    1
    33    24    30    1
    34    30    31    1
    35    21    31    1
    36     8    32    1
    37     8    33    1
    38    11    34    1
    39    22    35    1
    40    22    36    1
    41    23    37    1
    42    23    38    1
    43    24    39    1
    44    26    40    1
    45    27    41    1
    46    27    42    1
    47    28    43    1
    48    28    44    1
    49    29    45    1
    50    29    46    1
    51    30    47    1
    52    30    48    1
    53    31    49    1
    54    31    50    1
    55     4    51    1
    56     5    52    1
    57     6    53    1
    58    15    54    1
    59    16    55    1
    60    17    56    1
    61    18    57    1
    62    20    58    1
@<TRIPOS>MOLECULE
mol96_1_8
 58 62 0 0 0
SMALL
USER_CHARGES
****
VDW energy = 11.51
@<TRIPOS>ATOM
   1 O1       -4.2425     1.9267    -4.2583  O.2     1  <O>11      -0.2700
   2 C1       -4.7326     2.2891    -5.3174  C.2     1  <O>11       0.2466
   3 C2       -4.7890     3.7070    -5.6470  C.ar    1  <O>11       0.0372
   4 C3       -5.9052     4.4773    -5.2763  C.ar    1  <O>11      -0.0496
   5 C4       -5.9651     5.8365    -5.6044  C.ar    1  <O>11      -0.0608
   6 C5       -4.9121     6.4392    -6.2987  C.ar    1  <O>11      -0.0582
   7 C6       -3.7989     5.6740    -6.6602  C.ar    1  <O>11      -0.0408
   8 C7       -2.6890     6.3160    -7.3916  C.3     1  <O>11       0.0171
   9 C8       -3.1936     6.8634    -8.6779  C.ar    1  <O>11       0.0736
  10 N1       -4.5438     6.7192    -9.0158  N.ar    1  <O>11      -0.1750
  11 N2       -4.9958     7.1189   -10.2268  N.ar    1  <O>11      -0.2425
  12 C9       -4.1273     7.6723   -11.1059  C.ar    1  <O>11       0.2725
  13 O2       -4.6395     7.9754   -12.3812  O.2     1  <O>11      -0.2658
  14 C10      -2.7842     7.9455   -10.8068  C.ar    1  <O>11       0.0496
  15 C11      -1.8885     8.5769   -11.7008  C.ar    1  <O>11      -0.0487
  16 C12      -0.5545     8.7905   -11.3504  C.ar    1  <O>11      -0.0610
  17 C13      -0.0881     8.3727   -10.1092  C.ar    1  <O>11      -0.0611
  18 C14      -0.9561     7.7412    -9.2162  C.ar    1  <O>11      -0.0521
  19 C15      -2.3125     7.5246    -9.5509  C.ar    1  <O>11       0.0106
  20 C16      -3.7287     4.3176    -6.3377  C.ar    1  <O>11      -0.0461
  21 N3       -5.2250     1.3690    -6.1880  N.am    1  <O>11      -0.2974
  22 C17      -5.8467     1.6516    -7.5052  C.3     1  <O>11       0.0173
  23 C18      -7.2453     1.0547    -7.5974  C.3     1  <O>11      -0.0107
  24 C19      -7.2181    -0.4446    -7.3197  C.3     1  <O>11       0.0619
  25 O3       -6.4934    -1.0936    -8.3517  O.3     1  <O>11      -0.3732
  26 C20      -7.3817    -1.4601    -9.3952  C.3     1  <O>11       0.0591
  27 C21      -6.7160    -2.1239   -10.4776  C.3     1  <O>11      -0.0265
  28 C22      -7.1584    -3.4044    -9.7431  C.3     1  <O>11      -0.0484
  29 C23      -8.2332    -2.5550    -9.0361  C.3     1  <O>11      -0.0265
  30 C24      -6.5512    -0.7389    -5.9809  C.3     1  <O>11      -0.0107
  31 C25      -5.1781    -0.0829    -5.8754  C.3     1  <O>11       0.0173
  32 H1       -1.9107     5.5791    -7.5899  H       1  <O>11       0.0377
  33 H2       -2.2771     7.1258    -6.7886  H       1  <O>11       0.0377
  34 H3       -5.9697     7.0064   -10.4708  H       1  <O>11       0.1921
  35 H4       -5.9118     2.7313    -7.6414  H       1  <O>11       0.0465
  36 H5       -5.2247     1.2225    -8.2907  H       1  <O>11       0.0465
  37 H6       -7.8898     1.5413    -6.8652  H       1  <O>11       0.0305
  38 H7       -7.6405     1.2261    -8.5991  H       1  <O>11       0.0305
  39 H8       -8.2401    -0.8220    -7.2997  H       1  <O>11       0.0597
  40 H9       -7.9406    -0.5833    -9.7207  H       1  <O>11       0.0596
  41 H10      -7.1582    -1.9709   -11.4623  H       1  <O>11       0.0290
  42 H11      -5.6392    -1.9640   -10.5325  H       1  <O>11       0.0290
  43 H12      -7.5525    -4.1853   -10.3940  H       1  <O>11       0.0267
  44 H13      -6.4058    -3.8289    -9.0800  H       1  <O>11       0.0267
  45 H14      -9.2166    -2.5585    -9.5056  H       1  <O>11       0.0290
  46 H15      -8.3408    -2.7339    -7.9657  H       1  <O>11       0.0290
  47 H16      -7.1850    -0.3589    -5.1796  H       1  <O>11       0.0305
  48 H17      -6.4357    -1.8179    -5.8731  H       1  <O>11       0.0305
  49 H18      -4.8045    -0.2122    -4.8597  H       1  <O>11       0.0465
  50 H19      -4.5007    -0.5715    -6.5769  H       1  <O>11       0.0465
  51 H20      -6.6838     4.0385    -4.7601  H       1  <O>11       0.0625
  52 H21      -6.7890     6.3955    -5.3330  H       1  <O>11       0.0618
  53 H22      -4.9560     7.4410    -6.5426  H       1  <O>11       0.0620
  54 H23      -2.2263     8.8844   -12.6261  H       1  <O>11       0.0625
  55 H24       0.0849     9.2581   -12.0118  H       1  <O>11       0.0618
  56 H25       0.8980     8.5291    -9.8482  H       1  <O>11       0.0618
  57 H26      -0.6023     7.4280    -8.2987  H       1  <O>11       0.0624
  58 H27      -2.8998     3.7645    -6.6061  H       1  <O>11       0.0628
@<TRIPOS>BOND
     1     1     2    2
     2     2     3    1
     3     3     4   ar
     4     4     5   ar
     5     5     6   ar
     6     6     7   ar
     7     7     8    1
     8     8     9    1
     9     9    10   ar
    10    10    11   ar
    11    11    12   ar
    12    12    13    2
    13    12    14   ar
    14    14    15   ar
    15    15    16   ar
    16    16    17   ar
    17    17    18   ar
    18    18    19   ar
    19     9    19   ar
    20    14    19   ar
    21     7    20   ar
    22     3    20   ar
    23     2    21   am
    24    21    22    1
    25    22    23    1
    26    23    24    1
    27    24    25    1
    28    25    26    1
    29    26    27    1
    30    27    28    1
    31    28    29    1
    32    26    29    1
    33    24    30    1
    34    30    31    1
    35    21    31    1
    36     8    32    1
    37     8    33    1
    38    11    34    1
    39    22    35    1
    40    22    36    1
    41    23    37    1
    42    23    38    1
    43    24    39    1
    44    26    40    1
    45    27    41    1
    46    27    42    1
    47    28    43    1
    48    28    44    1
    49    29    45    1
    50    29    46    1
    51    30    47    1
    52    30    48    1
    53    31    49    1
    54    31    50    1
    55     4    51    1
    56     5    52    1
    57     6    53    1
    58    15    54    1
    59    16    55    1
    60    17    56    1
    61    18    57    1
    62    20    58    1
@<TRIPOS>MOLECULE
mol96_1_9
 58 62 0 0 0
SMALL
USER_CHARGES
****
VDW energy = 12.48
@<TRIPOS>ATOM
   1 O1       -4.2425     1.9267    -4.2583  O.2     1  <O>11      -0.2700
   2 C1       -4.7326     2.2891    -5.3174  C.2     1  <O>11       0.2466
   3 C2       -4.7890     3.7070    -5.6470  C.ar    1  <O>11       0.0372
   4 C3       -5.9052     4.4773    -5.2763  C.ar    1  <O>11      -0.0496
   5 C4       -5.9651     5.8365    -5.6044  C.ar    1  <O>11      -0.0608
   6 C5       -4.9121     6.4392    -6.2987  C.ar    1  <O>11      -0.0582
   7 C6       -3.7989     5.6740    -6.6602  C.ar    1  <O>11      -0.0408
   8 C7       -2.6890     6.3160    -7.3916  C.3     1  <O>11       0.0171
   9 C8       -2.1268     7.4200    -6.5706  C.ar    1  <O>11       0.0736
  10 N1       -1.3676     7.1264    -5.4325  N.ar    1  <O>11      -0.1750
  11 N2       -0.9380     8.1178    -4.6182  N.ar    1  <O>11      -0.2425
  12 C9       -1.2414     9.4015    -4.9241  C.ar    1  <O>11       0.2725
  13 O2       -0.8500    10.3750    -3.9862  O.2     1  <O>11      -0.2658
  14 C10      -1.9075     9.7861    -6.0973  C.ar    1  <O>11       0.0496
  15 C11      -2.1746    11.1295    -6.4498  C.ar    1  <O>11      -0.0487
  16 C12      -2.8708    11.4411    -7.6186  C.ar    1  <O>11      -0.0610
  17 C13      -3.3192    10.4221    -8.4511  C.ar    1  <O>11      -0.0611
  18 C14      -3.0710     9.0896    -8.1159  C.ar    1  <O>11      -0.0521
  19 C15      -2.3596     8.7559    -6.9405  C.ar    1  <O>11       0.0106
  20 C16      -3.7287     4.3176    -6.3377  C.ar    1  <O>11      -0.0461
  21 N3       -5.2250     1.3690    -6.1880  N.am    1  <O>11      -0.2974
  22 C17      -5.2393    -0.1021    -5.9953  C.3     1  <O>11       0.0173
  23 C18      -4.5435    -0.8185    -7.1458  C.3     1  <O>11      -0.0107
  24 C19      -5.1703    -0.4394    -8.4834  C.3     1  <O>11       0.0619
  25 O3       -6.5021    -0.9250    -8.5250  O.3     1  <O>11      -0.3732
  26 C20      -6.7647    -1.4773    -9.8049  C.3     1  <O>11       0.0591
  27 C21      -6.8953    -2.9046    -9.7728  C.3     1  <O>11      -0.0265
  28 C22      -8.4019    -2.5966    -9.6715  C.3     1  <O>11      -0.0484
  29 C23      -8.0955    -1.2055   -10.2609  C.3     1  <O>11      -0.0265
  30 C24      -5.1850     1.0736    -8.6691  C.3     1  <O>11      -0.0107
  31 C25      -5.8267     1.7841    -7.4816  C.3     1  <O>11       0.0173
  32 H1       -3.0597     6.7164    -8.3352  H       1  <O>11       0.0377
  33 H2       -1.9108     5.5785    -7.5908  H       1  <O>11       0.0377
  34 H3       -0.3966     7.9021    -3.7930  H       1  <O>11       0.1921
  35 H4       -4.7248    -0.3421    -5.0646  H       1  <O>11       0.0465
  36 H5       -6.2731    -0.4425    -5.9380  H       1  <O>11       0.0465
  37 H6       -3.4896    -0.5401    -7.1542  H       1  <O>11       0.0305
  38 H7       -4.6330    -1.8956    -7.0010  H       1  <O>11       0.0305
  39 H8       -4.5924    -0.8920    -9.2888  H       1  <O>11       0.0597
  40 H9       -6.0034    -1.1413   -10.5083  H       1  <O>11       0.0596
  41 H10      -6.5820    -3.4231   -10.6792  H       1  <O>11       0.0290
  42 H11      -6.4581    -3.3945    -8.9027  H       1  <O>11       0.0290
  43 H12      -9.0347    -3.2258   -10.2979  H       1  <O>11       0.0267
  44 H13      -8.7940    -2.5834    -8.6554  H       1  <O>11       0.0267
  45 H14      -8.2130    -1.1180   -11.3407  H       1  <O>11       0.0290
  46 H15      -8.5972    -0.3698    -9.7717  H       1  <O>11       0.0290
  47 H16      -4.1592     1.4260    -8.7775  H       1  <O>11       0.0305
  48 H17      -5.7495     1.3136    -9.5708  H       1  <O>11       0.0305
  49 H18      -5.6942     2.8591    -7.6024  H       1  <O>11       0.0465
  50 H19      -6.8916     1.5486    -7.4652  H       1  <O>11       0.0465
  51 H20      -6.6838     4.0385    -4.7601  H       1  <O>11       0.0625
  52 H21      -6.7890     6.3955    -5.3330  H       1  <O>11       0.0618
  53 H22      -4.9560     7.4410    -6.5426  H       1  <O>11       0.0620
  54 H23      -1.8498    11.8909    -5.8334  H       1  <O>11       0.0625
  55 H24      -3.0524    12.4267    -7.8645  H       1  <O>11       0.0618
  56 H25      -3.8347    10.6502    -9.3156  H       1  <O>11       0.0618
  57 H26      -3.4117     8.3375    -8.7351  H       1  <O>11       0.0624
  58 H27      -2.8998     3.7645    -6.6061  H       1  <O>11       0.0628
@<TRIPOS>BOND
     1     1     2    2
     2     2     3    1
     3     3     4   ar
     4     4     5   ar
     5     5     6   ar
     6     6     7   ar
     7     7     8    1
     8     8     9    1
     9     9    10   ar
    10    10    11   ar
    11    11    12   ar
    12    12    13    2
    13    12    14   ar
    14    14    15   ar
    15    15    16   ar
    16    16    17   ar
    17    17    18   ar
    18    18    19   ar
    19     9    19   ar
    20    14    19   ar
    21     7    20   ar
    22     3    20   ar
    23     2    21   am
    24    21    22    1
    25    22    23    1
    26    23    24    1
    27    24    25    1
    28    25    26    1
    29    26    27    1
    30    27    28    1
    31    28    29    1
    32    26    29    1
    33    24    30    1
    34    30    31    1
    35    21    31    1
    36     8    32    1
    37     8    33    1
    38    11    34    1
    39    22    35    1
    40    22    36    1
    41    23    37    1
    42    23    38    1
    43    24    39    1
    44    26    40    1
    45    27    41    1
    46    27    42    1
    47    28    43    1
    48    28    44    1
    49    29    45    1
    50    29    46    1
    51    30    47    1
    52    30    48    1
    53    31    49    1
    54    31    50    1
    55     4    51    1
    56     5    52    1
    57     6    53    1
    58    15    54    1
    59    16    55    1
    60    17    56    1
    61    18    57    1
    62    20    58    1
@<TRIPOS>MOLECULE
mol96_1_10
 58 62 0 0 0
SMALL
USER_CHARGES
****
VDW energy = 17.65
@<TRIPOS>ATOM
   1 O1       -4.2425     1.9267    -4.2583  O.2     1  <O>11      -0.2700
   2 C1       -4.7326     2.2891    -5.3174  C.2     1  <O>11       0.2466
   3 C2       -4.7890     3.7070    -5.6470  C.ar    1  <O>11       0.0372
   4 C3       -5.9052     4.4773    -5.2763  C.ar    1  <O>11      -0.0496
   5 C4       -5.9651     5.8365    -5.6044  C.ar    1  <O>11      -0.0608
   6 C5       -4.9121     6.4392    -6.2987  C.ar    1  <O>11      -0.0582
   7 C6       -3.7989     5.6740    -6.6602  C.ar    1  <O>11      -0.0408
   8 C7       -2.6890     6.3160    -7.3916  C.3     1  <O>11       0.0171
   9 C8       -1.6277     5.3118    -7.6636  C.ar    1  <O>11       0.0736
  10 N1       -1.8409     4.3129    -8.6201  N.ar    1  <O>11      -0.1750
  11 N2       -0.9280     3.3314    -8.8041  N.ar    1  <O>11      -0.2425
  12 C9        0.2026     3.3332    -8.0591  C.ar    1  <O>11       0.2725
  13 O2        1.0632     2.2328    -8.2295  O.2     1  <O>11      -0.2658
  14 C10       0.5383     4.3523    -7.1553  C.ar    1  <O>11       0.0496
  15 C11       1.7450     4.3888    -6.4185  C.ar    1  <O>11      -0.0487
  16 C12       2.0022     5.4175    -5.5111  C.ar    1  <O>11      -0.0610
  17 C13       1.0608     6.4216    -5.3161  C.ar    1  <O>11      -0.0611
  18 C14      -0.1394     6.3984    -6.0294  C.ar    1  <O>11      -0.0521
  19 C15      -0.4128     5.3690    -6.9591  C.ar    1  <O>11       0.0106
  20 C16      -3.7287     4.3176    -6.3377  C.ar    1  <O>11      -0.0461
  21 N3       -5.2250     1.3690    -6.1880  N.am    1  <O>11      -0.2974
  22 C17      -5.8467     1.6516    -7.5052  C.3     1  <O>11       0.0173
  23 C18      -7.2453     1.0547    -7.5974  C.3     1  <O>11      -0.0107
  24 C19      -7.2181    -0.4446    -7.3197  C.3     1  <O>11       0.0619
  25 O3       -6.4934    -1.0936    -8.3517  O.3     1  <O>11      -0.3732
  26 C20      -7.1649    -2.2866    -8.7232  C.3     1  <O>11       0.0591
  27 C21      -7.7538    -2.2040   -10.0277  C.3     1  <O>11      -0.0265
  28 C22      -6.4447    -2.8809   -10.4780  C.3     1  <O>11      -0.0484
  29 C23      -6.2618    -3.3576    -9.0235  C.3     1  <O>11      -0.0265
  30 C24      -6.5512    -0.7389    -5.9809  C.3     1  <O>11      -0.0107
  31 C25      -5.1781    -0.0829    -5.8754  C.3     1  <O>11       0.0173
  32 H1       -2.2779     7.1261    -6.7892  H       1  <O>11       0.0377
  33 H2       -3.0601     6.7174    -8.3352  H       1  <O>11       0.0377
  34 H3       -1.0883     2.6072    -9.4900  H       1  <O>11       0.1921
  35 H4       -5.9118     2.7313    -7.6414  H       1  <O>11       0.0465
  36 H5       -5.2247     1.2225    -8.2907  H       1  <O>11       0.0465
  37 H6       -7.8898     1.5413    -6.8652  H       1  <O>11       0.0305
  38 H7       -7.6405     1.2261    -8.5991  H       1  <O>11       0.0305
  39 H8       -8.2401    -0.8220    -7.2997  H       1  <O>11       0.0597
  40 H9       -7.8879    -2.5513    -7.9523  H       1  <O>11       0.0596
  41 H10      -8.6600    -2.7934   -10.1694  H       1  <O>11       0.0290
  42 H11      -7.9128    -1.1940   -10.4056  H       1  <O>11       0.0290
  43 H12      -6.5775    -3.6823   -11.2052  H       1  <O>11       0.0267
  44 H13      -5.6774    -2.1930   -10.8307  H       1  <O>11       0.0267
  45 H14      -6.6335    -4.3593    -8.8086  H       1  <O>11       0.0290
  46 H15      -5.2547    -3.2491    -8.6192  H       1  <O>11       0.0290
  47 H16      -7.1850    -0.3589    -5.1796  H       1  <O>11       0.0305
  48 H17      -6.4357    -1.8179    -5.8731  H       1  <O>11       0.0305
  49 H18      -4.8045    -0.2122    -4.8597  H       1  <O>11       0.0465
  50 H19      -4.5007    -0.5715    -6.5769  H       1  <O>11       0.0465
  51 H20      -6.6838     4.0385    -4.7601  H       1  <O>11       0.0625
  52 H21      -6.7890     6.3955    -5.3330  H       1  <O>11       0.0618
  53 H22      -4.9560     7.4410    -6.5426  H       1  <O>11       0.0620
  54 H23       2.4459     3.6435    -6.5538  H       1  <O>11       0.0625
  55 H24       2.8902     5.4328    -4.9855  H       1  <O>11       0.0618
  56 H25       1.2486     7.1830    -4.6452  H       1  <O>11       0.0618
  57 H26      -0.8367     7.1435    -5.8757  H       1  <O>11       0.0624
  58 H27      -2.8998     3.7645    -6.6061  H       1  <O>11       0.0628
@<TRIPOS>BOND
     1     1     2    2
     2     2     3    1
     3     3     4   ar
     4     4     5   ar
     5     5     6   ar
     6     6     7   ar
     7     7     8    1
     8     8     9    1
     9     9    10   ar
    10    10    11   ar
    11    11    12   ar
    12    12    13    2
    13    12    14   ar
    14    14    15   ar
    15    15    16   ar
    16    16    17   ar
    17    17    18   ar
    18    18    19   ar
    19     9    19   ar
    20    14    19   ar
    21     7    20   ar
    22     3    20   ar
    23     2    21   am
    24    21    22    1
    25    22    23    1
    26    23    24    1
    27    24    25    1
    28    25    26    1
    29    26    27    1
    30    27    28    1
    31    28    29    1
    32    26    29    1
    33    24    30    1
    34    30    31    1
    35    21    31    1
    36     8    32    1
    37     8    33    1
    38    11    34    1
    39    22    35    1
    40    22    36    1
    41    23    37    1
    42    23    38    1
    43    24    39    1
    44    26    40    1
    45    27    41    1
    46    27    42    1
    47    28    43    1
    48    28    44    1
    49    29    45    1
    50    29    46    1
    51    30    47    1
    52    30    48    1
    53    31    49    1
    54    31    50    1
    55     4    51    1
    56     5    52    1
    57     6    53    1
    58    15    54    1
    59    16    55    1
    60    17    56    1
    61    18    57    1
    62    20    58    1
@<TRIPOS>MOLECULE
mol96_1_11
 58 62 0 0 0
SMALL
USER_CHARGES
****
VDW energy = 23.91
@<TRIPOS>ATOM
   1 O1       -4.2425     1.9267    -4.2583  O.2     1  <O>11      -0.2700
   2 C1       -4.7326     2.2891    -5.3174  C.2     1  <O>11       0.2466
   3 C2       -4.7890     3.7070    -5.6470  C.ar    1  <O>11       0.0372
   4 C3       -5.9052     4.4773    -5.2763  C.ar    1  <O>11      -0.0496
   5 C4       -5.9651     5.8365    -5.6044  C.ar    1  <O>11      -0.0608
   6 C5       -4.9121     6.4392    -6.2987  C.ar    1  <O>11      -0.0582
   7 C6       -3.7989     5.6740    -6.6602  C.ar    1  <O>11      -0.0408
   8 C7       -2.6890     6.3160    -7.3916  C.3     1  <O>11       0.0171
   9 C8       -1.7002     6.8531    -6.4207  C.ar    1  <O>11       0.0736
  10 N1       -0.8801     5.9758    -5.7025  N.ar    1  <O>11      -0.1750
  11 N2       -0.0499     6.4423    -4.7413  N.ar    1  <O>11      -0.2425
  12 C9       -0.0127     7.7722    -4.4897  C.ar    1  <O>11       0.2725
  13 O2        0.7968     8.1805    -3.4133  O.2     1  <O>11      -0.2658
  14 C10      -0.7244     8.7258    -5.2327  C.ar    1  <O>11       0.0496
  15 C11      -0.6433    10.1204    -5.0119  C.ar    1  <O>11      -0.0487
  16 C12      -1.4039    11.0133    -5.7683  C.ar    1  <O>11      -0.0610
  17 C13      -2.2628    10.5335    -6.7504  C.ar    1  <O>11      -0.0611
  18 C14      -2.3614     9.1594    -6.9779  C.ar    1  <O>11      -0.0521
  19 C15      -1.5919     8.2411    -6.2274  C.ar    1  <O>11       0.0106
  20 C16      -3.7287     4.3176    -6.3377  C.ar    1  <O>11      -0.0461
  21 N3       -5.2250     1.3690    -6.1880  N.am    1  <O>11      -0.2974
  22 C17      -5.8467     1.6516    -7.5052  C.3     1  <O>11       0.0173
  23 C18      -7.2453     1.0547    -7.5974  C.3     1  <O>11      -0.0107
  24 C19      -7.2181    -0.4446    -7.3197  C.3     1  <O>11       0.0619
  25 O3       -6.4934    -1.0936    -8.3517  O.3     1  <O>11      -0.3732
  26 C20      -7.1649    -2.2866    -8.7232  C.3     1  <O>11       0.0591
  27 C21      -6.4866    -2.9986    -9.7665  C.3     1  <O>11      -0.0265
  28 C22      -5.8707    -3.7900    -8.5963  C.3     1  <O>11      -0.0484
  29 C23      -7.0544    -3.3141    -7.7309  C.3     1  <O>11      -0.0265
  30 C24      -6.5512    -0.7389    -5.9809  C.3     1  <O>11      -0.0107
  31 C25      -5.1781    -0.0829    -5.8754  C.3     1  <O>11       0.0173
  32 H1       -3.0795     7.1305    -8.0018  H       1  <O>11       0.0377
  33 H2       -2.2045     5.5806    -8.0347  H       1  <O>11       0.0377
  34 H3        0.5353     5.8055    -4.2192  H       1  <O>11       0.1921
  35 H4       -5.9118     2.7313    -7.6414  H       1  <O>11       0.0465
  36 H5       -5.2247     1.2225    -8.2907  H       1  <O>11       0.0465
  37 H6       -7.8898     1.5413    -6.8652  H       1  <O>11       0.0305
  38 H7       -7.6405     1.2261    -8.5991  H       1  <O>11       0.0305
  39 H8       -8.2401    -0.8220    -7.2997  H       1  <O>11       0.0597
  40 H9       -8.1996    -2.0570    -8.9759  H       1  <O>11       0.0596
  41 H10      -7.1291    -3.5724   -10.4347  H       1  <O>11       0.0290
  42 H11      -5.7833    -2.4085   -10.3542  H       1  <O>11       0.0290
  43 H12      -5.8275    -4.8680    -8.7533  H       1  <O>11       0.0267
  44 H13      -4.8957    -3.4304    -8.2701  H       1  <O>11       0.0267
  45 H14      -7.8975    -4.0020    -7.6714  H       1  <O>11       0.0290
  46 H15      -6.7929    -2.9721    -6.7288  H       1  <O>11       0.0290
  47 H16      -7.1850    -0.3589    -5.1796  H       1  <O>11       0.0305
  48 H17      -6.4357    -1.8179    -5.8731  H       1  <O>11       0.0305
  49 H18      -4.8045    -0.2122    -4.8597  H       1  <O>11       0.0465
  50 H19      -4.5007    -0.5715    -6.5769  H       1  <O>11       0.0465
  51 H20      -6.6838     4.0385    -4.7601  H       1  <O>11       0.0625
  52 H21      -6.7890     6.3955    -5.3330  H       1  <O>11       0.0618
  53 H22      -4.9560     7.4410    -6.5426  H       1  <O>11       0.0620
  54 H23      -0.0122    10.4833    -4.2804  H       1  <O>11       0.0625
  55 H24      -1.3289    12.0285    -5.5987  H       1  <O>11       0.0618
  56 H25      -2.8267    11.1919    -7.3106  H       1  <O>11       0.0618
  57 H26      -3.0053     8.8091    -7.7044  H       1  <O>11       0.0624
  58 H27      -2.8998     3.7645    -6.6061  H       1  <O>11       0.0628
@<TRIPOS>BOND
     1     1     2    2
     2     2     3    1
     3     3     4   ar
     4     4     5   ar
     5     5     6   ar
     6     6     7   ar
     7     7     8    1
     8     8     9    1
     9     9    10   ar
    10    10    11   ar
    11    11    12   ar
    12    12    13    2
    13    12    14   ar
    14    14    15   ar
    15    15    16   ar
    16    16    17   ar
    17    17    18   ar
    18    18    19   ar
    19     9    19   ar
    20    14    19   ar
    21     7    20   ar
    22     3    20   ar
    23     2    21   am
    24    21    22    1
    25    22    23    1
    26    23    24    1
    27    24    25    1
    28    25    26    1
    29    26    27    1
    30    27    28    1
    31    28    29    1
    32    26    29    1
    33    24    30    1
    34    30    31    1
    35    21    31    1
    36     8    32    1
    37     8    33    1
    38    11    34    1
    39    22    35    1
    40    22    36    1
    41    23    37    1
    42    23    38    1
    43    24    39    1
    44    26    40    1
    45    27    41    1
    46    27    42    1
    47    28    43    1
    48    28    44    1
    49    29    45    1
    50    29    46    1
    51    30    47    1
    52    30    48    1
    53    31    49    1
    54    31    50    1
    55     4    51    1
    56     5    52    1
    57     6    53    1
    58    15    54    1
    59    16    55    1
    60    17    56    1
    61    18    57    1
    62    20    58    1
@<TRIPOS>MOLECULE
mol96_1_12
 58 62 0 0 0
SMALL
USER_CHARGES
****
VDW energy = 24.59
@<TRIPOS>ATOM
   1 O1       -4.2425     1.9267    -4.2583  O.2     1  <O>11      -0.2700
   2 C1       -4.7326     2.2891    -5.3174  C.2     1  <O>11       0.2466
   3 C2       -4.7890     3.7070    -5.6470  C.ar    1  <O>11       0.0372
   4 C3       -4.5326     4.1406    -6.9596  C.ar    1  <O>11      -0.0496
   5 C4       -4.5741     5.5039    -7.2733  C.ar    1  <O>11      -0.0608
   6 C5       -4.8763     6.4440    -6.2839  C.ar    1  <O>11      -0.0582
   7 C6       -5.1387     6.0112    -4.9804  C.ar    1  <O>11      -0.0408
   8 C7       -5.4591     7.0082    -3.9400  C.3     1  <O>11       0.0171
   9 C8       -4.2055     7.4557    -3.2790  C.ar    1  <O>11       0.0736
  10 N1       -2.9753     6.9263    -3.6847  N.ar    1  <O>11      -0.1750
  11 N2       -1.8384     7.2448    -3.0240  N.ar    1  <O>11      -0.2425
  12 C9       -1.9026     8.0931    -1.9706  C.ar    1  <O>11       0.2725
  13 O2       -0.7023     8.3056    -1.2673  O.2     1  <O>11      -0.2658
  14 C10      -3.0770     8.7453    -1.5661  C.ar    1  <O>11       0.0496
  15 C11      -3.1372     9.6770    -0.5037  C.ar    1  <O>11      -0.0487
  16 C12      -4.3466    10.2665    -0.1326  C.ar    1  <O>11      -0.0610
  17 C13      -5.5161     9.9332    -0.8062  C.ar    1  <O>11      -0.0611
  18 C14      -5.4772     9.0100    -1.8530  C.ar    1  <O>11      -0.0521
  19 C15      -4.2597     8.4098    -2.2483  C.ar    1  <O>11       0.0106
  20 C16      -5.1004     4.6539    -4.6566  C.ar    1  <O>11      -0.0461
  21 N3       -5.2250     1.3690    -6.1880  N.am    1  <O>11      -0.2974
  22 C17      -5.8467     1.6516    -7.5052  C.3     1  <O>11       0.0173
  23 C18      -7.2453     1.0547    -7.5974  C.3     1  <O>11      -0.0107
  24 C19      -7.2181    -0.4446    -7.3197  C.3     1  <O>11       0.0619
  25 O3       -6.4934    -1.0936    -8.3517  O.3     1  <O>11      -0.3732
  26 C20      -7.3817    -1.4601    -9.3952  C.3     1  <O>11       0.0591
  27 C21      -6.7160    -2.1239   -10.4776  C.3     1  <O>11      -0.0265
  28 C22      -7.1584    -3.4044    -9.7431  C.3     1  <O>11      -0.0484
  29 C23      -8.2332    -2.5550    -9.0361  C.3     1  <O>11      -0.0265
  30 C24      -6.5512    -0.7389    -5.9809  C.3     1  <O>11      -0.0107
  31 C25      -5.1781    -0.0829    -5.8754  C.3     1  <O>11       0.0173
  32 H1       -6.1212     6.5598    -3.1992  H       1  <O>11       0.0377
  33 H2       -5.9543     7.8649    -4.3983  H       1  <O>11       0.0377
  34 H3       -0.9529     6.8549    -3.3144  H       1  <O>11       0.1921
  35 H4       -5.9118     2.7313    -7.6414  H       1  <O>11       0.0465
  36 H5       -5.2247     1.2225    -8.2907  H       1  <O>11       0.0465
  37 H6       -7.8898     1.5413    -6.8652  H       1  <O>11       0.0305
  38 H7       -7.6405     1.2261    -8.5991  H       1  <O>11       0.0305
  39 H8       -8.2401    -0.8220    -7.2997  H       1  <O>11       0.0597
  40 H9       -7.9406    -0.5833    -9.7207  H       1  <O>11       0.0596
  41 H10      -7.1582    -1.9709   -11.4623  H       1  <O>11       0.0290
  42 H11      -5.6392    -1.9640   -10.5325  H       1  <O>11       0.0290
  43 H12      -7.5525    -4.1853   -10.3940  H       1  <O>11       0.0267
  44 H13      -6.4058    -3.8289    -9.0800  H       1  <O>11       0.0267
  45 H14      -9.2166    -2.5585    -9.5056  H       1  <O>11       0.0290
  46 H15      -8.3408    -2.7339    -7.9657  H       1  <O>11       0.0290
  47 H16      -7.1850    -0.3589    -5.1796  H       1  <O>11       0.0305
  48 H17      -6.4357    -1.8179    -5.8731  H       1  <O>11       0.0305
  49 H18      -4.8045    -0.2122    -4.8597  H       1  <O>11       0.0465
  50 H19      -4.5007    -0.5715    -6.5769  H       1  <O>11       0.0465
  51 H20      -4.3129     3.4506    -7.6950  H       1  <O>11       0.0625
  52 H21      -4.3810     5.8161    -8.2378  H       1  <O>11       0.0618
  53 H22      -4.9055     7.4497    -6.5137  H       1  <O>11       0.0620
  54 H23      -2.2740     9.9247     0.0046  H       1  <O>11       0.0625
  55 H24      -4.3727    10.9490     0.6410  H       1  <O>11       0.0618
  56 H25      -6.4116    10.3675    -0.5331  H       1  <O>11       0.0618
  57 H26      -6.3498     8.7623    -2.3453  H       1  <O>11       0.0624
  58 H27      -5.3003     4.3465    -3.6920  H       1  <O>11       0.0628
@<TRIPOS>BOND
     1     1     2    2
     2     2     3    1
     3     3     4   ar
     4     4     5   ar
     5     5     6   ar
     6     6     7   ar
     7     7     8    1
     8     8     9    1
     9     9    10   ar
    10    10    11   ar
    11    11    12   ar
    12    12    13    2
    13    12    14   ar
    14    14    15   ar
    15    15    16   ar
    16    16    17   ar
    17    17    18   ar
    18    18    19   ar
    19     9    19   ar
    20    14    19   ar
    21     7    20   ar
    22     3    20   ar
    23     2    21   am
    24    21    22    1
    25    22    23    1
    26    23    24    1
    27    24    25    1
    28    25    26    1
    29    26    27    1
    30    27    28    1
    31    28    29    1
    32    26    29    1
    33    24    30    1
    34    30    31    1
    35    21    31    1
    36     8    32    1
    37     8    33    1
    38    11    34    1
    39    22    35    1
    40    22    36    1
    41    23    37    1
    42    23    38    1
    43    24    39    1
    44    26    40    1
    45    27    41    1
    46    27    42    1
    47    28    43    1
    48    28    44    1
    49    29    45    1
    50    29    46    1
    51    30    47    1
    52    30    48    1
    53    31    49    1
    54    31    50    1
    55     4    51    1
    56     5    52    1
    57     6    53    1
    58    15    54    1
    59    16    55    1
    60    17    56    1
    61    18    57    1
    62    20    58    1
@<TRIPOS>MOLECULE
mol96_1_13
 58 62 0 0 0
SMALL
USER_CHARGES
****
VDW energy = 24.67
@<TRIPOS>ATOM
   1 O1       -4.2425     1.9267    -4.2583  O.2     1  <O>11      -0.2700
   2 C1       -4.7326     2.2891    -5.3174  C.2     1  <O>11       0.2466
   3 C2       -4.7890     3.7070    -5.6470  C.ar    1  <O>11       0.0372
   4 C3       -5.9052     4.4773    -5.2763  C.ar    1  <O>11      -0.0496
   5 C4       -5.9651     5.8365    -5.6044  C.ar    1  <O>11      -0.0608
   6 C5       -4.9121     6.4392    -6.2987  C.ar    1  <O>11      -0.0582
   7 C6       -3.7989     5.6740    -6.6602  C.ar    1  <O>11      -0.0408
   8 C7       -2.6890     6.3160    -7.3916  C.3     1  <O>11       0.0171
   9 C8       -3.1936     6.8634    -8.6779  C.ar    1  <O>11       0.0736
  10 N1       -4.5438     6.7192    -9.0158  N.ar    1  <O>11      -0.1750
  11 N2       -4.9958     7.1189   -10.2268  N.ar    1  <O>11      -0.2425
  12 C9       -4.1273     7.6723   -11.1059  C.ar    1  <O>11       0.2725
  13 O2       -4.6395     7.9754   -12.3812  O.2     1  <O>11      -0.2658
  14 C10      -2.7842     7.9455   -10.8068  C.ar    1  <O>11       0.0496
  15 C11      -1.8885     8.5769   -11.7008  C.ar    1  <O>11      -0.0487
  16 C12      -0.5545     8.7905   -11.3504  C.ar    1  <O>11      -0.0610
  17 C13      -0.0881     8.3727   -10.1092  C.ar    1  <O>11      -0.0611
  18 C14      -0.9561     7.7412    -9.2162  C.ar    1  <O>11      -0.0521
  19 C15      -2.3125     7.5246    -9.5509  C.ar    1  <O>11       0.0106
  20 C16      -3.7287     4.3176    -6.3377  C.ar    1  <O>11      -0.0461
  21 N3       -5.2250     1.3690    -6.1880  N.am    1  <O>11      -0.2974
  22 C17      -5.8467     1.6516    -7.5052  C.3     1  <O>11       0.0173
  23 C18      -7.2453     1.0547    -7.5974  C.3     1  <O>11      -0.0107
  24 C19      -7.2181    -0.4446    -7.3197  C.3     1  <O>11       0.0619
  25 O3       -6.4934    -1.0936    -8.3517  O.3     1  <O>11      -0.3732
  26 C20      -7.1649    -2.2866    -8.7232  C.3     1  <O>11       0.0591
  27 C21      -6.4866    -2.9986    -9.7665  C.3     1  <O>11      -0.0265
  28 C22      -5.8707    -3.7900    -8.5963  C.3     1  <O>11      -0.0484
  29 C23      -7.0544    -3.3141    -7.7309  C.3     1  <O>11      -0.0265
  30 C24      -6.5512    -0.7389    -5.9809  C.3     1  <O>11      -0.0107
  31 C25      -5.1781    -0.0829    -5.8754  C.3     1  <O>11       0.0173
  32 H1       -1.9107     5.5791    -7.5899  H       1  <O>11       0.0377
  33 H2       -2.2771     7.1258    -6.7886  H       1  <O>11       0.0377
  34 H3       -5.9697     7.0064   -10.4708  H       1  <O>11       0.1921
  35 H4       -5.9118     2.7313    -7.6414  H       1  <O>11       0.0465
  36 H5       -5.2247     1.2225    -8.2907  H       1  <O>11       0.0465
  37 H6       -7.8898     1.5413    -6.8652  H       1  <O>11       0.0305
  38 H7       -7.6405     1.2261    -8.5991  H       1  <O>11       0.0305
  39 H8       -8.2401    -0.8220    -7.2997  H       1  <O>11       0.0597
  40 H9       -8.1996    -2.0570    -8.9759  H       1  <O>11       0.0596
  41 H10      -7.1291    -3.5724   -10.4347  H       1  <O>11       0.0290
  42 H11      -5.7833    -2.4085   -10.3542  H       1  <O>11       0.0290
  43 H12      -5.8275    -4.8680    -8.7533  H       1  <O>11       0.0267
  44 H13      -4.8957    -3.4304    -8.2701  H       1  <O>11       0.0267
  45 H14      -7.8975    -4.0020    -7.6714  H       1  <O>11       0.0290
  46 H15      -6.7929    -2.9721    -6.7288  H       1  <O>11       0.0290
  47 H16      -7.1850    -0.3589    -5.1796  H       1  <O>11       0.0305
  48 H17      -6.4357    -1.8179    -5.8731  H       1  <O>11       0.0305
  49 H18      -4.8045    -0.2122    -4.8597  H       1  <O>11       0.0465
  50 H19      -4.5007    -0.5715    -6.5769  H       1  <O>11       0.0465
  51 H20      -6.6838     4.0385    -4.7601  H       1  <O>11       0.0625
  52 H21      -6.7890     6.3955    -5.3330  H       1  <O>11       0.0618
  53 H22      -4.9560     7.4410    -6.5426  H       1  <O>11       0.0620
  54 H23      -2.2263     8.8844   -12.6261  H       1  <O>11       0.0625
  55 H24       0.0849     9.2581   -12.0118  H       1  <O>11       0.0618
  56 H25       0.8980     8.5291    -9.8482  H       1  <O>11       0.0618
  57 H26      -0.6023     7.4280    -8.2987  H       1  <O>11       0.0624
  58 H27      -2.8998     3.7645    -6.6061  H       1  <O>11       0.0628
@<TRIPOS>BOND
     1     1     2    2
     2     2     3    1
     3     3     4   ar
     4     4     5   ar
     5     5     6   ar
     6     6     7   ar
     7     7     8    1
     8     8     9    1
     9     9    10   ar
    10    10    11   ar
    11    11    12   ar
    12    12    13    2
    13    12    14   ar
    14    14    15   ar
    15    15    16   ar
    16    16    17   ar
    17    17    18   ar
    18    18    19   ar
    19     9    19   ar
    20    14    19   ar
    21     7    20   ar
    22     3    20   ar
    23     2    21   am
    24    21    22    1
    25    22    23    1
    26    23    24    1
    27    24    25    1
    28    25    26    1
    29    26    27    1
    30    27    28    1
    31    28    29    1
    32    26    29    1
    33    24    30    1
    34    30    31    1
    35    21    31    1
    36     8    32    1
    37     8    33    1
    38    11    34    1
    39    22    35    1
    40    22    36    1
    41    23    37    1
    42    23    38    1
    43    24    39    1
    44    26    40    1
    45    27    41    1
    46    27    42    1
    47    28    43    1
    48    28    44    1
    49    29    45    1
    50    29    46    1
    51    30    47    1
    52    30    48    1
    53    31    49    1
    54    31    50    1
    55     4    51    1
    56     5    52    1
    57     6    53    1
    58    15    54    1
    59    16    55    1
    60    17    56    1
    61    18    57    1
    62    20    58    1
@<TRIPOS>MOLECULE
mol96_1_14
 58 62 0 0 0
SMALL
USER_CHARGES
****
VDW energy = 26.81
@<TRIPOS>ATOM
   1 O1       -4.2425     1.9267    -4.2583  O.2     1  <O>11      -0.2700
   2 C1       -4.7326     2.2891    -5.3174  C.2     1  <O>11       0.2466
   3 C2       -4.7890     3.7070    -5.6470  C.ar    1  <O>11       0.0372
   4 C3       -5.9052     4.4773    -5.2763  C.ar    1  <O>11      -0.0496
   5 C4       -5.9651     5.8365    -5.6044  C.ar    1  <O>11      -0.0608
   6 C5       -4.9121     6.4392    -6.2987  C.ar    1  <O>11      -0.0582
   7 C6       -3.7989     5.6740    -6.6602  C.ar    1  <O>11      -0.0408
   8 C7       -2.6890     6.3160    -7.3916  C.3     1  <O>11       0.0171
   9 C8       -3.1936     6.8634    -8.6779  C.ar    1  <O>11       0.0736
  10 N1       -4.0121     7.9983    -8.6800  N.ar    1  <O>11      -0.1750
  11 N2       -4.5635     8.4460    -9.8317  N.ar    1  <O>11      -0.2425
  12 C9       -4.3041     7.7890   -10.9869  C.ar    1  <O>11       0.2725
  13 O2       -4.9856     8.2459   -12.1303  O.2     1  <O>11      -0.2658
  14 C10      -3.4148     6.7086   -11.0857  C.ar    1  <O>11       0.0496
  15 C11      -3.0956     6.0568   -12.2996  C.ar    1  <O>11      -0.0487
  16 C12      -2.2253     4.9660   -12.3224  C.ar    1  <O>11      -0.0610
  17 C13      -1.6651     4.5010   -11.1382  C.ar    1  <O>11      -0.0611
  18 C14      -1.9741     5.1273    -9.9291  C.ar    1  <O>11      -0.0521
  19 C15      -2.8466     6.2391    -9.8884  C.ar    1  <O>11       0.0106
  20 C16      -3.7287     4.3176    -6.3377  C.ar    1  <O>11      -0.0461
  21 N3       -5.2250     1.3690    -6.1880  N.am    1  <O>11      -0.2974
  22 C17      -5.8467     1.6516    -7.5052  C.3     1  <O>11       0.0173
  23 C18      -7.2453     1.0547    -7.5974  C.3     1  <O>11      -0.0107
  24 C19      -7.2181    -0.4446    -7.3197  C.3     1  <O>11       0.0619
  25 O3       -6.4934    -1.0936    -8.3517  O.3     1  <O>11      -0.3732
  26 C20      -7.1649    -2.2866    -8.7232  C.3     1  <O>11       0.0591
  27 C21      -6.4866    -2.9986    -9.7665  C.3     1  <O>11      -0.0265
  28 C22      -5.8707    -3.7900    -8.5963  C.3     1  <O>11      -0.0484
  29 C23      -7.0544    -3.3141    -7.7309  C.3     1  <O>11      -0.0265
  30 C24      -6.5512    -0.7389    -5.9809  C.3     1  <O>11      -0.0107
  31 C25      -5.1781    -0.0829    -5.8754  C.3     1  <O>11       0.0173
  32 H1       -1.9107     5.5791    -7.5899  H       1  <O>11       0.0377
  33 H2       -2.2771     7.1258    -6.7886  H       1  <O>11       0.0377
  34 H3       -5.1603     9.2611    -9.8288  H       1  <O>11       0.1921
  35 H4       -5.9118     2.7313    -7.6414  H       1  <O>11       0.0465
  36 H5       -5.2247     1.2225    -8.2907  H       1  <O>11       0.0465
  37 H6       -7.8898     1.5413    -6.8652  H       1  <O>11       0.0305
  38 H7       -7.6405     1.2261    -8.5991  H       1  <O>11       0.0305
  39 H8       -8.2401    -0.8220    -7.2997  H       1  <O>11       0.0597
  40 H9       -8.1996    -2.0570    -8.9759  H       1  <O>11       0.0596
  41 H10      -7.1291    -3.5724   -10.4347  H       1  <O>11       0.0290
  42 H11      -5.7833    -2.4085   -10.3542  H       1  <O>11       0.0290
  43 H12      -5.8275    -4.8680    -8.7533  H       1  <O>11       0.0267
  44 H13      -4.8957    -3.4304    -8.2701  H       1  <O>11       0.0267
  45 H14      -7.8975    -4.0020    -7.6714  H       1  <O>11       0.0290
  46 H15      -6.7929    -2.9721    -6.7288  H       1  <O>11       0.0290
  47 H16      -7.1850    -0.3589    -5.1796  H       1  <O>11       0.0305
  48 H17      -6.4357    -1.8179    -5.8731  H       1  <O>11       0.0305
  49 H18      -4.8045    -0.2122    -4.8597  H       1  <O>11       0.0465
  50 H19      -4.5007    -0.5715    -6.5769  H       1  <O>11       0.0465
  51 H20      -6.6838     4.0385    -4.7601  H       1  <O>11       0.0625
  52 H21      -6.7890     6.3955    -5.3330  H       1  <O>11       0.0618
  53 H22      -4.9560     7.4410    -6.5426  H       1  <O>11       0.0620
  54 H23      -3.5124     6.3929   -13.1819  H       1  <O>11       0.0625
  55 H24      -1.9980     4.5050   -13.2174  H       1  <O>11       0.0618
  56 H25      -1.0218     3.6941   -11.1526  H       1  <O>11       0.0618
  57 H26      -1.5596     4.7737    -9.0527  H       1  <O>11       0.0624
  58 H27      -2.8998     3.7645    -6.6061  H       1  <O>11       0.0628
@<TRIPOS>BOND
     1     1     2    2
     2     2     3    1
     3     3     4   ar
     4     4     5   ar
     5     5     6   ar
     6     6     7   ar
     7     7     8    1
     8     8     9    1
     9     9    10   ar
    10    10    11   ar
    11    11    12   ar
    12    12    13    2
    13    12    14   ar
    14    14    15   ar
    15    15    16   ar
    16    16    17   ar
    17    17    18   ar
    18    18    19   ar
    19     9    19   ar
    20    14    19   ar
    21     7    20   ar
    22     3    20   ar
    23     2    21   am
    24    21    22    1
    25    22    23    1
    26    23    24    1
    27    24    25    1
    28    25    26    1
    29    26    27    1
    30    27    28    1
    31    28    29    1
    32    26    29    1
    33    24    30    1
    34    30    31    1
    35    21    31    1
    36     8    32    1
    37     8    33    1
    38    11    34    1
    39    22    35    1
    40    22    36    1
    41    23    37    1
    42    23    38    1
    43    24    39    1
    44    26    40    1
    45    27    41    1
    46    27    42    1
    47    28    43    1
    48    28    44    1
    49    29    45    1
    50    29    46    1
    51    30    47    1
    52    30    48    1
    53    31    49    1
    54    31    50    1
    55     4    51    1
    56     5    52    1
    57     6    53    1
    58    15    54    1
    59    16    55    1
    60    17    56    1
    61    18    57    1
    62    20    58    1
@<TRIPOS>MOLECULE
mol96_1_15
 58 62 0 0 0
SMALL
USER_CHARGES
****
VDW energy = 27.14
@<TRIPOS>ATOM
   1 O1       -4.2425     1.9267    -4.2583  O.2     1  <O>11      -0.2700
   2 C1       -4.7326     2.2891    -5.3174  C.2     1  <O>11       0.2466
   3 C2       -4.7890     3.7070    -5.6470  C.ar    1  <O>11       0.0372
   4 C3       -4.5326     4.1406    -6.9596  C.ar    1  <O>11      -0.0496
   5 C4       -4.5741     5.5039    -7.2733  C.ar    1  <O>11      -0.0608
   6 C5       -4.8763     6.4440    -6.2839  C.ar    1  <O>11      -0.0582
   7 C6       -5.1387     6.0112    -4.9804  C.ar    1  <O>11      -0.0408
   8 C7       -5.4591     7.0082    -3.9400  C.3     1  <O>11       0.0171
   9 C8       -6.9281     7.2307    -3.9018  C.ar    1  <O>11       0.0736
  10 N1       -7.7706     6.2406    -3.3840  N.ar    1  <O>11      -0.1750
  11 N2       -9.1148     6.3846    -3.4382  N.ar    1  <O>11      -0.2425
  12 C9       -9.6370     7.5056    -3.9898  C.ar    1  <O>11       0.2725
  13 O2      -11.0390     7.5491    -4.1044  O.2     1  <O>11      -0.2658
  14 C10      -8.8632     8.5872    -4.4364  C.ar    1  <O>11       0.0496
  15 C11      -9.4059     9.7842    -4.9588  C.ar    1  <O>11      -0.0487
  16 C12      -8.5769    10.8100    -5.4152  C.ar    1  <O>11      -0.0610
  17 C13      -7.1958    10.6589    -5.3668  C.ar    1  <O>11      -0.0611
  18 C14      -6.6419     9.4812    -4.8609  C.ar    1  <O>11      -0.0521
  19 C15      -7.4663     8.4354    -4.3860  C.ar    1  <O>11       0.0106
  20 C16      -5.1004     4.6539    -4.6566  C.ar    1  <O>11      -0.0461
  21 N3       -5.2250     1.3690    -6.1880  N.am    1  <O>11      -0.2974
  22 C17      -5.8467     1.6516    -7.5052  C.3     1  <O>11       0.0173
  23 C18      -7.2453     1.0547    -7.5974  C.3     1  <O>11      -0.0107
  24 C19      -7.2181    -0.4446    -7.3197  C.3     1  <O>11       0.0619
  25 O3       -6.4934    -1.0936    -8.3517  O.3     1  <O>11      -0.3732
  26 C20      -7.3817    -1.4601    -9.3952  C.3     1  <O>11       0.0591
  27 C21      -6.7160    -2.1239   -10.4776  C.3     1  <O>11      -0.0265
  28 C22      -7.1584    -3.4044    -9.7431  C.3     1  <O>11      -0.0484
  29 C23      -8.2332    -2.5550    -9.0361  C.3     1  <O>11      -0.0265
  30 C24      -6.5512    -0.7389    -5.9809  C.3     1  <O>11      -0.0107
  31 C25      -5.1781    -0.0829    -5.8754  C.3     1  <O>11       0.0173
  32 H1       -4.9546     7.9469    -4.1691  H       1  <O>11       0.0377
  33 H2       -5.1216     6.6419    -2.9699  H       1  <O>11       0.0377
  34 H3       -9.7205     5.6646    -3.0705  H       1  <O>11       0.1921
  35 H4       -5.9118     2.7313    -7.6414  H       1  <O>11       0.0465
  36 H5       -5.2247     1.2225    -8.2907  H       1  <O>11       0.0465
  37 H6       -7.8898     1.5413    -6.8652  H       1  <O>11       0.0305
  38 H7       -7.6405     1.2261    -8.5991  H       1  <O>11       0.0305
  39 H8       -8.2401    -0.8220    -7.2997  H       1  <O>11       0.0597
  40 H9       -7.9406    -0.5833    -9.7207  H       1  <O>11       0.0596
  41 H10      -7.1582    -1.9709   -11.4623  H       1  <O>11       0.0290
  42 H11      -5.6392    -1.9640   -10.5325  H       1  <O>11       0.0290
  43 H12      -7.5525    -4.1853   -10.3940  H       1  <O>11       0.0267
  44 H13      -6.4058    -3.8289    -9.0800  H       1  <O>11       0.0267
  45 H14      -9.2166    -2.5585    -9.5056  H       1  <O>11       0.0290
  46 H15      -8.3408    -2.7339    -7.9657  H       1  <O>11       0.0290
  47 H16      -7.1850    -0.3589    -5.1796  H       1  <O>11       0.0305
  48 H17      -6.4357    -1.8179    -5.8731  H       1  <O>11       0.0305
  49 H18      -4.8045    -0.2122    -4.8597  H       1  <O>11       0.0465
  50 H19      -4.5007    -0.5715    -6.5769  H       1  <O>11       0.0465
  51 H20      -4.3129     3.4506    -7.6950  H       1  <O>11       0.0625
  52 H21      -4.3810     5.8161    -8.2378  H       1  <O>11       0.0618
  53 H22      -4.9055     7.4497    -6.5137  H       1  <O>11       0.0620
  54 H23     -10.4303     9.9009    -5.0031  H       1  <O>11       0.0625
  55 H24      -8.9887    11.6797    -5.7881  H       1  <O>11       0.0618
  56 H25      -6.5809    11.4159    -5.7044  H       1  <O>11       0.0618
  57 H26      -5.6160     9.3727    -4.8332  H       1  <O>11       0.0624
  58 H27      -5.3003     4.3465    -3.6920  H       1  <O>11       0.0628
@<TRIPOS>BOND
     1     1     2    2
     2     2     3    1
     3     3     4   ar
     4     4     5   ar
     5     5     6   ar
     6     6     7   ar
     7     7     8    1
     8     8     9    1
     9     9    10   ar
    10    10    11   ar
    11    11    12   ar
    12    12    13    2
    13    12    14   ar
    14    14    15   ar
    15    15    16   ar
    16    16    17   ar
    17    17    18   ar
    18    18    19   ar
    19     9    19   ar
    20    14    19   ar
    21     7    20   ar
    22     3    20   ar
    23     2    21   am
    24    21    22    1
    25    22    23    1
    26    23    24    1
    27    24    25    1
    28    25    26    1
    29    26    27    1
    30    27    28    1
    31    28    29    1
    32    26    29    1
    33    24    30    1
    34    30    31    1
    35    21    31    1
    36     8    32    1
    37     8    33    1
    38    11    34    1
    39    22    35    1
    40    22    36    1
    41    23    37    1
    42    23    38    1
    43    24    39    1
    44    26    40    1
    45    27    41    1
    46    27    42    1
    47    28    43    1
    48    28    44    1
    49    29    45    1
    50    29    46    1
    51    30    47    1
    52    30    48    1
    53    31    49    1
    54    31    50    1
    55     4    51    1
    56     5    52    1
    57     6    53    1
    58    15    54    1
    59    16    55    1
    60    17    56    1
    61    18    57    1
    62    20    58    1
@<TRIPOS>MOLECULE
mol96_1_16
 58 62 0 0 0
SMALL
USER_CHARGES
****
VDW energy = 27.89
@<TRIPOS>ATOM
   1 O1       -4.2425     1.9267    -4.2583  O.2     1  <O>11      -0.2700
   2 C1       -4.7326     2.2891    -5.3174  C.2     1  <O>11       0.2466
   3 C2       -4.7890     3.7070    -5.6470  C.ar    1  <O>11       0.0372
   4 C3       -4.5326     4.1406    -6.9596  C.ar    1  <O>11      -0.0496
   5 C4       -4.5741     5.5039    -7.2733  C.ar    1  <O>11      -0.0608
   6 C5       -4.8763     6.4440    -6.2839  C.ar    1  <O>11      -0.0582
   7 C6       -5.1387     6.0112    -4.9804  C.ar    1  <O>11      -0.0408
   8 C7       -5.4591     7.0082    -3.9400  C.3     1  <O>11       0.0171
   9 C8       -4.2055     7.4557    -3.2790  C.ar    1  <O>11       0.0736
  10 N1       -3.3106     8.2825    -3.9671  N.ar    1  <O>11      -0.1750
  11 N2       -2.1186     8.6124    -3.4184  N.ar    1  <O>11      -0.2425
  12 C9       -1.8055     8.1421    -2.1879  C.ar    1  <O>11       0.2725
  13 O2       -0.5133     8.4402    -1.7168  O.2     1  <O>11      -0.2658
  14 C10      -2.6868     7.3952    -1.3920  C.ar    1  <O>11       0.0496
  15 C11      -2.3864     6.9519    -0.0830  C.ar    1  <O>11      -0.0487
  16 C12      -3.2984     6.1844     0.6430  C.ar    1  <O>11      -0.0610
  17 C13      -4.5198     5.8387     0.0762  C.ar    1  <O>11      -0.0611
  18 C14      -4.8311     6.2613    -1.2177  C.ar    1  <O>11      -0.0521
  19 C15      -3.9230     7.0468    -1.9642  C.ar    1  <O>11       0.0106
  20 C16      -5.1004     4.6539    -4.6566  C.ar    1  <O>11      -0.0461
  21 N3       -5.2250     1.3690    -6.1880  N.am    1  <O>11      -0.2974
  22 C17      -5.8467     1.6516    -7.5052  C.3     1  <O>11       0.0173
  23 C18      -7.2453     1.0547    -7.5974  C.3     1  <O>11      -0.0107
  24 C19      -7.2181    -0.4446    -7.3197  C.3     1  <O>11       0.0619
  25 O3       -6.4934    -1.0936    -8.3517  O.3     1  <O>11      -0.3732
  26 C20      -7.3817    -1.4601    -9.3952  C.3     1  <O>11       0.0591
  27 C21      -6.7160    -2.1239   -10.4776  C.3     1  <O>11      -0.0265
  28 C22      -7.1584    -3.4044    -9.7431  C.3     1  <O>11      -0.0484
  29 C23      -8.2332    -2.5550    -9.0361  C.3     1  <O>11      -0.0265
  30 C24      -6.5512    -0.7389    -5.9809  C.3     1  <O>11      -0.0107
  31 C25      -5.1781    -0.0829    -5.8754  C.3     1  <O>11       0.0173
  32 H1       -6.1212     6.5598    -3.1992  H       1  <O>11       0.0377
  33 H2       -5.9543     7.8649    -4.3983  H       1  <O>11       0.0377
  34 H3       -1.4713     9.2032    -3.9210  H       1  <O>11       0.1921
  35 H4       -5.9118     2.7313    -7.6414  H       1  <O>11       0.0465
  36 H5       -5.2247     1.2225    -8.2907  H       1  <O>11       0.0465
  37 H6       -7.8898     1.5413    -6.8652  H       1  <O>11       0.0305
  38 H7       -7.6405     1.2261    -8.5991  H       1  <O>11       0.0305
  39 H8       -8.2401    -0.8220    -7.2997  H       1  <O>11       0.0597
  40 H9       -7.9406    -0.5833    -9.7207  H       1  <O>11       0.0596
  41 H10      -7.1582    -1.9709   -11.4623  H       1  <O>11       0.0290
  42 H11      -5.6392    -1.9640   -10.5325  H       1  <O>11       0.0290
  43 H12      -7.5525    -4.1853   -10.3940  H       1  <O>11       0.0267
  44 H13      -6.4058    -3.8289    -9.0800  H       1  <O>11       0.0267
  45 H14      -9.2166    -2.5585    -9.5056  H       1  <O>11       0.0290
  46 H15      -8.3408    -2.7339    -7.9657  H       1  <O>11       0.0290
  47 H16      -7.1850    -0.3589    -5.1796  H       1  <O>11       0.0305
  48 H17      -6.4357    -1.8179    -5.8731  H       1  <O>11       0.0305
  49 H18      -4.8045    -0.2122    -4.8597  H       1  <O>11       0.0465
  50 H19      -4.5007    -0.5715    -6.5769  H       1  <O>11       0.0465
  51 H20      -4.3129     3.4506    -7.6950  H       1  <O>11       0.0625
  52 H21      -4.3810     5.8161    -8.2378  H       1  <O>11       0.0618
  53 H22      -4.9055     7.4497    -6.5137  H       1  <O>11       0.0620
  54 H23      -1.4792     7.1998     0.3419  H       1  <O>11       0.0625
  55 H24      -3.0663     5.8738     1.5993  H       1  <O>11       0.0618
  56 H25      -5.1955     5.2707     0.6109  H       1  <O>11       0.0618
  57 H26      -5.7369     5.9964    -1.6351  H       1  <O>11       0.0624
  58 H27      -5.3003     4.3465    -3.6920  H       1  <O>11       0.0628
@<TRIPOS>BOND
     1     1     2    2
     2     2     3    1
     3     3     4   ar
     4     4     5   ar
     5     5     6   ar
     6     6     7   ar
     7     7     8    1
     8     8     9    1
     9     9    10   ar
    10    10    11   ar
    11    11    12   ar
    12    12    13    2
    13    12    14   ar
    14    14    15   ar
    15    15    16   ar
    16    16    17   ar
    17    17    18   ar
    18    18    19   ar
    19     9    19   ar
    20    14    19   ar
    21     7    20   ar
    22     3    20   ar
    23     2    21   am
    24    21    22    1
    25    22    23    1
    26    23    24    1
    27    24    25    1
    28    25    26    1
    29    26    27    1
    30    27    28    1
    31    28    29    1
    32    26    29    1
    33    24    30    1
    34    30    31    1
    35    21    31    1
    36     8    32    1
    37     8    33    1
    38    11    34    1
    39    22    35    1
    40    22    36    1
    41    23    37    1
    42    23    38    1
    43    24    39    1
    44    26    40    1
    45    27    41    1
    46    27    42    1
    47    28    43    1
    48    28    44    1
    49    29    45    1
    50    29    46    1
    51    30    47    1
    52    30    48    1
    53    31    49    1
    54    31    50    1
    55     4    51    1
    56     5    52    1
    57     6    53    1
    58    15    54    1
    59    16    55    1
    60    17    56    1
    61    18    57    1
    62    20    58    1
@<TRIPOS>MOLECULE
mol96_1_17
 58 62 0 0 0
SMALL
USER_CHARGES
****
VDW energy = 28.88
@<TRIPOS>ATOM
   1 O1       -4.2425     1.9267    -4.2583  O.2     1  <O>11      -0.2700
   2 C1       -4.7326     2.2891    -5.3174  C.2     1  <O>11       0.2466
   3 C2       -4.7890     3.7070    -5.6470  C.ar    1  <O>11       0.0372
   4 C3       -5.9236     4.2430    -6.2811  C.ar    1  <O>11      -0.0496
   5 C4       -5.9723     5.6026    -6.6094  C.ar    1  <O>11      -0.0608
   6 C5       -4.8945     6.4387    -6.3039  C.ar    1  <O>11      -0.0582
   7 C6       -3.7697     5.9063    -5.6662  C.ar    1  <O>11      -0.0408
   8 C7       -2.6352     6.7941    -5.3442  C.3     1  <O>11       0.0171
   9 C8       -2.8278     7.3734    -3.9892  C.ar    1  <O>11       0.0736
  10 N1       -2.6744     6.5659    -2.8568  N.ar    1  <O>11      -0.1750
  11 N2       -2.9480     7.0516    -1.6240  N.ar    1  <O>11      -0.2425
  12 C9       -3.3614     8.3347    -1.4967  C.ar    1  <O>11       0.2725
  13 O2       -3.7232     8.7475    -0.2008  O.2     1  <O>11      -0.2658
  14 C10      -3.4414     9.2372    -2.5678  C.ar    1  <O>11       0.0496
  15 C11      -3.8160    10.5941    -2.4311  C.ar    1  <O>11      -0.0487
  16 C12      -3.9058    11.4307    -3.5446  C.ar    1  <O>11      -0.0610
  17 C13      -3.6324    10.9295    -4.8122  C.ar    1  <O>11      -0.0611
  18 C14      -3.2679     9.5907    -4.9675  C.ar    1  <O>11      -0.0521
  19 C15      -3.1633     8.7312    -3.8498  C.ar    1  <O>11       0.0106
  20 C16      -3.7107     4.5517    -5.3340  C.ar    1  <O>11      -0.0461
  21 N3       -5.2250     1.3690    -6.1880  N.am    1  <O>11      -0.2974
  22 C17      -5.8467     1.6516    -7.5052  C.3     1  <O>11       0.0173
  23 C18      -7.2453     1.0547    -7.5974  C.3     1  <O>11      -0.0107
  24 C19      -7.2181    -0.4446    -7.3197  C.3     1  <O>11       0.0619
  25 O3       -6.4934    -1.0936    -8.3517  O.3     1  <O>11      -0.3732
  26 C20      -7.1649    -2.2866    -8.7232  C.3     1  <O>11       0.0591
  27 C21      -7.7538    -2.2040   -10.0277  C.3     1  <O>11      -0.0265
  28 C22      -6.4447    -2.8809   -10.4780  C.3     1  <O>11      -0.0484
  29 C23      -6.2618    -3.3576    -9.0235  C.3     1  <O>11      -0.0265
  30 C24      -6.5512    -0.7389    -5.9809  C.3     1  <O>11      -0.0107
  31 C25      -5.1781    -0.0829    -5.8754  C.3     1  <O>11       0.0173
  32 H1       -2.5827     7.5971    -6.0795  H       1  <O>11       0.0377
  33 H2       -1.7079     6.2207    -5.3660  H       1  <O>11       0.0377
  34 H3       -2.8437     6.4638    -0.8090  H       1  <O>11       0.1921
  35 H4       -5.9118     2.7313    -7.6414  H       1  <O>11       0.0465
  36 H5       -5.2247     1.2225    -8.2907  H       1  <O>11       0.0465
  37 H6       -7.8898     1.5413    -6.8652  H       1  <O>11       0.0305
  38 H7       -7.6405     1.2261    -8.5991  H       1  <O>11       0.0305
  39 H8       -8.2401    -0.8220    -7.2997  H       1  <O>11       0.0597
  40 H9       -7.8879    -2.5513    -7.9523  H       1  <O>11       0.0596
  41 H10      -8.6600    -2.7934   -10.1694  H       1  <O>11       0.0290
  42 H11      -7.9128    -1.1940   -10.4056  H       1  <O>11       0.0290
  43 H12      -6.5775    -3.6823   -11.2052  H       1  <O>11       0.0267
  44 H13      -5.6774    -2.1930   -10.8307  H       1  <O>11       0.0267
  45 H14      -6.6335    -4.3593    -8.8086  H       1  <O>11       0.0290
  46 H15      -5.2547    -3.2491    -8.6192  H       1  <O>11       0.0290
  47 H16      -7.1850    -0.3589    -5.1796  H       1  <O>11       0.0305
  48 H17      -6.4357    -1.8179    -5.8731  H       1  <O>11       0.0305
  49 H18      -4.8045    -0.2122    -4.8597  H       1  <O>11       0.0465
  50 H19      -4.5007    -0.5715    -6.5769  H       1  <O>11       0.0465
  51 H20      -6.7239     3.6312    -6.5055  H       1  <O>11       0.0625
  52 H21      -6.8063     5.9891    -7.0785  H       1  <O>11       0.0618
  53 H22      -4.9287     7.4411    -6.5470  H       1  <O>11       0.0620
  54 H23      -4.0260    10.9715    -1.4938  H       1  <O>11       0.0625
  55 H24      -4.1748    12.4200    -3.4272  H       1  <O>11       0.0618
  56 H25      -3.6988    11.5462    -5.6371  H       1  <O>11       0.0618
  57 H26      -3.0720     9.2232    -5.9118  H       1  <O>11       0.0624
  58 H27      -2.8768     4.1715    -4.8595  H       1  <O>11       0.0628
@<TRIPOS>BOND
     1     1     2    2
     2     2     3    1
     3     3     4   ar
     4     4     5   ar
     5     5     6   ar
     6     6     7   ar
     7     7     8    1
     8     8     9    1
     9     9    10   ar
    10    10    11   ar
    11    11    12   ar
    12    12    13    2
    13    12    14   ar
    14    14    15   ar
    15    15    16   ar
    16    16    17   ar
    17    17    18   ar
    18    18    19   ar
    19     9    19   ar
    20    14    19   ar
    21     7    20   ar
    22     3    20   ar
    23     2    21   am
    24    21    22    1
    25    22    23    1
    26    23    24    1
    27    24    25    1
    28    25    26    1
    29    26    27    1
    30    27    28    1
    31    28    29    1
    32    26    29    1
    33    24    30    1
    34    30    31    1
    35    21    31    1
    36     8    32    1
    37     8    33    1
    38    11    34    1
    39    22    35    1
    40    22    36    1
    41    23    37    1
    42    23    38    1
    43    24    39    1
    44    26    40    1
    45    27    41    1
    46    27    42    1
    47    28    43    1
    48    28    44    1
    49    29    45    1
    50    29    46    1
    51    30    47    1
    52    30    48    1
    53    31    49    1
    54    31    50    1
    55     4    51    1
    56     5    52    1
    57     6    53    1
    58    15    54    1
    59    16    55    1
    60    17    56    1
    61    18    57    1
    62    20    58    1
@<TRIPOS>MOLECULE
mol96_1_18
 58 62 0 0 0
SMALL
USER_CHARGES
****
VDW energy = 29.74
@<TRIPOS>ATOM
   1 O1       -4.2425     1.9267    -4.2583  O.2     1  <O>11      -0.2700
   2 C1       -4.7326     2.2891    -5.3174  C.2     1  <O>11       0.2466
   3 C2       -4.7890     3.7070    -5.6470  C.ar    1  <O>11       0.0372
   4 C3       -4.5326     4.1406    -6.9596  C.ar    1  <O>11      -0.0496
   5 C4       -4.5741     5.5039    -7.2733  C.ar    1  <O>11      -0.0608
   6 C5       -4.8763     6.4440    -6.2839  C.ar    1  <O>11      -0.0582
   7 C6       -5.1387     6.0112    -4.9804  C.ar    1  <O>11      -0.0408
   8 C7       -5.4591     7.0082    -3.9400  C.3     1  <O>11       0.0171
   9 C8       -4.2055     7.4557    -3.2790  C.ar    1  <O>11       0.0736
  10 N1       -3.7302     6.7765    -2.1517  N.ar    1  <O>11      -0.1750
  11 N2       -2.6497     7.2343    -1.4782  N.ar    1  <O>11      -0.2425
  12 C9       -2.0246     8.3531    -1.9152  C.ar    1  <O>11       0.2725
  13 O2       -0.9700     8.8307    -1.1151  O.2     1  <O>11      -0.2658
  14 C10      -2.3745     9.0316    -3.0921  C.ar    1  <O>11       0.0496
  15 C11      -1.6877    10.1659    -3.5839  C.ar    1  <O>11      -0.0487
  16 C12      -2.1088    10.8129    -4.7467  C.ar    1  <O>11      -0.0610
  17 C13      -3.2237    10.3473    -5.4343  C.ar    1  <O>11      -0.0611
  18 C14      -3.9187     9.2330    -4.9600  C.ar    1  <O>11      -0.0521
  19 C15      -3.5011     8.5600    -3.7889  C.ar    1  <O>11       0.0106
  20 C16      -5.1004     4.6539    -4.6566  C.ar    1  <O>11      -0.0461
  21 N3       -5.2250     1.3690    -6.1880  N.am    1  <O>11      -0.2974
  22 C17      -5.8467     1.6516    -7.5052  C.3     1  <O>11       0.0173
  23 C18      -7.2453     1.0547    -7.5974  C.3     1  <O>11      -0.0107
  24 C19      -7.2181    -0.4446    -7.3197  C.3     1  <O>11       0.0619
  25 O3       -6.4934    -1.0936    -8.3517  O.3     1  <O>11      -0.3732
  26 C20      -7.3817    -1.4601    -9.3952  C.3     1  <O>11       0.0591
  27 C21      -6.7160    -2.1239   -10.4776  C.3     1  <O>11      -0.0265
  28 C22      -7.1584    -3.4044    -9.7431  C.3     1  <O>11      -0.0484
  29 C23      -8.2332    -2.5550    -9.0361  C.3     1  <O>11      -0.0265
  30 C24      -6.5512    -0.7389    -5.9809  C.3     1  <O>11      -0.0107
  31 C25      -5.1781    -0.0829    -5.8754  C.3     1  <O>11       0.0173
  32 H1       -6.1212     6.5598    -3.1992  H       1  <O>11       0.0377
  33 H2       -5.9543     7.8649    -4.3983  H       1  <O>11       0.0377
  34 H3       -2.3136     6.7461    -0.6601  H       1  <O>11       0.1921
  35 H4       -5.9118     2.7313    -7.6414  H       1  <O>11       0.0465
  36 H5       -5.2247     1.2225    -8.2907  H       1  <O>11       0.0465
  37 H6       -7.8898     1.5413    -6.8652  H       1  <O>11       0.0305
  38 H7       -7.6405     1.2261    -8.5991  H       1  <O>11       0.0305
  39 H8       -8.2401    -0.8220    -7.2997  H       1  <O>11       0.0597
  40 H9       -7.9406    -0.5833    -9.7207  H       1  <O>11       0.0596
  41 H10      -7.1582    -1.9709   -11.4623  H       1  <O>11       0.0290
  42 H11      -5.6392    -1.9640   -10.5325  H       1  <O>11       0.0290
  43 H12      -7.5525    -4.1853   -10.3940  H       1  <O>11       0.0267
  44 H13      -6.4058    -3.8289    -9.0800  H       1  <O>11       0.0267
  45 H14      -9.2166    -2.5585    -9.5056  H       1  <O>11       0.0290
  46 H15      -8.3408    -2.7339    -7.9657  H       1  <O>11       0.0290
  47 H16      -7.1850    -0.3589    -5.1796  H       1  <O>11       0.0305
  48 H17      -6.4357    -1.8179    -5.8731  H       1  <O>11       0.0305
  49 H18      -4.8045    -0.2122    -4.8597  H       1  <O>11       0.0465
  50 H19      -4.5007    -0.5715    -6.5769  H       1  <O>11       0.0465
  51 H20      -4.3129     3.4506    -7.6950  H       1  <O>11       0.0625
  52 H21      -4.3810     5.8161    -8.2378  H       1  <O>11       0.0618
  53 H22      -4.9055     7.4497    -6.5137  H       1  <O>11       0.0620
  54 H23      -0.8628    10.5206    -3.0754  H       1  <O>11       0.0625
  55 H24      -1.5932    11.6359    -5.0956  H       1  <O>11       0.0618
  56 H25      -3.5372    10.8245    -6.2940  H       1  <O>11       0.0618
  57 H26      -4.7491     8.8959    -5.4716  H       1  <O>11       0.0624
  58 H27      -5.3003     4.3465    -3.6920  H       1  <O>11       0.0628
@<TRIPOS>BOND
     1     1     2    2
     2     2     3    1
     3     3     4   ar
     4     4     5   ar
     5     5     6   ar
     6     6     7   ar
     7     7     8    1
     8     8     9    1
     9     9    10   ar
    10    10    11   ar
    11    11    12   ar
    12    12    13    2
    13    12    14   ar
    14    14    15   ar
    15    15    16   ar
    16    16    17   ar
    17    17    18   ar
    18    18    19   ar
    19     9    19   ar
    20    14    19   ar
    21     7    20   ar
    22     3    20   ar
    23     2    21   am
    24    21    22    1
    25    22    23    1
    26    23    24    1
    27    24    25    1
    28    25    26    1
    29    26    27    1
    30    27    28    1
    31    28    29    1
    32    26    29    1
    33    24    30    1
    34    30    31    1
    35    21    31    1
    36     8    32    1
    37     8    33    1
    38    11    34    1
    39    22    35    1
    40    22    36    1
    41    23    37    1
    42    23    38    1
    43    24    39    1
    44    26    40    1
    45    27    41    1
    46    27    42    1
    47    28    43    1
    48    28    44    1
    49    29    45    1
    50    29    46    1
    51    30    47    1
    52    30    48    1
    53    31    49    1
    54    31    50    1
    55     4    51    1
    56     5    52    1
    57     6    53    1
    58    15    54    1
    59    16    55    1
    60    17    56    1
    61    18    57    1
    62    20    58    1
@<TRIPOS>MOLECULE
mol96_1_19
 58 62 0 0 0
SMALL
USER_CHARGES
****
VDW energy = 30.48
@<TRIPOS>ATOM
   1 O1       -4.2425     1.9267    -4.2583  O.2     1  <O>11      -0.2700
   2 C1       -4.7326     2.2891    -5.3174  C.2     1  <O>11       0.2466
   3 C2       -4.7890     3.7070    -5.6470  C.ar    1  <O>11       0.0372
   4 C3       -5.9236     4.2430    -6.2811  C.ar    1  <O>11      -0.0496
   5 C4       -5.9723     5.6026    -6.6094  C.ar    1  <O>11      -0.0608
   6 C5       -4.8945     6.4387    -6.3039  C.ar    1  <O>11      -0.0582
   7 C6       -3.7697     5.9063    -5.6662  C.ar    1  <O>11      -0.0408
   8 C7       -2.6352     6.7941    -5.3442  C.3     1  <O>11       0.0171
   9 C8       -2.8278     7.3734    -3.9892  C.ar    1  <O>11       0.0736
  10 N1       -2.6744     6.5659    -2.8568  N.ar    1  <O>11      -0.1750
  11 N2       -2.9480     7.0516    -1.6240  N.ar    1  <O>11      -0.2425
  12 C9       -3.3614     8.3347    -1.4967  C.ar    1  <O>11       0.2725
  13 O2       -3.7232     8.7475    -0.2008  O.2     1  <O>11      -0.2658
  14 C10      -3.4414     9.2372    -2.5678  C.ar    1  <O>11       0.0496
  15 C11      -3.8160    10.5941    -2.4311  C.ar    1  <O>11      -0.0487
  16 C12      -3.9058    11.4307    -3.5446  C.ar    1  <O>11      -0.0610
  17 C13      -3.6324    10.9295    -4.8122  C.ar    1  <O>11      -0.0611
  18 C14      -3.2679     9.5907    -4.9675  C.ar    1  <O>11      -0.0521
  19 C15      -3.1633     8.7312    -3.8498  C.ar    1  <O>11       0.0106
  20 C16      -3.7107     4.5517    -5.3340  C.ar    1  <O>11      -0.0461
  21 N3       -5.2250     1.3690    -6.1880  N.am    1  <O>11      -0.2974
  22 C17      -5.8467     1.6516    -7.5052  C.3     1  <O>11       0.0173
  23 C18      -7.2453     1.0547    -7.5974  C.3     1  <O>11      -0.0107
  24 C19      -7.2181    -0.4446    -7.3197  C.3     1  <O>11       0.0619
  25 O3       -6.4934    -1.0936    -8.3517  O.3     1  <O>11      -0.3732
  26 C20      -7.3817    -1.4601    -9.3952  C.3     1  <O>11       0.0591
  27 C21      -6.7160    -2.1239   -10.4776  C.3     1  <O>11      -0.0265
  28 C22      -7.1584    -3.4044    -9.7431  C.3     1  <O>11      -0.0484
  29 C23      -8.2332    -2.5550    -9.0361  C.3     1  <O>11      -0.0265
  30 C24      -6.5512    -0.7389    -5.9809  C.3     1  <O>11      -0.0107
  31 C25      -5.1781    -0.0829    -5.8754  C.3     1  <O>11       0.0173
  32 H1       -2.5827     7.5971    -6.0795  H       1  <O>11       0.0377
  33 H2       -1.7079     6.2207    -5.3660  H       1  <O>11       0.0377
  34 H3       -2.8437     6.4638    -0.8090  H       1  <O>11       0.1921
  35 H4       -5.9118     2.7313    -7.6414  H       1  <O>11       0.0465
  36 H5       -5.2247     1.2225    -8.2907  H       1  <O>11       0.0465
  37 H6       -7.8898     1.5413    -6.8652  H       1  <O>11       0.0305
  38 H7       -7.6405     1.2261    -8.5991  H       1  <O>11       0.0305
  39 H8       -8.2401    -0.8220    -7.2997  H       1  <O>11       0.0597
  40 H9       -7.9406    -0.5833    -9.7207  H       1  <O>11       0.0596
  41 H10      -7.1582    -1.9709   -11.4623  H       1  <O>11       0.0290
  42 H11      -5.6392    -1.9640   -10.5325  H       1  <O>11       0.0290
  43 H12      -7.5525    -4.1853   -10.3940  H       1  <O>11       0.0267
  44 H13      -6.4058    -3.8289    -9.0800  H       1  <O>11       0.0267
  45 H14      -9.2166    -2.5585    -9.5056  H       1  <O>11       0.0290
  46 H15      -8.3408    -2.7339    -7.9657  H       1  <O>11       0.0290
  47 H16      -7.1850    -0.3589    -5.1796  H       1  <O>11       0.0305
  48 H17      -6.4357    -1.8179    -5.8731  H       1  <O>11       0.0305
  49 H18      -4.8045    -0.2122    -4.8597  H       1  <O>11       0.0465
  50 H19      -4.5007    -0.5715    -6.5769  H       1  <O>11       0.0465
  51 H20      -6.7239     3.6312    -6.5055  H       1  <O>11       0.0625
  52 H21      -6.8063     5.9891    -7.0785  H       1  <O>11       0.0618
  53 H22      -4.9287     7.4411    -6.5470  H       1  <O>11       0.0620
  54 H23      -4.0260    10.9715    -1.4938  H       1  <O>11       0.0625
  55 H24      -4.1748    12.4200    -3.4272  H       1  <O>11       0.0618
  56 H25      -3.6988    11.5462    -5.6371  H       1  <O>11       0.0618
  57 H26      -3.0720     9.2232    -5.9118  H       1  <O>11       0.0624
  58 H27      -2.8768     4.1715    -4.8595  H       1  <O>11       0.0628
@<TRIPOS>BOND
     1     1     2    2
     2     2     3    1
     3     3     4   ar
     4     4     5   ar
     5     5     6   ar
     6     6     7   ar
     7     7     8    1
     8     8     9    1
     9     9    10   ar
    10    10    11   ar
    11    11    12   ar
    12    12    13    2
    13    12    14   ar
    14    14    15   ar
    15    15    16   ar
    16    16    17   ar
    17    17    18   ar
    18    18    19   ar
    19     9    19   ar
    20    14    19   ar
    21     7    20   ar
    22     3    20   ar
    23     2    21   am
    24    21    22    1
    25    22    23    1
    26    23    24    1
    27    24    25    1
    28    25    26    1
    29    26    27    1
    30    27    28    1
    31    28    29    1
    32    26    29    1
    33    24    30    1
    34    30    31    1
    35    21    31    1
    36     8    32    1
    37     8    33    1
    38    11    34    1
    39    22    35    1
    40    22    36    1
    41    23    37    1
    42    23    38    1
    43    24    39    1
    44    26    40    1
    45    27    41    1
    46    27    42    1
    47    28    43    1
    48    28    44    1
    49    29    45    1
    50    29    46    1
    51    30    47    1
    52    30    48    1
    53    31    49    1
    54    31    50    1
    55     4    51    1
    56     5    52    1
    57     6    53    1
    58    15    54    1
    59    16    55    1
    60    17    56    1
    61    18    57    1
    62    20    58    1
@<TRIPOS>MOLECULE
mol96_1_20
 58 62 0 0 0
SMALL
USER_CHARGES
****
VDW energy = 32.95
@<TRIPOS>ATOM
   1 O1       -4.2425     1.9267    -4.2583  O.2     1  <O>11      -0.2700
   2 C1       -4.7326     2.2891    -5.3174  C.2     1  <O>11       0.2466
   3 C2       -4.7890     3.7070    -5.6470  C.ar    1  <O>11       0.0372
   4 C3       -5.9236     4.2430    -6.2811  C.ar    1  <O>11      -0.0496
   5 C4       -5.9723     5.6026    -6.6094  C.ar    1  <O>11      -0.0608
   6 C5       -4.8945     6.4387    -6.3039  C.ar    1  <O>11      -0.0582
   7 C6       -3.7697     5.9063    -5.6662  C.ar    1  <O>11      -0.0408
   8 C7       -2.6352     6.7941    -5.3442  C.3     1  <O>11       0.0171
   9 C8       -1.6802     6.8114    -6.4829  C.ar    1  <O>11       0.0736
  10 N1       -0.6358     5.8813    -6.5318  N.ar    1  <O>11      -0.1750
  11 N2        0.3012     5.9506    -7.5054  N.ar    1  <O>11      -0.2425
  12 C9        0.2101     6.9249    -8.4412  C.ar    1  <O>11       0.2725
  13 O2        1.2681     7.0018    -9.3661  O.2     1  <O>11      -0.2658
  14 C10      -0.8590     7.8295    -8.5224  C.ar    1  <O>11       0.0496
  15 C11      -0.9885     8.8109    -9.5326  C.ar    1  <O>11      -0.0487
  16 C12      -2.0632     9.7013    -9.5361  C.ar    1  <O>11      -0.0610
  17 C13      -3.0216     9.6354    -8.5312  C.ar    1  <O>11      -0.0611
  18 C14      -2.9066     8.6778    -7.5216  C.ar    1  <O>11      -0.0521
  19 C15      -1.8295     7.7621    -7.5073  C.ar    1  <O>11       0.0106
  20 C16      -3.7107     4.5517    -5.3340  C.ar    1  <O>11      -0.0461
  21 N3       -5.2250     1.3690    -6.1880  N.am    1  <O>11      -0.2974
  22 C17      -5.8467     1.6516    -7.5052  C.3     1  <O>11       0.0173
  23 C18      -7.2453     1.0547    -7.5974  C.3     1  <O>11      -0.0107
  24 C19      -7.2181    -0.4446    -7.3197  C.3     1  <O>11       0.0619
  25 O3       -6.4934    -1.0936    -8.3517  O.3     1  <O>11      -0.3732
  26 C20      -7.3817    -1.4601    -9.3952  C.3     1  <O>11       0.0591
  27 C21      -6.7160    -2.1239   -10.4776  C.3     1  <O>11      -0.0265
  28 C22      -7.1584    -3.4044    -9.7431  C.3     1  <O>11      -0.0484
  29 C23      -8.2332    -2.5550    -9.0361  C.3     1  <O>11      -0.0265
  30 C24      -6.5512    -0.7389    -5.9809  C.3     1  <O>11      -0.0107
  31 C25      -5.1781    -0.0829    -5.8754  C.3     1  <O>11       0.0173
  32 H1       -2.1297     6.4276    -4.4507  H       1  <O>11       0.0377
  33 H2       -3.0044     7.8042    -5.1641  H       1  <O>11       0.0377
  34 H3        1.0583     5.2824    -7.5336  H       1  <O>11       0.1921
  35 H4       -5.9118     2.7313    -7.6414  H       1  <O>11       0.0465
  36 H5       -5.2247     1.2225    -8.2907  H       1  <O>11       0.0465
  37 H6       -7.8898     1.5413    -6.8652  H       1  <O>11       0.0305
  38 H7       -7.6405     1.2261    -8.5991  H       1  <O>11       0.0305
  39 H8       -8.2401    -0.8220    -7.2997  H       1  <O>11       0.0597
  40 H9       -7.9406    -0.5833    -9.7207  H       1  <O>11       0.0596
  41 H10      -7.1582    -1.9709   -11.4623  H       1  <O>11       0.0290
  42 H11      -5.6392    -1.9640   -10.5325  H       1  <O>11       0.0290
  43 H12      -7.5525    -4.1853   -10.3940  H       1  <O>11       0.0267
  44 H13      -6.4058    -3.8289    -9.0800  H       1  <O>11       0.0267
  45 H14      -9.2166    -2.5585    -9.5056  H       1  <O>11       0.0290
  46 H15      -8.3408    -2.7339    -7.9657  H       1  <O>11       0.0290
  47 H16      -7.1850    -0.3589    -5.1796  H       1  <O>11       0.0305
  48 H17      -6.4357    -1.8179    -5.8731  H       1  <O>11       0.0305
  49 H18      -4.8045    -0.2122    -4.8597  H       1  <O>11       0.0465
  50 H19      -4.5007    -0.5715    -6.5769  H       1  <O>11       0.0465
  51 H20      -6.7239     3.6312    -6.5055  H       1  <O>11       0.0625
  52 H21      -6.8063     5.9891    -7.0785  H       1  <O>11       0.0618
  53 H22      -4.9287     7.4411    -6.5470  H       1  <O>11       0.0620
  54 H23      -0.2776     8.8695   -10.2784  H       1  <O>11       0.0625
  55 H24      -2.1463    10.4079   -10.2837  H       1  <O>11       0.0618
  56 H25      -3.8168    10.2933    -8.5315  H       1  <O>11       0.0618
  57 H26      -3.6182     8.6378    -6.7752  H       1  <O>11       0.0624
  58 H27      -2.8768     4.1715    -4.8595  H       1  <O>11       0.0628
@<TRIPOS>BOND
     1     1     2    2
     2     2     3    1
     3     3     4   ar
     4     4     5   ar
     5     5     6   ar
     6     6     7   ar
     7     7     8    1
     8     8     9    1
     9     9    10   ar
    10    10    11   ar
    11    11    12   ar
    12    12    13    2
    13    12    14   ar
    14    14    15   ar
    15    15    16   ar
    16    16    17   ar
    17    17    18   ar
    18    18    19   ar
    19     9    19   ar
    20    14    19   ar
    21     7    20   ar
    22     3    20   ar
    23     2    21   am
    24    21    22    1
    25    22    23    1
    26    23    24    1
    27    24    25    1
    28    25    26    1
    29    26    27    1
    30    27    28    1
    31    28    29    1
    32    26    29    1
    33    24    30    1
    34    30    31    1
    35    21    31    1
    36     8    32    1
    37     8    33    1
    38    11    34    1
    39    22    35    1
    40    22    36    1
    41    23    37    1
    42    23    38    1
    43    24    39    1
    44    26    40    1
    45    27    41    1
    46    27    42    1
    47    28    43    1
    48    28    44    1
    49    29    45    1
    50    29    46    1
    51    30    47    1
    52    30    48    1
    53    31    49    1
    54    31    50    1
    55     4    51    1
    56     5    52    1
    57     6    53    1
    58    15    54    1
    59    16    55    1
    60    17    56    1
    61    18    57    1
    62    20    58    1
@<TRIPOS>MOLECULE
mol96_1_21
 58 62 0 0 0
SMALL
USER_CHARGES
****
VDW energy = 35.99
@<TRIPOS>ATOM
   1 O1       -4.2425     1.9267    -4.2583  O.2     1  <O>11      -0.2700
   2 C1       -4.7326     2.2891    -5.3174  C.2     1  <O>11       0.2466
   3 C2       -4.7890     3.7070    -5.6470  C.ar    1  <O>11       0.0372
   4 C3       -5.9236     4.2430    -6.2811  C.ar    1  <O>11      -0.0496
   5 C4       -5.9723     5.6026    -6.6094  C.ar    1  <O>11      -0.0608
   6 C5       -4.8945     6.4387    -6.3039  C.ar    1  <O>11      -0.0582
   7 C6       -3.7697     5.9063    -5.6662  C.ar    1  <O>11      -0.0408
   8 C7       -2.6352     6.7941    -5.3442  C.3     1  <O>11       0.0171
   9 C8       -2.8278     7.3734    -3.9892  C.ar    1  <O>11       0.0736
  10 N1       -2.6744     6.5659    -2.8568  N.ar    1  <O>11      -0.1750
  11 N2       -2.9480     7.0516    -1.6240  N.ar    1  <O>11      -0.2425
  12 C9       -3.3614     8.3347    -1.4967  C.ar    1  <O>11       0.2725
  13 O2       -3.7232     8.7475    -0.2008  O.2     1  <O>11      -0.2658
  14 C10      -3.4414     9.2372    -2.5678  C.ar    1  <O>11       0.0496
  15 C11      -3.8160    10.5941    -2.4311  C.ar    1  <O>11      -0.0487
  16 C12      -3.9058    11.4307    -3.5446  C.ar    1  <O>11      -0.0610
  17 C13      -3.6324    10.9295    -4.8122  C.ar    1  <O>11      -0.0611
  18 C14      -3.2679     9.5907    -4.9675  C.ar    1  <O>11      -0.0521
  19 C15      -3.1633     8.7312    -3.8498  C.ar    1  <O>11       0.0106
  20 C16      -3.7107     4.5517    -5.3340  C.ar    1  <O>11      -0.0461
  21 N3       -5.2250     1.3690    -6.1880  N.am    1  <O>11      -0.2974
  22 C17      -5.2393    -0.1021    -5.9953  C.3     1  <O>11       0.0173
  23 C18      -4.5435    -0.8185    -7.1458  C.3     1  <O>11      -0.0107
  24 C19      -5.1703    -0.4394    -8.4834  C.3     1  <O>11       0.0619
  25 O3       -6.5021    -0.9250    -8.5250  O.3     1  <O>11      -0.3732
  26 C20      -6.7647    -1.4773    -9.8049  C.3     1  <O>11       0.0591
  27 C21      -6.8953    -2.9046    -9.7728  C.3     1  <O>11      -0.0265
  28 C22      -8.4019    -2.5966    -9.6715  C.3     1  <O>11      -0.0484
  29 C23      -8.0955    -1.2055   -10.2609  C.3     1  <O>11      -0.0265
  30 C24      -5.1850     1.0736    -8.6691  C.3     1  <O>11      -0.0107
  31 C25      -5.8267     1.7841    -7.4816  C.3     1  <O>11       0.0173
  32 H1       -2.5827     7.5971    -6.0795  H       1  <O>11       0.0377
  33 H2       -1.7079     6.2207    -5.3660  H       1  <O>11       0.0377
  34 H3       -2.8437     6.4638    -0.8090  H       1  <O>11       0.1921
  35 H4       -4.7248    -0.3421    -5.0646  H       1  <O>11       0.0465
  36 H5       -6.2731    -0.4425    -5.9380  H       1  <O>11       0.0465
  37 H6       -3.4896    -0.5401    -7.1542  H       1  <O>11       0.0305
  38 H7       -4.6330    -1.8956    -7.0010  H       1  <O>11       0.0305
  39 H8       -4.5924    -0.8920    -9.2888  H       1  <O>11       0.0597
  40 H9       -6.0034    -1.1413   -10.5083  H       1  <O>11       0.0596
  41 H10      -6.5820    -3.4231   -10.6792  H       1  <O>11       0.0290
  42 H11      -6.4581    -3.3945    -8.9027  H       1  <O>11       0.0290
  43 H12      -9.0347    -3.2258   -10.2979  H       1  <O>11       0.0267
  44 H13      -8.7940    -2.5834    -8.6554  H       1  <O>11       0.0267
  45 H14      -8.2130    -1.1180   -11.3407  H       1  <O>11       0.0290
  46 H15      -8.5972    -0.3698    -9.7717  H       1  <O>11       0.0290
  47 H16      -4.1592     1.4260    -8.7775  H       1  <O>11       0.0305
  48 H17      -5.7495     1.3136    -9.5708  H       1  <O>11       0.0305
  49 H18      -5.6942     2.8591    -7.6024  H       1  <O>11       0.0465
  50 H19      -6.8916     1.5486    -7.4652  H       1  <O>11       0.0465
  51 H20      -6.7239     3.6312    -6.5055  H       1  <O>11       0.0625
  52 H21      -6.8063     5.9891    -7.0785  H       1  <O>11       0.0618
  53 H22      -4.9287     7.4411    -6.5470  H       1  <O>11       0.0620
  54 H23      -4.0260    10.9715    -1.4938  H       1  <O>11       0.0625
  55 H24      -4.1748    12.4200    -3.4272  H       1  <O>11       0.0618
  56 H25      -3.6988    11.5462    -5.6371  H       1  <O>11       0.0618
  57 H26      -3.0720     9.2232    -5.9118  H       1  <O>11       0.0624
  58 H27      -2.8768     4.1715    -4.8595  H       1  <O>11       0.0628
@<TRIPOS>BOND
     1     1     2    2
     2     2     3    1
     3     3     4   ar
     4     4     5   ar
     5     5     6   ar
     6     6     7   ar
     7     7     8    1
     8     8     9    1
     9     9    10   ar
    10    10    11   ar
    11    11    12   ar
    12    12    13    2
    13    12    14   ar
    14    14    15   ar
    15    15    16   ar
    16    16    17   ar
    17    17    18   ar
    18    18    19   ar
    19     9    19   ar
    20    14    19   ar
    21     7    20   ar
    22     3    20   ar
    23     2    21   am
    24    21    22    1
    25    22    23    1
    26    23    24    1
    27    24    25    1
    28    25    26    1
    29    26    27    1
    30    27    28    1
    31    28    29    1
    32    26    29    1
    33    24    30    1
    34    30    31    1
    35    21    31    1
    36     8    32    1
    37     8    33    1
    38    11    34    1
    39    22    35    1
    40    22    36    1
    41    23    37    1
    42    23    38    1
    43    24    39    1
    44    26    40    1
    45    27    41    1
    46    27    42    1
    47    28    43    1
    48    28    44    1
    49    29    45    1
    50    29    46    1
    51    30    47    1
    52    30    48    1
    53    31    49    1
    54    31    50    1
    55     4    51    1
    56     5    52    1
    57     6    53    1
    58    15    54    1
    59    16    55    1
    60    17    56    1
    61    18    57    1
    62    20    58    1
@<TRIPOS>MOLECULE
mol96_1_22
 58 62 0 0 0
SMALL
USER_CHARGES
****
VDW energy = 43.66
@<TRIPOS>ATOM
   1 O1       -4.2425     1.9267    -4.2583  O.2     1  <O>11      -0.2700
   2 C1       -4.7326     2.2891    -5.3174  C.2     1  <O>11       0.2466
   3 C2       -4.7890     3.7070    -5.6470  C.ar    1  <O>11       0.0372
   4 C3       -5.9236     4.2430    -6.2811  C.ar    1  <O>11      -0.0496
   5 C4       -5.9723     5.6026    -6.6094  C.ar    1  <O>11      -0.0608
   6 C5       -4.8945     6.4387    -6.3039  C.ar    1  <O>11      -0.0582
   7 C6       -3.7697     5.9063    -5.6662  C.ar    1  <O>11      -0.0408
   8 C7       -2.6352     6.7941    -5.3442  C.3     1  <O>11       0.0171
   9 C8       -2.8278     7.3734    -3.9892  C.ar    1  <O>11       0.0736
  10 N1       -2.6744     6.5659    -2.8568  N.ar    1  <O>11      -0.1750
  11 N2       -2.9480     7.0516    -1.6240  N.ar    1  <O>11      -0.2425
  12 C9       -3.3614     8.3347    -1.4967  C.ar    1  <O>11       0.2725
  13 O2       -3.7232     8.7475    -0.2008  O.2     1  <O>11      -0.2658
  14 C10      -3.4414     9.2372    -2.5678  C.ar    1  <O>11       0.0496
  15 C11      -3.8160    10.5941    -2.4311  C.ar    1  <O>11      -0.0487
  16 C12      -3.9058    11.4307    -3.5446  C.ar    1  <O>11      -0.0610
  17 C13      -3.6324    10.9295    -4.8122  C.ar    1  <O>11      -0.0611
  18 C14      -3.2679     9.5907    -4.9675  C.ar    1  <O>11      -0.0521
  19 C15      -3.1633     8.7312    -3.8498  C.ar    1  <O>11       0.0106
  20 C16      -3.7107     4.5517    -5.3340  C.ar    1  <O>11      -0.0461
  21 N3       -5.2250     1.3690    -6.1880  N.am    1  <O>11      -0.2974
  22 C17      -5.8467     1.6516    -7.5052  C.3     1  <O>11       0.0173
  23 C18      -7.2453     1.0547    -7.5974  C.3     1  <O>11      -0.0107
  24 C19      -7.2181    -0.4446    -7.3197  C.3     1  <O>11       0.0619
  25 O3       -6.4934    -1.0936    -8.3517  O.3     1  <O>11      -0.3732
  26 C20      -7.1649    -2.2866    -8.7232  C.3     1  <O>11       0.0591
  27 C21      -6.4866    -2.9986    -9.7665  C.3     1  <O>11      -0.0265
  28 C22      -5.8707    -3.7900    -8.5963  C.3     1  <O>11      -0.0484
  29 C23      -7.0544    -3.3141    -7.7309  C.3     1  <O>11      -0.0265
  30 C24      -6.5512    -0.7389    -5.9809  C.3     1  <O>11      -0.0107
  31 C25      -5.1781    -0.0829    -5.8754  C.3     1  <O>11       0.0173
  32 H1       -2.5827     7.5971    -6.0795  H       1  <O>11       0.0377
  33 H2       -1.7079     6.2207    -5.3660  H       1  <O>11       0.0377
  34 H3       -2.8437     6.4638    -0.8090  H       1  <O>11       0.1921
  35 H4       -5.9118     2.7313    -7.6414  H       1  <O>11       0.0465
  36 H5       -5.2247     1.2225    -8.2907  H       1  <O>11       0.0465
  37 H6       -7.8898     1.5413    -6.8652  H       1  <O>11       0.0305
  38 H7       -7.6405     1.2261    -8.5991  H       1  <O>11       0.0305
  39 H8       -8.2401    -0.8220    -7.2997  H       1  <O>11       0.0597
  40 H9       -8.1996    -2.0570    -8.9759  H       1  <O>11       0.0596
  41 H10      -7.1291    -3.5724   -10.4347  H       1  <O>11       0.0290
  42 H11      -5.7833    -2.4085   -10.3542  H       1  <O>11       0.0290
  43 H12      -5.8275    -4.8680    -8.7533  H       1  <O>11       0.0267
  44 H13      -4.8957    -3.4304    -8.2701  H       1  <O>11       0.0267
  45 H14      -7.8975    -4.0020    -7.6714  H       1  <O>11       0.0290
  46 H15      -6.7929    -2.9721    -6.7288  H       1  <O>11       0.0290
  47 H16      -7.1850    -0.3589    -5.1796  H       1  <O>11       0.0305
  48 H17      -6.4357    -1.8179    -5.8731  H       1  <O>11       0.0305
  49 H18      -4.8045    -0.2122    -4.8597  H       1  <O>11       0.0465
  50 H19      -4.5007    -0.5715    -6.5769  H       1  <O>11       0.0465
  51 H20      -6.7239     3.6312    -6.5055  H       1  <O>11       0.0625
  52 H21      -6.8063     5.9891    -7.0785  H       1  <O>11       0.0618
  53 H22      -4.9287     7.4411    -6.5470  H       1  <O>11       0.0620
  54 H23      -4.0260    10.9715    -1.4938  H       1  <O>11       0.0625
  55 H24      -4.1748    12.4200    -3.4272  H       1  <O>11       0.0618
  56 H25      -3.6988    11.5462    -5.6371  H       1  <O>11       0.0618
  57 H26      -3.0720     9.2232    -5.9118  H       1  <O>11       0.0624
  58 H27      -2.8768     4.1715    -4.8595  H       1  <O>11       0.0628
@<TRIPOS>BOND
     1     1     2    2
     2     2     3    1
     3     3     4   ar
     4     4     5   ar
     5     5     6   ar
     6     6     7   ar
     7     7     8    1
     8     8     9    1
     9     9    10   ar
    10    10    11   ar
    11    11    12   ar
    12    12    13    2
    13    12    14   ar
    14    14    15   ar
    15    15    16   ar
    16    16    17   ar
    17    17    18   ar
    18    18    19   ar
    19     9    19   ar
    20    14    19   ar
    21     7    20   ar
    22     3    20   ar
    23     2    21   am
    24    21    22    1
    25    22    23    1
    26    23    24    1
    27    24    25    1
    28    25    26    1
    29    26    27    1
    30    27    28    1
    31    28    29    1
    32    26    29    1
    33    24    30    1
    34    30    31    1
    35    21    31    1
    36     8    32    1
    37     8    33    1
    38    11    34    1
    39    22    35    1
    40    22    36    1
    41    23    37    1
    42    23    38    1
    43    24    39    1
    44    26    40    1
    45    27    41    1
    46    27    42    1
    47    28    43    1
    48    28    44    1
    49    29    45    1
    50    29    46    1
    51    30    47    1
    52    30    48    1
    53    31    49    1
    54    31    50    1
    55     4    51    1
    56     5    52    1
    57     6    53    1
    58    15    54    1
    59    16    55    1
    60    17    56    1
    61    18    57    1
    62    20    58    1
@<TRIPOS>MOLECULE
mol96_1_23
 58 62 0 0 0
SMALL
USER_CHARGES
****
VDW energy = 45.18
@<TRIPOS>ATOM
   1 O1       -4.2425     1.9267    -4.2583  O.2     1  <O>11      -0.2700
   2 C1       -4.7326     2.2891    -5.3174  C.2     1  <O>11       0.2466
   3 C2       -4.7890     3.7070    -5.6470  C.ar    1  <O>11       0.0372
   4 C3       -4.5326     4.1406    -6.9596  C.ar    1  <O>11      -0.0496
   5 C4       -4.5741     5.5039    -7.2733  C.ar    1  <O>11      -0.0608
   6 C5       -4.8763     6.4440    -6.2839  C.ar    1  <O>11      -0.0582
   7 C6       -5.1387     6.0112    -4.9804  C.ar    1  <O>11      -0.0408
   8 C7       -5.4591     7.0082    -3.9400  C.3     1  <O>11       0.0171
   9 C8       -6.6802     7.7593    -4.3320  C.ar    1  <O>11       0.0736
  10 N1       -6.5660     8.9305    -5.0891  N.ar    1  <O>11      -0.1750
  11 N2       -7.6581     9.6803    -5.3645  N.ar    1  <O>11      -0.2425
  12 C9       -8.8676     9.2773    -4.9082  C.ar    1  <O>11       0.2725
  13 O2       -9.9455    10.1509    -5.1442  O.2     1  <O>11      -0.2658
  14 C10      -9.0815     8.0665    -4.2328  C.ar    1  <O>11       0.0496
  15 C11     -10.3516     7.6136    -3.8063  C.ar    1  <O>11      -0.0487
  16 C12     -10.4897     6.4118    -3.1103  C.ar    1  <O>11      -0.0610
  17 C13      -9.3667     5.6454    -2.8205  C.ar    1  <O>11      -0.0611
  18 C14      -8.1036     6.0799    -3.2273  C.ar    1  <O>11      -0.0521
  19 C15      -7.9461     7.2902    -3.9410  C.ar    1  <O>11       0.0106
  20 C16      -5.1004     4.6539    -4.6566  C.ar    1  <O>11      -0.0461
  21 N3       -5.2250     1.3690    -6.1880  N.am    1  <O>11      -0.2974
  22 C17      -5.2400    -0.1020    -5.9950  C.3     1  <O>11       0.0173
  23 C18      -4.5440    -0.8190    -7.1450  C.3     1  <O>11      -0.0107
  24 C19      -5.1700    -0.4400    -8.4830  C.3     1  <O>11       0.0619
  25 O3       -6.5020    -0.9250    -8.5250  O.3     1  <O>11      -0.3732
  26 C20      -6.7643    -1.4775    -9.8049  C.3     1  <O>11       0.0591
  27 C21      -6.8955    -2.9048    -9.7725  C.3     1  <O>11      -0.0265
  28 C22      -8.4020    -2.5961    -9.6719  C.3     1  <O>11      -0.0484
  29 C23      -8.0947    -1.2053   -10.2615  C.3     1  <O>11      -0.0265
  30 C24      -5.1840     1.0730    -8.6690  C.3     1  <O>11      -0.0107
  31 C25      -5.8260     1.7840    -7.4820  C.3     1  <O>11       0.0173
  32 H1       -4.6245     7.7010    -3.8319  H       1  <O>11       0.0377
  33 H2       -5.6340     6.4996    -2.9914  H       1  <O>11       0.0377
  34 H3       -7.5713    10.5294    -5.9047  H       1  <O>11       0.1921
  35 H4       -4.7260    -0.3420    -5.0640  H       1  <O>11       0.0465
  36 H5       -6.2740    -0.4420    -5.9380  H       1  <O>11       0.0465
  37 H6       -3.4900    -0.5410    -7.1530  H       1  <O>11       0.0305
  38 H7       -4.6340    -1.8960    -7.0000  H       1  <O>11       0.0305
  39 H8       -4.5920    -0.8930    -9.2880  H       1  <O>11       0.0597
  40 H9       -6.0026    -1.1419   -10.5080  H       1  <O>11       0.0596
  41 H10      -6.5820    -3.4235   -10.6787  H       1  <O>11       0.0290
  42 H11      -6.4589    -3.3947    -8.9022  H       1  <O>11       0.0290
  43 H12      -9.0348    -3.2252   -10.2985  H       1  <O>11       0.0267
  44 H13      -8.7945    -2.5825    -8.6560  H       1  <O>11       0.0267
  45 H14      -8.2118    -1.1180   -11.3415  H       1  <O>11       0.0290
  46 H15      -8.5964    -0.3693    -9.7728  H       1  <O>11       0.0290
  47 H16      -4.1580     1.4250    -8.7770  H       1  <O>11       0.0305
  48 H17      -5.7480     1.3130    -9.5710  H       1  <O>11       0.0305
  49 H18      -5.6930     2.8590    -7.6030  H       1  <O>11       0.0465
  50 H19      -6.8910     1.5490    -7.4660  H       1  <O>11       0.0465
  51 H20      -4.3129     3.4506    -7.6950  H       1  <O>11       0.0625
  52 H21      -4.3810     5.8161    -8.2378  H       1  <O>11       0.0618
  53 H22      -4.9055     7.4497    -6.5137  H       1  <O>11       0.0620
  54 H23     -11.1890     8.1803    -4.0129  H       1  <O>11       0.0625
  55 H24     -11.4243     6.0924    -2.8112  H       1  <O>11       0.0618
  56 H25      -9.4663     4.7566    -2.3054  H       1  <O>11       0.0618
  57 H26      -7.2732     5.5094    -3.0039  H       1  <O>11       0.0624
  58 H27      -5.3003     4.3465    -3.6920  H       1  <O>11       0.0628
@<TRIPOS>BOND
     1     1     2    2
     2     2     3    1
     3     3     4   ar
     4     4     5   ar
     5     5     6   ar
     6     6     7   ar
     7     7     8    1
     8     8     9    1
     9     9    10   ar
    10    10    11   ar
    11    11    12   ar
    12    12    13    2
    13    12    14   ar
    14    14    15   ar
    15    15    16   ar
    16    16    17   ar
    17    17    18   ar
    18    18    19   ar
    19     9    19   ar
    20    14    19   ar
    21     7    20   ar
    22     3    20   ar
    23     2    21   am
    24    21    22    1
    25    22    23    1
    26    23    24    1
    27    24    25    1
    28    25    26    1
    29    26    27    1
    30    27    28    1
    31    28    29    1
    32    26    29    1
    33    24    30    1
    34    30    31    1
    35    21    31    1
    36     8    32    1
    37     8    33    1
    38    11    34    1
    39    22    35    1
    40    22    36    1
    41    23    37    1
    42    23    38    1
    43    24    39    1
    44    26    40    1
    45    27    41    1
    46    27    42    1
    47    28    43    1
    48    28    44    1
    49    29    45    1
    50    29    46    1
    51    30    47    1
    52    30    48    1
    53    31    49    1
    54    31    50    1
    55     4    51    1
    56     5    52    1
    57     6    53    1
    58    15    54    1
    59    16    55    1
    60    17    56    1
    61    18    57    1
    62    20    58    1
@<TRIPOS>MOLECULE
mol96_1_24
 58 62 0 0 0
SMALL
USER_CHARGES
****
VDW energy = 45.18
@<TRIPOS>ATOM
   1 O1       -4.2425     1.9267    -4.2583  O.2     1  <O>11      -0.2700
   2 C1       -4.7326     2.2891    -5.3174  C.2     1  <O>11       0.2466
   3 C2       -4.7890     3.7070    -5.6470  C.ar    1  <O>11       0.0372
   4 C3       -4.5326     4.1406    -6.9596  C.ar    1  <O>11      -0.0496
   5 C4       -4.5741     5.5039    -7.2733  C.ar    1  <O>11      -0.0608
   6 C5       -4.8763     6.4440    -6.2839  C.ar    1  <O>11      -0.0582
   7 C6       -5.1387     6.0112    -4.9804  C.ar    1  <O>11      -0.0408
   8 C7       -5.4591     7.0082    -3.9400  C.3     1  <O>11       0.0171
   9 C8       -4.2055     7.4557    -3.2790  C.ar    1  <O>11       0.0736
  10 N1       -2.9753     6.9263    -3.6847  N.ar    1  <O>11      -0.1750
  11 N2       -1.8384     7.2448    -3.0240  N.ar    1  <O>11      -0.2425
  12 C9       -1.9026     8.0931    -1.9706  C.ar    1  <O>11       0.2725
  13 O2       -0.7023     8.3056    -1.2673  O.2     1  <O>11      -0.2658
  14 C10      -3.0770     8.7453    -1.5661  C.ar    1  <O>11       0.0496
  15 C11      -3.1372     9.6770    -0.5037  C.ar    1  <O>11      -0.0487
  16 C12      -4.3466    10.2665    -0.1326  C.ar    1  <O>11      -0.0610
  17 C13      -5.5161     9.9332    -0.8062  C.ar    1  <O>11      -0.0611
  18 C14      -5.4772     9.0100    -1.8530  C.ar    1  <O>11      -0.0521
  19 C15      -4.2597     8.4098    -2.2483  C.ar    1  <O>11       0.0106
  20 C16      -5.1004     4.6539    -4.6566  C.ar    1  <O>11      -0.0461
  21 N3       -5.2250     1.3690    -6.1880  N.am    1  <O>11      -0.2974
  22 C17      -5.2393    -0.1021    -5.9953  C.3     1  <O>11       0.0173
  23 C18      -4.5435    -0.8185    -7.1458  C.3     1  <O>11      -0.0107
  24 C19      -5.1703    -0.4394    -8.4834  C.3     1  <O>11       0.0619
  25 O3       -6.5021    -0.9250    -8.5250  O.3     1  <O>11      -0.3732
  26 C20      -6.5113    -2.2354    -9.0682  C.3     1  <O>11       0.0591
  27 C21      -7.8302    -2.7924    -9.1409  C.3     1  <O>11      -0.0265
  28 C22      -7.7913    -2.2657   -10.5887  C.3     1  <O>11      -0.0484
  29 C23      -6.2538    -2.2505   -10.4775  C.3     1  <O>11      -0.0265
  30 C24      -5.1850     1.0736    -8.6691  C.3     1  <O>11      -0.0107
  31 C25      -5.8267     1.7841    -7.4816  C.3     1  <O>11       0.0173
  32 H1       -6.1212     6.5598    -3.1992  H       1  <O>11       0.0377
  33 H2       -5.9543     7.8649    -4.3983  H       1  <O>11       0.0377
  34 H3       -0.9529     6.8549    -3.3144  H       1  <O>11       0.1921
  35 H4       -4.7248    -0.3421    -5.0646  H       1  <O>11       0.0465
  36 H5       -6.2731    -0.4425    -5.9380  H       1  <O>11       0.0465
  37 H6       -3.4896    -0.5401    -7.1542  H       1  <O>11       0.0305
  38 H7       -4.6330    -1.8956    -7.0010  H       1  <O>11       0.0305
  39 H8       -4.5924    -0.8920    -9.2888  H       1  <O>11       0.0597
  40 H9       -5.8201    -2.8650    -8.5087  H       1  <O>11       0.0596
  41 H10      -7.8862    -3.8762    -9.0369  H       1  <O>11       0.0290
  42 H11      -8.5714    -2.3250    -8.4925  H       1  <O>11       0.0290
  43 H12      -8.1859    -2.9586   -11.3322  H       1  <O>11       0.0267
  44 H13      -8.2467    -1.2859   -10.7264  H       1  <O>11       0.0267
  45 H14      -5.7481    -3.1399   -10.8529  H       1  <O>11       0.0290
  46 H15      -5.7653    -1.3599   -10.8745  H       1  <O>11       0.0290
  47 H16      -4.1592     1.4260    -8.7775  H       1  <O>11       0.0305
  48 H17      -5.7495     1.3136    -9.5708  H       1  <O>11       0.0305
  49 H18      -5.6942     2.8591    -7.6024  H       1  <O>11       0.0465
  50 H19      -6.8916     1.5486    -7.4652  H       1  <O>11       0.0465
  51 H20      -4.3129     3.4506    -7.6950  H       1  <O>11       0.0625
  52 H21      -4.3810     5.8161    -8.2378  H       1  <O>11       0.0618
  53 H22      -4.9055     7.4497    -6.5137  H       1  <O>11       0.0620
  54 H23      -2.2740     9.9247     0.0046  H       1  <O>11       0.0625
  55 H24      -4.3727    10.9490     0.6410  H       1  <O>11       0.0618
  56 H25      -6.4116    10.3675    -0.5331  H       1  <O>11       0.0618
  57 H26      -6.3498     8.7623    -2.3453  H       1  <O>11       0.0624
  58 H27      -5.3003     4.3465    -3.6920  H       1  <O>11       0.0628
@<TRIPOS>BOND
     1     1     2    2
     2     2     3    1
     3     3     4   ar
     4     4     5   ar
     5     5     6   ar
     6     6     7   ar
     7     7     8    1
     8     8     9    1
     9     9    10   ar
    10    10    11   ar
    11    11    12   ar
    12    12    13    2
    13    12    14   ar
    14    14    15   ar
    15    15    16   ar
    16    16    17   ar
    17    17    18   ar
    18    18    19   ar
    19     9    19   ar
    20    14    19   ar
    21     7    20   ar
    22     3    20   ar
    23     2    21   am
    24    21    22    1
    25    22    23    1
    26    23    24    1
    27    24    25    1
    28    25    26    1
    29    26    27    1
    30    27    28    1
    31    28    29    1
    32    26    29    1
    33    24    30    1
    34    30    31    1
    35    21    31    1
    36     8    32    1
    37     8    33    1
    38    11    34    1
    39    22    35    1
    40    22    36    1
    41    23    37    1
    42    23    38    1
    43    24    39    1
    44    26    40    1
    45    27    41    1
    46    27    42    1
    47    28    43    1
    48    28    44    1
    49    29    45    1
    50    29    46    1
    51    30    47    1
    52    30    48    1
    53    31    49    1
    54    31    50    1
    55     4    51    1
    56     5    52    1
    57     6    53    1
    58    15    54    1
    59    16    55    1
    60    17    56    1
    61    18    57    1
    62    20    58    1
@<TRIPOS>MOLECULE
mol96_1_25
 58 62 0 0 0
SMALL
USER_CHARGES
****
VDW energy = 46.65
@<TRIPOS>ATOM
   1 O1       -4.2425     1.9267    -4.2583  O.2     1  <O>11      -0.2700
   2 C1       -4.7326     2.2891    -5.3174  C.2     1  <O>11       0.2466
   3 C2       -4.7890     3.7070    -5.6470  C.ar    1  <O>11       0.0372
   4 C3       -4.5326     4.1406    -6.9596  C.ar    1  <O>11      -0.0496
   5 C4       -4.5741     5.5039    -7.2733  C.ar    1  <O>11      -0.0608
   6 C5       -4.8763     6.4440    -6.2839  C.ar    1  <O>11      -0.0582
   7 C6       -5.1387     6.0112    -4.9804  C.ar    1  <O>11      -0.0408
   8 C7       -5.4591     7.0082    -3.9400  C.3     1  <O>11       0.0171
   9 C8       -6.9281     7.2307    -3.9018  C.ar    1  <O>11       0.0736
  10 N1       -7.7706     6.2406    -3.3840  N.ar    1  <O>11      -0.1750
  11 N2       -9.1148     6.3846    -3.4382  N.ar    1  <O>11      -0.2425
  12 C9       -9.6370     7.5056    -3.9898  C.ar    1  <O>11       0.2725
  13 O2      -11.0390     7.5491    -4.1044  O.2     1  <O>11      -0.2658
  14 C10      -8.8632     8.5872    -4.4364  C.ar    1  <O>11       0.0496
  15 C11      -9.4059     9.7842    -4.9588  C.ar    1  <O>11      -0.0487
  16 C12      -8.5769    10.8100    -5.4152  C.ar    1  <O>11      -0.0610
  17 C13      -7.1958    10.6589    -5.3668  C.ar    1  <O>11      -0.0611
  18 C14      -6.6419     9.4812    -4.8609  C.ar    1  <O>11      -0.0521
  19 C15      -7.4663     8.4354    -4.3860  C.ar    1  <O>11       0.0106
  20 C16      -5.1004     4.6539    -4.6566  C.ar    1  <O>11      -0.0461
  21 N3       -5.2250     1.3690    -6.1880  N.am    1  <O>11      -0.2974
  22 C17      -5.2400    -0.1020    -5.9950  C.3     1  <O>11       0.0173
  23 C18      -4.5440    -0.8190    -7.1450  C.3     1  <O>11      -0.0107
  24 C19      -5.1700    -0.4400    -8.4830  C.3     1  <O>11       0.0619
  25 O3       -6.5020    -0.9250    -8.5250  O.3     1  <O>11      -0.3732
  26 C20      -6.7643    -1.4775    -9.8049  C.3     1  <O>11       0.0591
  27 C21      -6.8955    -2.9048    -9.7725  C.3     1  <O>11      -0.0265
  28 C22      -8.4020    -2.5961    -9.6719  C.3     1  <O>11      -0.0484
  29 C23      -8.0947    -1.2053   -10.2615  C.3     1  <O>11      -0.0265
  30 C24      -5.1840     1.0730    -8.6690  C.3     1  <O>11      -0.0107
  31 C25      -5.8260     1.7840    -7.4820  C.3     1  <O>11       0.0173
  32 H1       -4.9546     7.9469    -4.1691  H       1  <O>11       0.0377
  33 H2       -5.1216     6.6419    -2.9699  H       1  <O>11       0.0377
  34 H3       -9.7205     5.6646    -3.0705  H       1  <O>11       0.1921
  35 H4       -4.7260    -0.3420    -5.0640  H       1  <O>11       0.0465
  36 H5       -6.2740    -0.4420    -5.9380  H       1  <O>11       0.0465
  37 H6       -3.4900    -0.5410    -7.1530  H       1  <O>11       0.0305
  38 H7       -4.6340    -1.8960    -7.0000  H       1  <O>11       0.0305
  39 H8       -4.5920    -0.8930    -9.2880  H       1  <O>11       0.0597
  40 H9       -6.0026    -1.1419   -10.5080  H       1  <O>11       0.0596
  41 H10      -6.5820    -3.4235   -10.6787  H       1  <O>11       0.0290
  42 H11      -6.4589    -3.3947    -8.9022  H       1  <O>11       0.0290
  43 H12      -9.0348    -3.2252   -10.2985  H       1  <O>11       0.0267
  44 H13      -8.7945    -2.5825    -8.6560  H       1  <O>11       0.0267
  45 H14      -8.2118    -1.1180   -11.3415  H       1  <O>11       0.0290
  46 H15      -8.5964    -0.3693    -9.7728  H       1  <O>11       0.0290
  47 H16      -4.1580     1.4250    -8.7770  H       1  <O>11       0.0305
  48 H17      -5.7480     1.3130    -9.5710  H       1  <O>11       0.0305
  49 H18      -5.6930     2.8590    -7.6030  H       1  <O>11       0.0465
  50 H19      -6.8910     1.5490    -7.4660  H       1  <O>11       0.0465
  51 H20      -4.3129     3.4506    -7.6950  H       1  <O>11       0.0625
  52 H21      -4.3810     5.8161    -8.2378  H       1  <O>11       0.0618
  53 H22      -4.9055     7.4497    -6.5137  H       1  <O>11       0.0620
  54 H23     -10.4303     9.9009    -5.0031  H       1  <O>11       0.0625
  55 H24      -8.9887    11.6797    -5.7881  H       1  <O>11       0.0618
  56 H25      -6.5809    11.4159    -5.7044  H       1  <O>11       0.0618
  57 H26      -5.6160     9.3727    -4.8332  H       1  <O>11       0.0624
  58 H27      -5.3003     4.3465    -3.6920  H       1  <O>11       0.0628
@<TRIPOS>BOND
     1     1     2    2
     2     2     3    1
     3     3     4   ar
     4     4     5   ar
     5     5     6   ar
     6     6     7   ar
     7     7     8    1
     8     8     9    1
     9     9    10   ar
    10    10    11   ar
    11    11    12   ar
    12    12    13    2
    13    12    14   ar
    14    14    15   ar
    15    15    16   ar
    16    16    17   ar
    17    17    18   ar
    18    18    19   ar
    19     9    19   ar
    20    14    19   ar
    21     7    20   ar
    22     3    20   ar
    23     2    21   am
    24    21    22    1
    25    22    23    1
    26    23    24    1
    27    24    25    1
    28    25    26    1
    29    26    27    1
    30    27    28    1
    31    28    29    1
    32    26    29    1
    33    24    30    1
    34    30    31    1
    35    21    31    1
    36     8    32    1
    37     8    33    1
    38    11    34    1
    39    22    35    1
    40    22    36    1
    41    23    37    1
    42    23    38    1
    43    24    39    1
    44    26    40    1
    45    27    41    1
    46    27    42    1
    47    28    43    1
    48    28    44    1
    49    29    45    1
    50    29    46    1
    51    30    47    1
    52    30    48    1
    53    31    49    1
    54    31    50    1
    55     4    51    1
    56     5    52    1
    57     6    53    1
    58    15    54    1
    59    16    55    1
    60    17    56    1
    61    18    57    1
    62    20    58    1
@<TRIPOS>MOLECULE
mol96_1_26
 58 62 0 0 0
SMALL
USER_CHARGES
****
VDW energy = 47.28
@<TRIPOS>ATOM
   1 O1       -4.2425     1.9267    -4.2583  O.2     1  <O>11      -0.2700
   2 C1       -4.7326     2.2891    -5.3174  C.2     1  <O>11       0.2466
   3 C2       -4.7890     3.7070    -5.6470  C.ar    1  <O>11       0.0372
   4 C3       -4.5326     4.1406    -6.9596  C.ar    1  <O>11      -0.0496
   5 C4       -4.5741     5.5039    -7.2733  C.ar    1  <O>11      -0.0608
   6 C5       -4.8763     6.4440    -6.2839  C.ar    1  <O>11      -0.0582
   7 C6       -5.1387     6.0112    -4.9804  C.ar    1  <O>11      -0.0408
   8 C7       -5.4591     7.0082    -3.9400  C.3     1  <O>11       0.0171
   9 C8       -4.2055     7.4557    -3.2790  C.ar    1  <O>11       0.0736
  10 N1       -3.3106     8.2825    -3.9671  N.ar    1  <O>11      -0.1750
  11 N2       -2.1186     8.6124    -3.4184  N.ar    1  <O>11      -0.2425
  12 C9       -1.8055     8.1421    -2.1879  C.ar    1  <O>11       0.2725
  13 O2       -0.5133     8.4402    -1.7168  O.2     1  <O>11      -0.2658
  14 C10      -2.6868     7.3952    -1.3920  C.ar    1  <O>11       0.0496
  15 C11      -2.3864     6.9519    -0.0830  C.ar    1  <O>11      -0.0487
  16 C12      -3.2984     6.1844     0.6430  C.ar    1  <O>11      -0.0610
  17 C13      -4.5198     5.8387     0.0762  C.ar    1  <O>11      -0.0611
  18 C14      -4.8311     6.2613    -1.2177  C.ar    1  <O>11      -0.0521
  19 C15      -3.9230     7.0468    -1.9642  C.ar    1  <O>11       0.0106
  20 C16      -5.1004     4.6539    -4.6566  C.ar    1  <O>11      -0.0461
  21 N3       -5.2250     1.3690    -6.1880  N.am    1  <O>11      -0.2974
  22 C17      -5.2400    -0.1020    -5.9950  C.3     1  <O>11       0.0173
  23 C18      -4.5440    -0.8190    -7.1450  C.3     1  <O>11      -0.0107
  24 C19      -5.1700    -0.4400    -8.4830  C.3     1  <O>11       0.0619
  25 O3       -6.5020    -0.9250    -8.5250  O.3     1  <O>11      -0.3732
  26 C20      -6.7643    -1.4775    -9.8049  C.3     1  <O>11       0.0591
  27 C21      -6.8955    -2.9048    -9.7725  C.3     1  <O>11      -0.0265
  28 C22      -8.4020    -2.5961    -9.6719  C.3     1  <O>11      -0.0484
  29 C23      -8.0947    -1.2053   -10.2615  C.3     1  <O>11      -0.0265
  30 C24      -5.1840     1.0730    -8.6690  C.3     1  <O>11      -0.0107
  31 C25      -5.8260     1.7840    -7.4820  C.3     1  <O>11       0.0173
  32 H1       -6.1212     6.5598    -3.1992  H       1  <O>11       0.0377
  33 H2       -5.9543     7.8649    -4.3983  H       1  <O>11       0.0377
  34 H3       -1.4713     9.2032    -3.9210  H       1  <O>11       0.1921
  35 H4       -4.7260    -0.3420    -5.0640  H       1  <O>11       0.0465
  36 H5       -6.2740    -0.4420    -5.9380  H       1  <O>11       0.0465
  37 H6       -3.4900    -0.5410    -7.1530  H       1  <O>11       0.0305
  38 H7       -4.6340    -1.8960    -7.0000  H       1  <O>11       0.0305
  39 H8       -4.5920    -0.8930    -9.2880  H       1  <O>11       0.0597
  40 H9       -6.0026    -1.1419   -10.5080  H       1  <O>11       0.0596
  41 H10      -6.5820    -3.4235   -10.6787  H       1  <O>11       0.0290
  42 H11      -6.4589    -3.3947    -8.9022  H       1  <O>11       0.0290
  43 H12      -9.0348    -3.2252   -10.2985  H       1  <O>11       0.0267
  44 H13      -8.7945    -2.5825    -8.6560  H       1  <O>11       0.0267
  45 H14      -8.2118    -1.1180   -11.3415  H       1  <O>11       0.0290
  46 H15      -8.5964    -0.3693    -9.7728  H       1  <O>11       0.0290
  47 H16      -4.1580     1.4250    -8.7770  H       1  <O>11       0.0305
  48 H17      -5.7480     1.3130    -9.5710  H       1  <O>11       0.0305
  49 H18      -5.6930     2.8590    -7.6030  H       1  <O>11       0.0465
  50 H19      -6.8910     1.5490    -7.4660  H       1  <O>11       0.0465
  51 H20      -4.3129     3.4506    -7.6950  H       1  <O>11       0.0625
  52 H21      -4.3810     5.8161    -8.2378  H       1  <O>11       0.0618
  53 H22      -4.9055     7.4497    -6.5137  H       1  <O>11       0.0620
  54 H23      -1.4792     7.1998     0.3419  H       1  <O>11       0.0625
  55 H24      -3.0663     5.8738     1.5993  H       1  <O>11       0.0618
  56 H25      -5.1955     5.2707     0.6109  H       1  <O>11       0.0618
  57 H26      -5.7369     5.9964    -1.6351  H       1  <O>11       0.0624
  58 H27      -5.3003     4.3465    -3.6920  H       1  <O>11       0.0628
@<TRIPOS>BOND
     1     1     2    2
     2     2     3    1
     3     3     4   ar
     4     4     5   ar
     5     5     6   ar
     6     6     7   ar
     7     7     8    1
     8     8     9    1
     9     9    10   ar
    10    10    11   ar
    11    11    12   ar
    12    12    13    2
    13    12    14   ar
    14    14    15   ar
    15    15    16   ar
    16    16    17   ar
    17    17    18   ar
    18    18    19   ar
    19     9    19   ar
    20    14    19   ar
    21     7    20   ar
    22     3    20   ar
    23     2    21   am
    24    21    22    1
    25    22    23    1
    26    23    24    1
    27    24    25    1
    28    25    26    1
    29    26    27    1
    30    27    28    1
    31    28    29    1
    32    26    29    1
    33    24    30    1
    34    30    31    1
    35    21    31    1
    36     8    32    1
    37     8    33    1
    38    11    34    1
    39    22    35    1
    40    22    36    1
    41    23    37    1
    42    23    38    1
    43    24    39    1
    44    26    40    1
    45    27    41    1
    46    27    42    1
    47    28    43    1
    48    28    44    1
    49    29    45    1
    50    29    46    1
    51    30    47    1
    52    30    48    1
    53    31    49    1
    54    31    50    1
    55     4    51    1
    56     5    52    1
    57     6    53    1
    58    15    54    1
    59    16    55    1
    60    17    56    1
    61    18    57    1
    62    20    58    1
@<TRIPOS>MOLECULE
mol96_1_27
 58 62 0 0 0
SMALL
USER_CHARGES
****
VDW energy = 48.04
@<TRIPOS>ATOM
   1 O1       -4.2425     1.9267    -4.2583  O.2     1  <O>11      -0.2700
   2 C1       -4.7326     2.2891    -5.3174  C.2     1  <O>11       0.2466
   3 C2       -4.7890     3.7070    -5.6470  C.ar    1  <O>11       0.0372
   4 C3       -4.5326     4.1406    -6.9596  C.ar    1  <O>11      -0.0496
   5 C4       -4.5741     5.5039    -7.2733  C.ar    1  <O>11      -0.0608
   6 C5       -4.8763     6.4440    -6.2839  C.ar    1  <O>11      -0.0582
   7 C6       -5.1387     6.0112    -4.9804  C.ar    1  <O>11      -0.0408
   8 C7       -5.4591     7.0082    -3.9400  C.3     1  <O>11       0.0171
   9 C8       -6.6802     7.7593    -4.3320  C.ar    1  <O>11       0.0736
  10 N1       -7.9300     7.1316    -4.2869  N.ar    1  <O>11      -0.1750
  11 N2       -9.0353     7.7676    -4.7391  N.ar    1  <O>11      -0.2425
  12 C9       -8.9203     9.0259    -5.2259  C.ar    1  <O>11       0.2725
  13 O2      -10.0878     9.5929    -5.7700  O.2     1  <O>11      -0.2658
  14 C10      -7.7254     9.7608    -5.2106  C.ar    1  <O>11       0.0496
  15 C11      -7.6134    11.0959    -5.6637  C.ar    1  <O>11      -0.0487
  16 C12      -6.3854    11.7590    -5.6496  C.ar    1  <O>11      -0.0610
  17 C13      -5.2482    11.1028    -5.1925  C.ar    1  <O>11      -0.0611
  18 C14      -5.3381     9.7823    -4.7479  C.ar    1  <O>11      -0.0521
  19 C15      -6.5754     9.0982    -4.7467  C.ar    1  <O>11       0.0106
  20 C16      -5.1004     4.6539    -4.6566  C.ar    1  <O>11      -0.0461
  21 N3       -5.2250     1.3690    -6.1880  N.am    1  <O>11      -0.2974
  22 C17      -5.2400    -0.1020    -5.9950  C.3     1  <O>11       0.0173
  23 C18      -4.5440    -0.8190    -7.1450  C.3     1  <O>11      -0.0107
  24 C19      -5.1700    -0.4400    -8.4830  C.3     1  <O>11       0.0619
  25 O3       -6.5020    -0.9250    -8.5250  O.3     1  <O>11      -0.3732
  26 C20      -6.7643    -1.4775    -9.8049  C.3     1  <O>11       0.0591
  27 C21      -6.8955    -2.9048    -9.7725  C.3     1  <O>11      -0.0265
  28 C22      -8.4020    -2.5961    -9.6719  C.3     1  <O>11      -0.0484
  29 C23      -8.0947    -1.2053   -10.2615  C.3     1  <O>11      -0.0265
  30 C24      -5.1840     1.0730    -8.6690  C.3     1  <O>11      -0.0107
  31 C25      -5.8260     1.7840    -7.4820  C.3     1  <O>11       0.0173
  32 H1       -4.6245     7.7010    -3.8319  H       1  <O>11       0.0377
  33 H2       -5.6340     6.4996    -2.9914  H       1  <O>11       0.0377
  34 H3       -9.9350     7.3090    -4.7123  H       1  <O>11       0.1921
  35 H4       -4.7260    -0.3420    -5.0640  H       1  <O>11       0.0465
  36 H5       -6.2740    -0.4420    -5.9380  H       1  <O>11       0.0465
  37 H6       -3.4900    -0.5410    -7.1530  H       1  <O>11       0.0305
  38 H7       -4.6340    -1.8960    -7.0000  H       1  <O>11       0.0305
  39 H8       -4.5920    -0.8930    -9.2880  H       1  <O>11       0.0597
  40 H9       -6.0026    -1.1419   -10.5080  H       1  <O>11       0.0596
  41 H10      -6.5820    -3.4235   -10.6787  H       1  <O>11       0.0290
  42 H11      -6.4589    -3.3947    -8.9022  H       1  <O>11       0.0290
  43 H12      -9.0348    -3.2252   -10.2985  H       1  <O>11       0.0267
  44 H13      -8.7945    -2.5825    -8.6560  H       1  <O>11       0.0267
  45 H14      -8.2118    -1.1180   -11.3415  H       1  <O>11       0.0290
  46 H15      -8.5964    -0.3693    -9.7728  H       1  <O>11       0.0290
  47 H16      -4.1580     1.4250    -8.7770  H       1  <O>11       0.0305
  48 H17      -5.7480     1.3130    -9.5710  H       1  <O>11       0.0305
  49 H18      -5.6930     2.8590    -7.6030  H       1  <O>11       0.0465
  50 H19      -6.8910     1.5490    -7.4660  H       1  <O>11       0.0465
  51 H20      -4.3129     3.4506    -7.6950  H       1  <O>11       0.0625
  52 H21      -4.3810     5.8161    -8.2378  H       1  <O>11       0.0618
  53 H22      -4.9055     7.4497    -6.5137  H       1  <O>11       0.0620
  54 H23      -8.4523    11.5872    -6.0099  H       1  <O>11       0.0625
  55 H24      -6.3216    12.7352    -5.9781  H       1  <O>11       0.0618
  56 H25      -4.3390    11.5910    -5.1818  H       1  <O>11       0.0618
  57 H26      -4.4892     9.2988    -4.4154  H       1  <O>11       0.0624
  58 H27      -5.3003     4.3465    -3.6920  H       1  <O>11       0.0628
@<TRIPOS>BOND
     1     1     2    2
     2     2     3    1
     3     3     4   ar
     4     4     5   ar
     5     5     6   ar
     6     6     7   ar
     7     7     8    1
     8     8     9    1
     9     9    10   ar
    10    10    11   ar
    11    11    12   ar
    12    12    13    2
    13    12    14   ar
    14    14    15   ar
    15    15    16   ar
    16    16    17   ar
    17    17    18   ar
    18    18    19   ar
    19     9    19   ar
    20    14    19   ar
    21     7    20   ar
    22     3    20   ar
    23     2    21   am
    24    21    22    1
    25    22    23    1
    26    23    24    1
    27    24    25    1
    28    25    26    1
    29    26    27    1
    30    27    28    1
    31    28    29    1
    32    26    29    1
    33    24    30    1
    34    30    31    1
    35    21    31    1
    36     8    32    1
    37     8    33    1
    38    11    34    1
    39    22    35    1
    40    22    36    1
    41    23    37    1
    42    23    38    1
    43    24    39    1
    44    26    40    1
    45    27    41    1
    46    27    42    1
    47    28    43    1
    48    28    44    1
    49    29    45    1
    50    29    46    1
    51    30    47    1
    52    30    48    1
    53    31    49    1
    54    31    50    1
    55     4    51    1
    56     5    52    1
    57     6    53    1
    58    15    54    1
    59    16    55    1
    60    17    56    1
    61    18    57    1
    62    20    58    1
@<TRIPOS>MOLECULE
mol96_1_28
 58 62 0 0 0
SMALL
USER_CHARGES
****
VDW energy = 54.53
@<TRIPOS>ATOM
   1 O1       -4.2425     1.9267    -4.2583  O.2     1  <O>11      -0.2700
   2 C1       -4.7326     2.2891    -5.3174  C.2     1  <O>11       0.2466
   3 C2       -4.7890     3.7070    -5.6470  C.ar    1  <O>11       0.0372
   4 C3       -5.9052     4.4773    -5.2763  C.ar    1  <O>11      -0.0496
   5 C4       -5.9651     5.8365    -5.6044  C.ar    1  <O>11      -0.0608
   6 C5       -4.9121     6.4392    -6.2987  C.ar    1  <O>11      -0.0582
   7 C6       -3.7989     5.6740    -6.6602  C.ar    1  <O>11      -0.0408
   8 C7       -2.6890     6.3160    -7.3916  C.3     1  <O>11       0.0171
   9 C8       -1.7002     6.8531    -6.4207  C.ar    1  <O>11       0.0736
  10 N1       -0.8801     5.9758    -5.7025  N.ar    1  <O>11      -0.1750
  11 N2       -0.0499     6.4423    -4.7413  N.ar    1  <O>11      -0.2425
  12 C9       -0.0127     7.7722    -4.4897  C.ar    1  <O>11       0.2725
  13 O2        0.7968     8.1805    -3.4133  O.2     1  <O>11      -0.2658
  14 C10      -0.7244     8.7258    -5.2327  C.ar    1  <O>11       0.0496
  15 C11      -0.6433    10.1204    -5.0119  C.ar    1  <O>11      -0.0487
  16 C12      -1.4039    11.0133    -5.7683  C.ar    1  <O>11      -0.0610
  17 C13      -2.2628    10.5335    -6.7504  C.ar    1  <O>11      -0.0611
  18 C14      -2.3614     9.1594    -6.9779  C.ar    1  <O>11      -0.0521
  19 C15      -1.5919     8.2411    -6.2274  C.ar    1  <O>11       0.0106
  20 C16      -3.7287     4.3176    -6.3377  C.ar    1  <O>11      -0.0461
  21 N3       -5.2250     1.3690    -6.1880  N.am    1  <O>11      -0.2974
  22 C17      -5.8467     1.6516    -7.5052  C.3     1  <O>11       0.0173
  23 C18      -7.2453     1.0547    -7.5974  C.3     1  <O>11      -0.0107
  24 C19      -7.2181    -0.4446    -7.3197  C.3     1  <O>11       0.0619
  25 O3       -6.4934    -1.0936    -8.3517  O.3     1  <O>11      -0.3732
  26 C20      -7.1649    -2.2866    -8.7232  C.3     1  <O>11       0.0591
  27 C21      -8.5885    -2.1249    -8.7734  C.3     1  <O>11      -0.0265
  28 C22      -8.3394    -1.8780   -10.2740  C.3     1  <O>11      -0.0484
  29 C23      -6.9920    -2.6087   -10.1086  C.3     1  <O>11      -0.0265
  30 C24      -6.5512    -0.7389    -5.9809  C.3     1  <O>11      -0.0107
  31 C25      -5.1781    -0.0829    -5.8754  C.3     1  <O>11       0.0173
  32 H1       -3.0795     7.1305    -8.0018  H       1  <O>11       0.0377
  33 H2       -2.2045     5.5806    -8.0347  H       1  <O>11       0.0377
  34 H3        0.5353     5.8055    -4.2192  H       1  <O>11       0.1921
  35 H4       -5.9118     2.7313    -7.6414  H       1  <O>11       0.0465
  36 H5       -5.2247     1.2225    -8.2907  H       1  <O>11       0.0465
  37 H6       -7.8898     1.5413    -6.8652  H       1  <O>11       0.0305
  38 H7       -7.6405     1.2261    -8.5991  H       1  <O>11       0.0305
  39 H8       -8.2401    -0.8220    -7.2997  H       1  <O>11       0.0597
  40 H9       -6.8575    -3.0968    -8.0627  H       1  <O>11       0.0596
  41 H10      -9.1687    -3.0163    -8.5342  H       1  <O>11       0.0290
  42 H11      -8.9820    -1.2736    -8.2179  H       1  <O>11       0.0290
  43 H12      -9.0473    -2.3757   -10.9373  H       1  <O>11       0.0267
  44 H13      -8.2560    -0.8284   -10.5524  H       1  <O>11       0.0267
  45 H14      -7.0031    -3.6717   -10.3484  H       1  <O>11       0.0290
  46 H15      -6.1402    -2.1346   -10.5975  H       1  <O>11       0.0290
  47 H16      -7.1850    -0.3589    -5.1796  H       1  <O>11       0.0305
  48 H17      -6.4357    -1.8179    -5.8731  H       1  <O>11       0.0305
  49 H18      -4.8045    -0.2122    -4.8597  H       1  <O>11       0.0465
  50 H19      -4.5007    -0.5715    -6.5769  H       1  <O>11       0.0465
  51 H20      -6.6838     4.0385    -4.7601  H       1  <O>11       0.0625
  52 H21      -6.7890     6.3955    -5.3330  H       1  <O>11       0.0618
  53 H22      -4.9560     7.4410    -6.5426  H       1  <O>11       0.0620
  54 H23      -0.0122    10.4833    -4.2804  H       1  <O>11       0.0625
  55 H24      -1.3289    12.0285    -5.5987  H       1  <O>11       0.0618
  56 H25      -2.8267    11.1919    -7.3106  H       1  <O>11       0.0618
  57 H26      -3.0053     8.8091    -7.7044  H       1  <O>11       0.0624
  58 H27      -2.8998     3.7645    -6.6061  H       1  <O>11       0.0628
@<TRIPOS>BOND
     1     1     2    2
     2     2     3    1
     3     3     4   ar
     4     4     5   ar
     5     5     6   ar
     6     6     7   ar
     7     7     8    1
     8     8     9    1
     9     9    10   ar
    10    10    11   ar
    11    11    12   ar
    12    12    13    2
    13    12    14   ar
    14    14    15   ar
    15    15    16   ar
    16    16    17   ar
    17    17    18   ar
    18    18    19   ar
    19     9    19   ar
    20    14    19   ar
    21     7    20   ar
    22     3    20   ar
    23     2    21   am
    24    21    22    1
    25    22    23    1
    26    23    24    1
    27    24    25    1
    28    25    26    1
    29    26    27    1
    30    27    28    1
    31    28    29    1
    32    26    29    1
    33    24    30    1
    34    30    31    1
    35    21    31    1
    36     8    32    1
    37     8    33    1
    38    11    34    1
    39    22    35    1
    40    22    36    1
    41    23    37    1
    42    23    38    1
    43    24    39    1
    44    26    40    1
    45    27    41    1
    46    27    42    1
    47    28    43    1
    48    28    44    1
    49    29    45    1
    50    29    46    1
    51    30    47    1
    52    30    48    1
    53    31    49    1
    54    31    50    1
    55     4    51    1
    56     5    52    1
    57     6    53    1
    58    15    54    1
    59    16    55    1
    60    17    56    1
    61    18    57    1
    62    20    58    1
@<TRIPOS>MOLECULE
mol96_1_29
 58 62 0 0 0
SMALL
USER_CHARGES
****
VDW energy = 55.29
@<TRIPOS>ATOM
   1 O1       -4.2425     1.9267    -4.2583  O.2     1  <O>11      -0.2700
   2 C1       -4.7326     2.2891    -5.3174  C.2     1  <O>11       0.2466
   3 C2       -4.7890     3.7070    -5.6470  C.ar    1  <O>11       0.0372
   4 C3       -5.9052     4.4773    -5.2763  C.ar    1  <O>11      -0.0496
   5 C4       -5.9651     5.8365    -5.6044  C.ar    1  <O>11      -0.0608
   6 C5       -4.9121     6.4392    -6.2987  C.ar    1  <O>11      -0.0582
   7 C6       -3.7989     5.6740    -6.6602  C.ar    1  <O>11      -0.0408
   8 C7       -2.6890     6.3160    -7.3916  C.3     1  <O>11       0.0171
   9 C8       -3.1936     6.8634    -8.6779  C.ar    1  <O>11       0.0736
  10 N1       -4.5438     6.7192    -9.0158  N.ar    1  <O>11      -0.1750
  11 N2       -4.9958     7.1189   -10.2268  N.ar    1  <O>11      -0.2425
  12 C9       -4.1273     7.6723   -11.1059  C.ar    1  <O>11       0.2725
  13 O2       -4.6395     7.9754   -12.3812  O.2     1  <O>11      -0.2658
  14 C10      -2.7842     7.9455   -10.8068  C.ar    1  <O>11       0.0496
  15 C11      -1.8885     8.5769   -11.7008  C.ar    1  <O>11      -0.0487
  16 C12      -0.5545     8.7905   -11.3504  C.ar    1  <O>11      -0.0610
  17 C13      -0.0881     8.3727   -10.1092  C.ar    1  <O>11      -0.0611
  18 C14      -0.9561     7.7412    -9.2162  C.ar    1  <O>11      -0.0521
  19 C15      -2.3125     7.5246    -9.5509  C.ar    1  <O>11       0.0106
  20 C16      -3.7287     4.3176    -6.3377  C.ar    1  <O>11      -0.0461
  21 N3       -5.2250     1.3690    -6.1880  N.am    1  <O>11      -0.2974
  22 C17      -5.8467     1.6516    -7.5052  C.3     1  <O>11       0.0173
  23 C18      -7.2453     1.0547    -7.5974  C.3     1  <O>11      -0.0107
  24 C19      -7.2181    -0.4446    -7.3197  C.3     1  <O>11       0.0619
  25 O3       -6.4934    -1.0936    -8.3517  O.3     1  <O>11      -0.3732
  26 C20      -7.1649    -2.2866    -8.7232  C.3     1  <O>11       0.0591
  27 C21      -8.5885    -2.1249    -8.7734  C.3     1  <O>11      -0.0265
  28 C22      -8.3394    -1.8780   -10.2740  C.3     1  <O>11      -0.0484
  29 C23      -6.9920    -2.6087   -10.1086  C.3     1  <O>11      -0.0265
  30 C24      -6.5512    -0.7389    -5.9809  C.3     1  <O>11      -0.0107
  31 C25      -5.1781    -0.0829    -5.8754  C.3     1  <O>11       0.0173
  32 H1       -1.9107     5.5791    -7.5899  H       1  <O>11       0.0377
  33 H2       -2.2771     7.1258    -6.7886  H       1  <O>11       0.0377
  34 H3       -5.9697     7.0064   -10.4708  H       1  <O>11       0.1921
  35 H4       -5.9118     2.7313    -7.6414  H       1  <O>11       0.0465
  36 H5       -5.2247     1.2225    -8.2907  H       1  <O>11       0.0465
  37 H6       -7.8898     1.5413    -6.8652  H       1  <O>11       0.0305
  38 H7       -7.6405     1.2261    -8.5991  H       1  <O>11       0.0305
  39 H8       -8.2401    -0.8220    -7.2997  H       1  <O>11       0.0597
  40 H9       -6.8575    -3.0968    -8.0627  H       1  <O>11       0.0596
  41 H10      -9.1687    -3.0163    -8.5342  H       1  <O>11       0.0290
  42 H11      -8.9820    -1.2736    -8.2179  H       1  <O>11       0.0290
  43 H12      -9.0473    -2.3757   -10.9373  H       1  <O>11       0.0267
  44 H13      -8.2560    -0.8284   -10.5524  H       1  <O>11       0.0267
  45 H14      -7.0031    -3.6717   -10.3484  H       1  <O>11       0.0290
  46 H15      -6.1402    -2.1346   -10.5975  H       1  <O>11       0.0290
  47 H16      -7.1850    -0.3589    -5.1796  H       1  <O>11       0.0305
  48 H17      -6.4357    -1.8179    -5.8731  H       1  <O>11       0.0305
  49 H18      -4.8045    -0.2122    -4.8597  H       1  <O>11       0.0465
  50 H19      -4.5007    -0.5715    -6.5769  H       1  <O>11       0.0465
  51 H20      -6.6838     4.0385    -4.7601  H       1  <O>11       0.0625
  52 H21      -6.7890     6.3955    -5.3330  H       1  <O>11       0.0618
  53 H22      -4.9560     7.4410    -6.5426  H       1  <O>11       0.0620
  54 H23      -2.2263     8.8844   -12.6261  H       1  <O>11       0.0625
  55 H24       0.0849     9.2581   -12.0118  H       1  <O>11       0.0618
  56 H25       0.8980     8.5291    -9.8482  H       1  <O>11       0.0618
  57 H26      -0.6023     7.4280    -8.2987  H       1  <O>11       0.0624
  58 H27      -2.8998     3.7645    -6.6061  H       1  <O>11       0.0628
@<TRIPOS>BOND
     1     1     2    2
     2     2     3    1
     3     3     4   ar
     4     4     5   ar
     5     5     6   ar
     6     6     7   ar
     7     7     8    1
     8     8     9    1
     9     9    10   ar
    10    10    11   ar
    11    11    12   ar
    12    12    13    2
    13    12    14   ar
    14    14    15   ar
    15    15    16   ar
    16    16    17   ar
    17    17    18   ar
    18    18    19   ar
    19     9    19   ar
    20    14    19   ar
    21     7    20   ar
    22     3    20   ar
    23     2    21   am
    24    21    22    1
    25    22    23    1
    26    23    24    1
    27    24    25    1
    28    25    26    1
    29    26    27    1
    30    27    28    1
    31    28    29    1
    32    26    29    1
    33    24    30    1
    34    30    31    1
    35    21    31    1
    36     8    32    1
    37     8    33    1
    38    11    34    1
    39    22    35    1
    40    22    36    1
    41    23    37    1
    42    23    38    1
    43    24    39    1
    44    26    40    1
    45    27    41    1
    46    27    42    1
    47    28    43    1
    48    28    44    1
    49    29    45    1
    50    29    46    1
    51    30    47    1
    52    30    48    1
    53    31    49    1
    54    31    50    1
    55     4    51    1
    56     5    52    1
    57     6    53    1
    58    15    54    1
    59    16    55    1
    60    17    56    1
    61    18    57    1
    62    20    58    1
@<TRIPOS>MOLECULE
mol96_1_30
 58 62 0 0 0
SMALL
USER_CHARGES
****
VDW energy = 55.48
@<TRIPOS>ATOM
   1 O1       -4.2425     1.9267    -4.2583  O.2     1  <O>11      -0.2700
   2 C1       -4.7326     2.2891    -5.3174  C.2     1  <O>11       0.2466
   3 C2       -4.7890     3.7070    -5.6470  C.ar    1  <O>11       0.0372
   4 C3       -4.5326     4.1406    -6.9596  C.ar    1  <O>11      -0.0496
   5 C4       -4.5741     5.5039    -7.2733  C.ar    1  <O>11      -0.0608
   6 C5       -4.8763     6.4440    -6.2839  C.ar    1  <O>11      -0.0582
   7 C6       -5.1387     6.0112    -4.9804  C.ar    1  <O>11      -0.0408
   8 C7       -5.4591     7.0082    -3.9400  C.3     1  <O>11       0.0171
   9 C8       -6.4901     6.4549    -3.0236  C.ar    1  <O>11       0.0736
  10 N1       -6.1493     5.4424    -2.1198  N.ar    1  <O>11      -0.1750
  11 N2       -7.0984     4.8570    -1.3535  N.ar    1  <O>11      -0.2425
  12 C9       -8.3829     5.2711    -1.4624  C.ar    1  <O>11       0.2725
  13 O2       -9.3342     4.5560    -0.7113  O.2     1  <O>11      -0.2658
  14 C10      -8.7891     6.3465    -2.2665  C.ar    1  <O>11       0.0496
  15 C11     -10.1197     6.8204    -2.3386  C.ar    1  <O>11      -0.0487
  16 C12     -10.4617     7.8765    -3.1845  C.ar    1  <O>11      -0.0610
  17 C13      -9.4882     8.4727    -3.9779  C.ar    1  <O>11      -0.0611
  18 C14      -8.1706     8.0136    -3.9254  C.ar    1  <O>11      -0.0521
  19 C15      -7.8045     6.9510    -3.0677  C.ar    1  <O>11       0.0106
  20 C16      -5.1004     4.6539    -4.6566  C.ar    1  <O>11      -0.0461
  21 N3       -5.2250     1.3690    -6.1880  N.am    1  <O>11      -0.2974
  22 C17      -5.2400    -0.1020    -5.9950  C.3     1  <O>11       0.0173
  23 C18      -4.5440    -0.8190    -7.1450  C.3     1  <O>11      -0.0107
  24 C19      -5.1700    -0.4400    -8.4830  C.3     1  <O>11       0.0619
  25 O3       -6.5020    -0.9250    -8.5250  O.3     1  <O>11      -0.3732
  26 C20      -6.7643    -1.4775    -9.8049  C.3     1  <O>11       0.0591
  27 C21      -6.8955    -2.9048    -9.7725  C.3     1  <O>11      -0.0265
  28 C22      -8.4020    -2.5961    -9.6719  C.3     1  <O>11      -0.0484
  29 C23      -8.0947    -1.2053   -10.2615  C.3     1  <O>11      -0.0265
  30 C24      -5.1840     1.0730    -8.6690  C.3     1  <O>11      -0.0107
  31 C25      -5.8260     1.7840    -7.4820  C.3     1  <O>11       0.0173
  32 H1       -5.8394     7.9148    -4.4109  H       1  <O>11       0.0377
  33 H2       -4.5578     7.2440    -3.3732  H       1  <O>11       0.0377
  34 H3       -6.8505     4.1210    -0.7075  H       1  <O>11       0.1921
  35 H4       -4.7260    -0.3420    -5.0640  H       1  <O>11       0.0465
  36 H5       -6.2740    -0.4420    -5.9380  H       1  <O>11       0.0465
  37 H6       -3.4900    -0.5410    -7.1530  H       1  <O>11       0.0305
  38 H7       -4.6340    -1.8960    -7.0000  H       1  <O>11       0.0305
  39 H8       -4.5920    -0.8930    -9.2880  H       1  <O>11       0.0597
  40 H9       -6.0026    -1.1419   -10.5080  H       1  <O>11       0.0596
  41 H10      -6.5820    -3.4235   -10.6787  H       1  <O>11       0.0290
  42 H11      -6.4589    -3.3947    -8.9022  H       1  <O>11       0.0290
  43 H12      -9.0348    -3.2252   -10.2985  H       1  <O>11       0.0267
  44 H13      -8.7945    -2.5825    -8.6560  H       1  <O>11       0.0267
  45 H14      -8.2118    -1.1180   -11.3415  H       1  <O>11       0.0290
  46 H15      -8.5964    -0.3693    -9.7728  H       1  <O>11       0.0290
  47 H16      -4.1580     1.4250    -8.7770  H       1  <O>11       0.0305
  48 H17      -5.7480     1.3130    -9.5710  H       1  <O>11       0.0305
  49 H18      -5.6930     2.8590    -7.6030  H       1  <O>11       0.0465
  50 H19      -6.8910     1.5490    -7.4660  H       1  <O>11       0.0465
  51 H20      -4.3129     3.4506    -7.6950  H       1  <O>11       0.0625
  52 H21      -4.3810     5.8161    -8.2378  H       1  <O>11       0.0618
  53 H22      -4.9055     7.4497    -6.5137  H       1  <O>11       0.0620
  54 H23     -10.8488     6.3787    -1.7568  H       1  <O>11       0.0625
  55 H24     -11.4361     8.2144    -3.2211  H       1  <O>11       0.0618
  56 H25      -9.7390     9.2533    -4.6046  H       1  <O>11       0.0618
  57 H26      -7.4537     8.4565    -4.5212  H       1  <O>11       0.0624
  58 H27      -5.3003     4.3465    -3.6920  H       1  <O>11       0.0628
@<TRIPOS>BOND
     1     1     2    2
     2     2     3    1
     3     3     4   ar
     4     4     5   ar
     5     5     6   ar
     6     6     7   ar
     7     7     8    1
     8     8     9    1
     9     9    10   ar
    10    10    11   ar
    11    11    12   ar
    12    12    13    2
    13    12    14   ar
    14    14    15   ar
    15    15    16   ar
    16    16    17   ar
    17    17    18   ar
    18    18    19   ar
    19     9    19   ar
    20    14    19   ar
    21     7    20   ar
    22     3    20   ar
    23     2    21   am
    24    21    22    1
    25    22    23    1
    26    23    24    1
    27    24    25    1
    28    25    26    1
    29    26    27    1
    30    27    28    1
    31    28    29    1
    32    26    29    1
    33    24    30    1
    34    30    31    1
    35    21    31    1
    36     8    32    1
    37     8    33    1
    38    11    34    1
    39    22    35    1
    40    22    36    1
    41    23    37    1
    42    23    38    1
    43    24    39    1
    44    26    40    1
    45    27    41    1
    46    27    42    1
    47    28    43    1
    48    28    44    1
    49    29    45    1
    50    29    46    1
    51    30    47    1
    52    30    48    1
    53    31    49    1
    54    31    50    1
    55     4    51    1
    56     5    52    1
    57     6    53    1
    58    15    54    1
    59    16    55    1
    60    17    56    1
    61    18    57    1
    62    20    58    1
@<TRIPOS>MOLECULE
mol96_2_1
 58 62 0 0 0
SMALL
USER_CHARGES
****
VDW energy = 7.12
@<TRIPOS>ATOM
   1 O1       -4.2425     1.9267    -4.2583  O.2     1  <O>11      -0.2700
   2 C1       -4.7326     2.2891    -5.3174  C.2     1  <O>11       0.2466
   3 C2       -4.7890     3.7070    -5.6470  C.ar    1  <O>11       0.0372
   4 C3       -3.7277     4.3170    -6.3385  C.ar    1  <O>11      -0.0496
   5 C4       -3.7762     5.6820    -6.6437  C.ar    1  <O>11      -0.0608
   6 C5       -4.8835     6.4476    -6.2675  C.ar    1  <O>11      -0.0582
   7 C6       -5.9421     5.8384    -5.5865  C.ar    1  <O>11      -0.0408
   8 C7       -7.1099     6.6512    -5.1933  C.3     1  <O>11       0.0171
   9 C8       -6.8853     7.2191    -3.8383  C.ar    1  <O>11       0.0736
  10 N1       -5.5863     7.3088    -3.3259  N.ar    1  <O>11      -0.1750
  11 N2       -5.3756     7.7256    -2.0560  N.ar    1  <O>11      -0.2425
  12 C9       -6.4375     8.0672    -1.2885  C.ar    1  <O>11       0.2725
  13 O2       -6.1582     8.3971     0.0508  O.2     1  <O>11      -0.2658
  14 C10      -7.7588     8.1035    -1.7585  C.ar    1  <O>11       0.0496
  15 C11      -8.8638     8.5160    -0.9781  C.ar    1  <O>11      -0.0487
  16 C12     -10.1584     8.4979    -1.4991  C.ar    1  <O>11      -0.0610
  17 C13     -10.3759     8.0621    -2.8012  C.ar    1  <O>11      -0.0611
  18 C14      -9.2981     7.6444    -3.5844  C.ar    1  <O>11      -0.0521
  19 C15      -7.9790     7.6644    -3.0760  C.ar    1  <O>11       0.0106
  20 C16      -5.9043     4.4776    -5.2773  C.ar    1  <O>11      -0.0461
  21 N3       -5.2250     1.3690    -6.1880  N.am    1  <O>11      -0.2974
  22 C17      -5.8467     1.6516    -7.5052  C.3     1  <O>11       0.0173
  23 C18      -7.2453     1.0547    -7.5974  C.3     1  <O>11      -0.0107
  24 C19      -7.2181    -0.4446    -7.3197  C.3     1  <O>11       0.0619
  25 O3       -8.5479    -0.9353    -7.2943  O.3     1  <O>11      -0.3732
  26 C20      -8.6077    -2.1755    -7.9794  C.3     1  <O>11       0.0591
  27 C21      -8.8877    -2.0208    -9.3766  C.3     1  <O>11      -0.0265
  28 C22      -9.7741    -3.2627    -9.1646  C.3     1  <O>11      -0.0484
  29 C23      -9.7884    -2.9249    -7.6625  C.3     1  <O>11      -0.0265
  30 C24      -6.5512    -0.7389    -5.9809  C.3     1  <O>11      -0.0107
  31 C25      -5.1781    -0.0829    -5.8754  C.3     1  <O>11       0.0173
  32 H1       -8.0014     6.0241    -5.1820  H       1  <O>11       0.0377
  33 H2       -7.2455     7.4622    -5.9095  H       1  <O>11       0.0377
  34 H3       -4.4371     7.7820    -1.6864  H       1  <O>11       0.1921
  35 H4       -5.9118     2.7313    -7.6414  H       1  <O>11       0.0465
  36 H5       -5.2247     1.2225    -8.2907  H       1  <O>11       0.0465
  37 H6       -7.8898     1.5413    -6.8652  H       1  <O>11       0.0305
  38 H7       -7.6405     1.2261    -8.5991  H       1  <O>11       0.0305
  39 H8       -6.6614    -0.9441    -8.1131  H       1  <O>11       0.0597
  40 H9       -7.6916    -2.7370    -7.7948  H       1  <O>11       0.0596
  41 H10      -9.4175    -1.1094    -9.6503  H       1  <O>11       0.0290
  42 H11      -8.0373    -2.1613   -10.0429  H       1  <O>11       0.0290
  43 H12     -10.7488    -3.2119    -9.6495  H       1  <O>11       0.0267
  44 H13      -9.2943    -4.2095    -9.4113  H       1  <O>11       0.0267
  45 H14     -10.6396    -2.3354    -7.3235  H       1  <O>11       0.0290
  46 H15      -9.6402    -3.7703    -6.9911  H       1  <O>11       0.0290
  47 H16      -7.1850    -0.3589    -5.1796  H       1  <O>11       0.0305
  48 H17      -6.4357    -1.8179    -5.8731  H       1  <O>11       0.0305
  49 H18      -4.8045    -0.2122    -4.8597  H       1  <O>11       0.0465
  50 H19      -4.5007    -0.5715    -6.5769  H       1  <O>11       0.0465
  51 H20      -2.9094     3.7558    -6.6222  H       1  <O>11       0.0625
  52 H21      -2.9921     6.1247    -7.1479  H       1  <O>11       0.0618
  53 H22      -4.9196     7.4546    -6.4905  H       1  <O>11       0.0620
  54 H23      -8.7105     8.8352    -0.0087  H       1  <O>11       0.0625
  55 H24     -10.9534     8.8077    -0.9185  H       1  <O>11       0.0618
  56 H25     -11.3325     8.0474    -3.1883  H       1  <O>11       0.0618
  57 H26      -9.4668     7.3164    -4.5482  H       1  <O>11       0.0624
  58 H27      -6.6937     4.0385    -4.7783  H       1  <O>11       0.0628
@<TRIPOS>BOND
     1     1     2    2
     2     2     3    1
     3     3     4   ar
     4     4     5   ar
     5     5     6   ar
     6     6     7   ar
     7     7     8    1
     8     8     9    1
     9     9    10   ar
    10    10    11   ar
    11    11    12   ar
    12    12    13    2
    13    12    14   ar
    14    14    15   ar
    15    15    16   ar
    16    16    17   ar
    17    17    18   ar
    18    18    19   ar
    19     9    19   ar
    20    14    19   ar
    21     7    20   ar
    22     3    20   ar
    23     2    21   am
    24    21    22    1
    25    22    23    1
    26    23    24    1
    27    24    25    1
    28    25    26    1
    29    26    27    1
    30    27    28    1
    31    28    29    1
    32    26    29    1
    33    24    30    1
    34    30    31    1
    35    21    31    1
    36     8    32    1
    37     8    33    1
    38    11    34    1
    39    22    35    1
    40    22    36    1
    41    23    37    1
    42    23    38    1
    43    24    39    1
    44    26    40    1
    45    27    41    1
    46    27    42    1
    47    28    43    1
    48    28    44    1
    49    29    45    1
    50    29    46    1
    51    30    47    1
    52    30    48    1
    53    31    49    1
    54    31    50    1
    55     4    51    1
    56     5    52    1
    57     6    53    1
    58    15    54    1
    59    16    55    1
    60    17    56    1
    61    18    57    1
    62    20    58    1
@<TRIPOS>MOLECULE
mol96_2_2
 58 62 0 0 0
SMALL
USER_CHARGES
****
VDW energy = 7.44
@<TRIPOS>ATOM
   1 O1       -4.2425     1.9267    -4.2583  O.2     1  <O>11      -0.2700
   2 C1       -4.7326     2.2891    -5.3174  C.2     1  <O>11       0.2466
   3 C2       -4.7890     3.7070    -5.6470  C.ar    1  <O>11       0.0372
   4 C3       -3.7277     4.3170    -6.3385  C.ar    1  <O>11      -0.0496
   5 C4       -3.7762     5.6820    -6.6437  C.ar    1  <O>11      -0.0608
   6 C5       -4.8835     6.4476    -6.2675  C.ar    1  <O>11      -0.0582
   7 C6       -5.9421     5.8384    -5.5865  C.ar    1  <O>11      -0.0408
   8 C7       -7.1099     6.6512    -5.1933  C.3     1  <O>11       0.0171
   9 C8       -8.1192     6.6295    -6.2839  C.ar    1  <O>11       0.0736
  10 N1       -8.0866     5.6128    -7.2449  N.ar    1  <O>11      -0.1750
  11 N2       -8.9319     5.6378    -8.3010  N.ar    1  <O>11      -0.2425
  12 C9       -9.8202     6.6537    -8.4117  C.ar    1  <O>11       0.2725
  13 O2      -10.6019     6.6734    -9.5819  O.2     1  <O>11      -0.2658
  14 C10      -9.9862     7.6526    -7.4409  C.ar    1  <O>11       0.0496
  15 C11     -10.9526     8.6819    -7.5238  C.ar    1  <O>11      -0.0487
  16 C12     -11.0431     9.6640    -6.5363  C.ar    1  <O>11      -0.0610
  17 C13     -10.1693     9.6430    -5.4553  C.ar    1  <O>11      -0.0611
  18 C14      -9.2040     8.6386    -5.3601  C.ar    1  <O>11      -0.0521
  19 C15      -9.1038     7.6307    -6.3464  C.ar    1  <O>11       0.0106
  20 C16      -5.9043     4.4776    -5.2773  C.ar    1  <O>11      -0.0461
  21 N3       -5.2250     1.3690    -6.1880  N.am    1  <O>11      -0.2974
  22 C17      -5.8467     1.6516    -7.5052  C.3     1  <O>11       0.0173
  23 C18      -7.2453     1.0547    -7.5974  C.3     1  <O>11      -0.0107
  24 C19      -7.2181    -0.4446    -7.3197  C.3     1  <O>11       0.0619
  25 O3       -8.5479    -0.9353    -7.2943  O.3     1  <O>11      -0.3732
  26 C20      -8.9275    -1.3410    -8.5990  C.3     1  <O>11       0.0591
  27 C21     -10.3497    -1.4136    -8.7623  C.3     1  <O>11      -0.0265
  28 C22     -10.0231    -2.6824    -9.5724  C.3     1  <O>11      -0.0484
  29 C23      -8.6682    -2.7301    -8.8425  C.3     1  <O>11      -0.0265
  30 C24      -6.5512    -0.7389    -5.9809  C.3     1  <O>11      -0.0107
  31 C25      -5.1781    -0.0829    -5.8754  C.3     1  <O>11       0.0173
  32 H1       -6.7927     7.6780    -5.0111  H       1  <O>11       0.0377
  33 H2       -7.5488     6.2400    -4.2836  H       1  <O>11       0.0377
  34 H3       -8.9006     4.9064    -8.9972  H       1  <O>11       0.1921
  35 H4       -5.9118     2.7313    -7.6414  H       1  <O>11       0.0465
  36 H5       -5.2247     1.2225    -8.2907  H       1  <O>11       0.0465
  37 H6       -7.8898     1.5413    -6.8652  H       1  <O>11       0.0305
  38 H7       -7.6405     1.2261    -8.5991  H       1  <O>11       0.0305
  39 H8       -6.6614    -0.9441    -8.1131  H       1  <O>11       0.0597
  40 H9       -8.4536    -0.6901    -9.3341  H       1  <O>11       0.0596
  41 H10     -10.9186    -1.5762    -7.8478  H       1  <O>11       0.0290
  42 H11     -10.7981    -0.5989    -9.3296  H       1  <O>11       0.0290
  43 H12     -10.6769    -3.5304    -9.3695  H       1  <O>11       0.0267
  44 H13      -9.9525    -2.5273   -10.6487  H       1  <O>11       0.0267
  45 H14      -8.6364    -3.3624    -7.9558  H       1  <O>11       0.0290
  46 H15      -7.8045    -2.9418    -9.4722  H       1  <O>11       0.0290
  47 H16      -7.1850    -0.3589    -5.1796  H       1  <O>11       0.0305
  48 H17      -6.4357    -1.8179    -5.8731  H       1  <O>11       0.0305
  49 H18      -4.8045    -0.2122    -4.8597  H       1  <O>11       0.0465
  50 H19      -4.5007    -0.5715    -6.5769  H       1  <O>11       0.0465
  51 H20      -2.9094     3.7558    -6.6222  H       1  <O>11       0.0625
  52 H21      -2.9921     6.1247    -7.1479  H       1  <O>11       0.0618
  53 H22      -4.9196     7.4546    -6.4905  H       1  <O>11       0.0620
  54 H23     -11.6007     8.7071    -8.3265  H       1  <O>11       0.0625
  55 H24     -11.7578    10.4050    -6.6086  H       1  <O>11       0.0618
  56 H25     -10.2340    10.3686    -4.7242  H       1  <O>11       0.0618
  57 H26      -8.5544     8.6320    -4.5582  H       1  <O>11       0.0624
  58 H27      -6.6937     4.0385    -4.7783  H       1  <O>11       0.0628
@<TRIPOS>BOND
     1     1     2    2
     2     2     3    1
     3     3     4   ar
     4     4     5   ar
     5     5     6   ar
     6     6     7   ar
     7     7     8    1
     8     8     9    1
     9     9    10   ar
    10    10    11   ar
    11    11    12   ar
    12    12    13    2
    13    12    14   ar
    14    14    15   ar
    15    15    16   ar
    16    16    17   ar
    17    17    18   ar
    18    18    19   ar
    19     9    19   ar
    20    14    19   ar
    21     7    20   ar
    22     3    20   ar
    23     2    21   am
    24    21    22    1
    25    22    23    1
    26    23    24    1
    27    24    25    1
    28    25    26    1
    29    26    27    1
    30    27    28    1
    31    28    29    1
    32    26    29    1
    33    24    30    1
    34    30    31    1
    35    21    31    1
    36     8    32    1
    37     8    33    1
    38    11    34    1
    39    22    35    1
    40    22    36    1
    41    23    37    1
    42    23    38    1
    43    24    39    1
    44    26    40    1
    45    27    41    1
    46    27    42    1
    47    28    43    1
    48    28    44    1
    49    29    45    1
    50    29    46    1
    51    30    47    1
    52    30    48    1
    53    31    49    1
    54    31    50    1
    55     4    51    1
    56     5    52    1
    57     6    53    1
    58    15    54    1
    59    16    55    1
    60    17    56    1
    61    18    57    1
    62    20    58    1
@<TRIPOS>MOLECULE
mol96_2_3
 58 62 0 0 0
SMALL
USER_CHARGES
****
VDW energy = 9.30
@<TRIPOS>ATOM
   1 O1       -4.2425     1.9267    -4.2583  O.2     1  <O>11      -0.2700
   2 C1       -4.7326     2.2891    -5.3174  C.2     1  <O>11       0.2466
   3 C2       -4.7890     3.7070    -5.6470  C.ar    1  <O>11       0.0372
   4 C3       -3.7277     4.3170    -6.3385  C.ar    1  <O>11      -0.0496
   5 C4       -3.7762     5.6820    -6.6437  C.ar    1  <O>11      -0.0608
   6 C5       -4.8835     6.4476    -6.2675  C.ar    1  <O>11      -0.0582
   7 C6       -5.9421     5.8384    -5.5865  C.ar    1  <O>11      -0.0408
   8 C7       -7.1099     6.6512    -5.1933  C.3     1  <O>11       0.0171
   9 C8       -6.8853     7.2191    -3.8383  C.ar    1  <O>11       0.0736
  10 N1       -5.5863     7.3088    -3.3259  N.ar    1  <O>11      -0.1750
  11 N2       -5.3756     7.7256    -2.0560  N.ar    1  <O>11      -0.2425
  12 C9       -6.4375     8.0672    -1.2885  C.ar    1  <O>11       0.2725
  13 O2       -6.1582     8.3971     0.0508  O.2     1  <O>11      -0.2658
  14 C10      -7.7588     8.1035    -1.7585  C.ar    1  <O>11       0.0496
  15 C11      -8.8638     8.5160    -0.9781  C.ar    1  <O>11      -0.0487
  16 C12     -10.1584     8.4979    -1.4991  C.ar    1  <O>11      -0.0610
  17 C13     -10.3759     8.0621    -2.8012  C.ar    1  <O>11      -0.0611
  18 C14      -9.2981     7.6444    -3.5844  C.ar    1  <O>11      -0.0521
  19 C15      -7.9790     7.6644    -3.0760  C.ar    1  <O>11       0.0106
  20 C16      -5.9043     4.4776    -5.2773  C.ar    1  <O>11      -0.0461
  21 N3       -5.2250     1.3690    -6.1880  N.am    1  <O>11      -0.2974
  22 C17      -5.2400    -0.1020    -5.9950  C.3     1  <O>11       0.0173
  23 C18      -4.5440    -0.8190    -7.1450  C.3     1  <O>11      -0.0107
  24 C19      -5.1700    -0.4400    -8.4830  C.3     1  <O>11       0.0619
  25 O3       -4.4180    -1.0300    -9.5300  O.3     1  <O>11      -0.3732
  26 C20      -5.3002    -1.5502   -10.5110  C.3     1  <O>11       0.0591
  27 C21      -5.6671    -2.9121   -10.2561  C.3     1  <O>11      -0.0265
  28 C22      -5.5236    -3.0601   -11.7827  C.3     1  <O>11      -0.0484
  29 C23      -4.6496    -1.7926   -11.7655  C.3     1  <O>11      -0.0265
  30 C24      -5.1840     1.0730    -8.6690  C.3     1  <O>11      -0.0107
  31 C25      -5.8260     1.7840    -7.4820  C.3     1  <O>11       0.0173
  32 H1       -8.0014     6.0241    -5.1820  H       1  <O>11       0.0377
  33 H2       -7.2455     7.4622    -5.9095  H       1  <O>11       0.0377
  34 H3       -4.4371     7.7820    -1.6864  H       1  <O>11       0.1921
  35 H4       -4.7260    -0.3420    -5.0640  H       1  <O>11       0.0465
  36 H5       -6.2740    -0.4420    -5.9380  H       1  <O>11       0.0465
  37 H6       -3.4900    -0.5410    -7.1530  H       1  <O>11       0.0305
  38 H7       -4.6340    -1.8960    -7.0000  H       1  <O>11       0.0305
  39 H8       -6.1940    -0.8130    -8.5160  H       1  <O>11       0.0597
  40 H9       -6.1652    -0.8935   -10.6064  H       1  <O>11       0.0596
  41 H10      -4.9568    -3.4855    -9.6620  H       1  <O>11       0.0290
  42 H11      -6.6726    -3.0607    -9.8643  H       1  <O>11       0.0290
  43 H12      -5.0052    -3.9633   -12.1038  H       1  <O>11       0.0267
  44 H13      -6.4562    -2.9596   -12.3375  H       1  <O>11       0.0267
  45 H14      -3.5754    -1.9658   -11.7096  H       1  <O>11       0.0290
  46 H15      -4.8613    -1.0673   -12.5507  H       1  <O>11       0.0290
  47 H16      -4.1580     1.4250    -8.7770  H       1  <O>11       0.0305
  48 H17      -5.7480     1.3130    -9.5710  H       1  <O>11       0.0305
  49 H18      -5.6930     2.8590    -7.6030  H       1  <O>11       0.0465
  50 H19      -6.8910     1.5490    -7.4660  H       1  <O>11       0.0465
  51 H20      -2.9094     3.7558    -6.6222  H       1  <O>11       0.0625
  52 H21      -2.9921     6.1247    -7.1479  H       1  <O>11       0.0618
  53 H22      -4.9196     7.4546    -6.4905  H       1  <O>11       0.0620
  54 H23      -8.7105     8.8352    -0.0087  H       1  <O>11       0.0625
  55 H24     -10.9534     8.8077    -0.9185  H       1  <O>11       0.0618
  56 H25     -11.3325     8.0474    -3.1883  H       1  <O>11       0.0618
  57 H26      -9.4668     7.3164    -4.5482  H       1  <O>11       0.0624
  58 H27      -6.6937     4.0385    -4.7783  H       1  <O>11       0.0628
@<TRIPOS>BOND
     1     1     2    2
     2     2     3    1
     3     3     4   ar
     4     4     5   ar
     5     5     6   ar
     6     6     7   ar
     7     7     8    1
     8     8     9    1
     9     9    10   ar
    10    10    11   ar
    11    11    12   ar
    12    12    13    2
    13    12    14   ar
    14    14    15   ar
    15    15    16   ar
    16    16    17   ar
    17    17    18   ar
    18    18    19   ar
    19     9    19   ar
    20    14    19   ar
    21     7    20   ar
    22     3    20   ar
    23     2    21   am
    24    21    22    1
    25    22    23    1
    26    23    24    1
    27    24    25    1
    28    25    26    1
    29    26    27    1
    30    27    28    1
    31    28    29    1
    32    26    29    1
    33    24    30    1
    34    30    31    1
    35    21    31    1
    36     8    32    1
    37     8    33    1
    38    11    34    1
    39    22    35    1
    40    22    36    1
    41    23    37    1
    42    23    38    1
    43    24    39    1
    44    26    40    1
    45    27    41    1
    46    27    42    1
    47    28    43    1
    48    28    44    1
    49    29    45    1
    50    29    46    1
    51    30    47    1
    52    30    48    1
    53    31    49    1
    54    31    50    1
    55     4    51    1
    56     5    52    1
    57     6    53    1
    58    15    54    1
    59    16    55    1
    60    17    56    1
    61    18    57    1
    62    20    58    1
@<TRIPOS>MOLECULE
mol96_2_4
 58 62 0 0 0
SMALL
USER_CHARGES
****
VDW energy = 10.20
@<TRIPOS>ATOM
   1 O1       -4.2425     1.9267    -4.2583  O.2     1  <O>11      -0.2700
   2 C1       -4.7326     2.2891    -5.3174  C.2     1  <O>11       0.2466
   3 C2       -4.7890     3.7070    -5.6470  C.ar    1  <O>11       0.0372
   4 C3       -5.9052     4.4773    -5.2763  C.ar    1  <O>11      -0.0496
   5 C4       -5.9651     5.8365    -5.6044  C.ar    1  <O>11      -0.0608
   6 C5       -4.9121     6.4392    -6.2987  C.ar    1  <O>11      -0.0582
   7 C6       -3.7989     5.6740    -6.6602  C.ar    1  <O>11      -0.0408
   8 C7       -2.6890     6.3160    -7.3916  C.3     1  <O>11       0.0171
   9 C8       -2.9320     6.2104    -8.8540  C.ar    1  <O>11       0.0736
  10 N1       -4.2249     5.9671    -9.3308  N.ar    1  <O>11      -0.1750
  11 N2       -4.4441     5.7648   -10.6505  N.ar    1  <O>11      -0.2425
  12 C9       -3.3977     5.8124   -11.5085  C.ar    1  <O>11       0.2725
  13 O2       -3.6775     5.4967   -12.8511  O.2     1  <O>11      -0.2658
  14 C10      -2.0913     6.1515   -11.1257  C.ar    1  <O>11       0.0496
  15 C11      -1.0070     6.2601   -12.0273  C.ar    1  <O>11      -0.0487
  16 C12       0.2759     6.5709   -11.5743  C.ar    1  <O>11      -0.0610
  17 C13       0.5028     6.7709   -10.2174  C.ar    1  <O>11      -0.0611
  18 C14      -0.5540     6.6609    -9.3116  C.ar    1  <O>11      -0.0521
  19 C15      -1.8618     6.3555    -9.7536  C.ar    1  <O>11       0.0106
  20 C16      -3.7287     4.3176    -6.3377  C.ar    1  <O>11      -0.0461
  21 N3       -5.2250     1.3690    -6.1880  N.am    1  <O>11      -0.2974
  22 C17      -5.2400    -0.1020    -5.9950  C.3     1  <O>11       0.0173
  23 C18      -4.5440    -0.8190    -7.1450  C.3     1  <O>11      -0.0107
  24 C19      -5.1700    -0.4400    -8.4830  C.3     1  <O>11       0.0619
  25 O3       -4.4180    -1.0300    -9.5300  O.3     1  <O>11      -0.3732
  26 C20      -5.3002    -1.5502   -10.5110  C.3     1  <O>11       0.0591
  27 C21      -4.6781    -2.5360   -11.3450  C.3     1  <O>11      -0.0265
  28 C22      -5.4774    -1.8473   -12.4673  C.3     1  <O>11      -0.0484
  29 C23      -5.5790    -0.6098   -11.5569  C.3     1  <O>11      -0.0265
  30 C24      -5.1840     1.0730    -8.6690  C.3     1  <O>11      -0.0107
  31 C25      -5.8260     1.7840    -7.4820  C.3     1  <O>11       0.0173
  32 H1       -1.7527     5.8172    -7.1411  H       1  <O>11       0.0377
  33 H2       -2.6274     7.3673    -7.1083  H       1  <O>11       0.0377
  34 H3       -5.3775     5.5818   -10.9907  H       1  <O>11       0.1921
  35 H4       -4.7260    -0.3420    -5.0640  H       1  <O>11       0.0465
  36 H5       -6.2740    -0.4420    -5.9380  H       1  <O>11       0.0465
  37 H6       -3.4900    -0.5410    -7.1530  H       1  <O>11       0.0305
  38 H7       -4.6340    -1.8960    -7.0000  H       1  <O>11       0.0305
  39 H8       -6.1940    -0.8130    -8.5160  H       1  <O>11       0.0597
  40 H9       -6.2042    -1.9203   -10.0269  H       1  <O>11       0.0596
  41 H10      -3.5947    -2.4622   -11.4295  H       1  <O>11       0.0290
  42 H11      -4.9572    -3.5684   -11.1377  H       1  <O>11       0.0290
  43 H12      -4.9184    -1.6868   -13.3890  H       1  <O>11       0.0267
  44 H13      -6.4322    -2.3189   -12.6988  H       1  <O>11       0.0267
  45 H14      -4.8168     0.1522   -11.7163  H       1  <O>11       0.0290
  46 H15      -6.5611    -0.1395   -11.5142  H       1  <O>11       0.0290
  47 H16      -4.1580     1.4250    -8.7770  H       1  <O>11       0.0305
  48 H17      -5.7480     1.3130    -9.5710  H       1  <O>11       0.0305
  49 H18      -5.6930     2.8590    -7.6030  H       1  <O>11       0.0465
  50 H19      -6.8910     1.5490    -7.4660  H       1  <O>11       0.0465
  51 H20      -6.6838     4.0385    -4.7601  H       1  <O>11       0.0625
  52 H21      -6.7890     6.3955    -5.3330  H       1  <O>11       0.0618
  53 H22      -4.9560     7.4410    -6.5426  H       1  <O>11       0.0620
  54 H23      -1.1669     6.1071   -13.0353  H       1  <O>11       0.0625
  55 H24       1.0553     6.6523   -12.2459  H       1  <O>11       0.0618
  56 H25       1.4508     7.0003    -9.8802  H       1  <O>11       0.0618
  57 H26      -0.3780     6.8046    -8.3049  H       1  <O>11       0.0624
  58 H27      -2.8998     3.7645    -6.6061  H       1  <O>11       0.0628
@<TRIPOS>BOND
     1     1     2    2
     2     2     3    1
     3     3     4   ar
     4     4     5   ar
     5     5     6   ar
     6     6     7   ar
     7     7     8    1
     8     8     9    1
     9     9    10   ar
    10    10    11   ar
    11    11    12   ar
    12    12    13    2
    13    12    14   ar
    14    14    15   ar
    15    15    16   ar
    16    16    17   ar
    17    17    18   ar
    18    18    19   ar
    19     9    19   ar
    20    14    19   ar
    21     7    20   ar
    22     3    20   ar
    23     2    21   am
    24    21    22    1
    25    22    23    1
    26    23    24    1
    27    24    25    1
    28    25    26    1
    29    26    27    1
    30    27    28    1
    31    28    29    1
    32    26    29    1
    33    24    30    1
    34    30    31    1
    35    21    31    1
    36     8    32    1
    37     8    33    1
    38    11    34    1
    39    22    35    1
    40    22    36    1
    41    23    37    1
    42    23    38    1
    43    24    39    1
    44    26    40    1
    45    27    41    1
    46    27    42    1
    47    28    43    1
    48    28    44    1
    49    29    45    1
    50    29    46    1
    51    30    47    1
    52    30    48    1
    53    31    49    1
    54    31    50    1
    55     4    51    1
    56     5    52    1
    57     6    53    1
    58    15    54    1
    59    16    55    1
    60    17    56    1
    61    18    57    1
    62    20    58    1
@<TRIPOS>MOLECULE
mol96_2_5
 58 62 0 0 0
SMALL
USER_CHARGES
****
VDW energy = 10.74
@<TRIPOS>ATOM
   1 O1       -4.2425     1.9267    -4.2583  O.2     1  <O>11      -0.2700
   2 C1       -4.7326     2.2891    -5.3174  C.2     1  <O>11       0.2466
   3 C2       -4.7890     3.7070    -5.6470  C.ar    1  <O>11       0.0372
   4 C3       -3.7277     4.3170    -6.3385  C.ar    1  <O>11      -0.0496
   5 C4       -3.7762     5.6820    -6.6437  C.ar    1  <O>11      -0.0608
   6 C5       -4.8835     6.4476    -6.2675  C.ar    1  <O>11      -0.0582
   7 C6       -5.9421     5.8384    -5.5865  C.ar    1  <O>11      -0.0408
   8 C7       -7.1099     6.6512    -5.1933  C.3     1  <O>11       0.0171
   9 C8       -6.8853     7.2191    -3.8383  C.ar    1  <O>11       0.0736
  10 N1       -5.5863     7.3088    -3.3259  N.ar    1  <O>11      -0.1750
  11 N2       -5.3756     7.7256    -2.0560  N.ar    1  <O>11      -0.2425
  12 C9       -6.4375     8.0672    -1.2885  C.ar    1  <O>11       0.2725
  13 O2       -6.1582     8.3971     0.0508  O.2     1  <O>11      -0.2658
  14 C10      -7.7588     8.1035    -1.7585  C.ar    1  <O>11       0.0496
  15 C11      -8.8638     8.5160    -0.9781  C.ar    1  <O>11      -0.0487
  16 C12     -10.1584     8.4979    -1.4991  C.ar    1  <O>11      -0.0610
  17 C13     -10.3759     8.0621    -2.8012  C.ar    1  <O>11      -0.0611
  18 C14      -9.2981     7.6444    -3.5844  C.ar    1  <O>11      -0.0521
  19 C15      -7.9790     7.6644    -3.0760  C.ar    1  <O>11       0.0106
  20 C16      -5.9043     4.4776    -5.2773  C.ar    1  <O>11      -0.0461
  21 N3       -5.2250     1.3690    -6.1880  N.am    1  <O>11      -0.2974
  22 C17      -5.2400    -0.1020    -5.9950  C.3     1  <O>11       0.0173
  23 C18      -4.5440    -0.8190    -7.1450  C.3     1  <O>11      -0.0107
  24 C19      -5.1700    -0.4400    -8.4830  C.3     1  <O>11       0.0619
  25 O3       -4.4180    -1.0300    -9.5300  O.3     1  <O>11      -0.3732
  26 C20      -5.3002    -1.5502   -10.5110  C.3     1  <O>11       0.0591
  27 C21      -4.6781    -2.5360   -11.3450  C.3     1  <O>11      -0.0265
  28 C22      -5.4774    -1.8473   -12.4673  C.3     1  <O>11      -0.0484
  29 C23      -5.5790    -0.6098   -11.5569  C.3     1  <O>11      -0.0265
  30 C24      -5.1840     1.0730    -8.6690  C.3     1  <O>11      -0.0107
  31 C25      -5.8260     1.7840    -7.4820  C.3     1  <O>11       0.0173
  32 H1       -8.0014     6.0241    -5.1820  H       1  <O>11       0.0377
  33 H2       -7.2455     7.4622    -5.9095  H       1  <O>11       0.0377
  34 H3       -4.4371     7.7820    -1.6864  H       1  <O>11       0.1921
  35 H4       -4.7260    -0.3420    -5.0640  H       1  <O>11       0.0465
  36 H5       -6.2740    -0.4420    -5.9380  H       1  <O>11       0.0465
  37 H6       -3.4900    -0.5410    -7.1530  H       1  <O>11       0.0305
  38 H7       -4.6340    -1.8960    -7.0000  H       1  <O>11       0.0305
  39 H8       -6.1940    -0.8130    -8.5160  H       1  <O>11       0.0597
  40 H9       -6.2042    -1.9203   -10.0269  H       1  <O>11       0.0596
  41 H10      -3.5947    -2.4622   -11.4295  H       1  <O>11       0.0290
  42 H11      -4.9572    -3.5684   -11.1377  H       1  <O>11       0.0290
  43 H12      -4.9184    -1.6868   -13.3890  H       1  <O>11       0.0267
  44 H13      -6.4322    -2.3189   -12.6988  H       1  <O>11       0.0267
  45 H14      -4.8168     0.1522   -11.7163  H       1  <O>11       0.0290
  46 H15      -6.5611    -0.1395   -11.5142  H       1  <O>11       0.0290
  47 H16      -4.1580     1.4250    -8.7770  H       1  <O>11       0.0305
  48 H17      -5.7480     1.3130    -9.5710  H       1  <O>11       0.0305
  49 H18      -5.6930     2.8590    -7.6030  H       1  <O>11       0.0465
  50 H19      -6.8910     1.5490    -7.4660  H       1  <O>11       0.0465
  51 H20      -2.9094     3.7558    -6.6222  H       1  <O>11       0.0625
  52 H21      -2.9921     6.1247    -7.1479  H       1  <O>11       0.0618
  53 H22      -4.9196     7.4546    -6.4905  H       1  <O>11       0.0620
  54 H23      -8.7105     8.8352    -0.0087  H       1  <O>11       0.0625
  55 H24     -10.9534     8.8077    -0.9185  H       1  <O>11       0.0618
  56 H25     -11.3325     8.0474    -3.1883  H       1  <O>11       0.0618
  57 H26      -9.4668     7.3164    -4.5482  H       1  <O>11       0.0624
  58 H27      -6.6937     4.0385    -4.7783  H       1  <O>11       0.0628
@<TRIPOS>BOND
     1     1     2    2
     2     2     3    1
     3     3     4   ar
     4     4     5   ar
     5     5     6   ar
     6     6     7   ar
     7     7     8    1
     8     8     9    1
     9     9    10   ar
    10    10    11   ar
    11    11    12   ar
    12    12    13    2
    13    12    14   ar
    14    14    15   ar
    15    15    16   ar
    16    16    17   ar
    17    17    18   ar
    18    18    19   ar
    19     9    19   ar
    20    14    19   ar
    21     7    20   ar
    22     3    20   ar
    23     2    21   am
    24    21    22    1
    25    22    23    1
    26    23    24    1
    27    24    25    1
    28    25    26    1
    29    26    27    1
    30    27    28    1
    31    28    29    1
    32    26    29    1
    33    24    30    1
    34    30    31    1
    35    21    31    1
    36     8    32    1
    37     8    33    1
    38    11    34    1
    39    22    35    1
    40    22    36    1
    41    23    37    1
    42    23    38    1
    43    24    39    1
    44    26    40    1
    45    27    41    1
    46    27    42    1
    47    28    43    1
    48    28    44    1
    49    29    45    1
    50    29    46    1
    51    30    47    1
    52    30    48    1
    53    31    49    1
    54    31    50    1
    55     4    51    1
    56     5    52    1
    57     6    53    1
    58    15    54    1
    59    16    55    1
    60    17    56    1
    61    18    57    1
    62    20    58    1
@<TRIPOS>MOLECULE
mol96_2_6
 58 62 0 0 0
SMALL
USER_CHARGES
****
VDW energy = 10.77
@<TRIPOS>ATOM
   1 O1       -4.2425     1.9267    -4.2583  O.2     1  <O>11      -0.2700
   2 C1       -4.7326     2.2891    -5.3174  C.2     1  <O>11       0.2466
   3 C2       -4.7890     3.7070    -5.6470  C.ar    1  <O>11       0.0372
   4 C3       -3.7277     4.3170    -6.3385  C.ar    1  <O>11      -0.0496
   5 C4       -3.7762     5.6820    -6.6437  C.ar    1  <O>11      -0.0608
   6 C5       -4.8835     6.4476    -6.2675  C.ar    1  <O>11      -0.0582
   7 C6       -5.9421     5.8384    -5.5865  C.ar    1  <O>11      -0.0408
   8 C7       -7.1099     6.6512    -5.1933  C.3     1  <O>11       0.0171
   9 C8       -8.1192     6.6295    -6.2839  C.ar    1  <O>11       0.0736
  10 N1       -8.0866     5.6128    -7.2449  N.ar    1  <O>11      -0.1750
  11 N2       -8.9319     5.6378    -8.3010  N.ar    1  <O>11      -0.2425
  12 C9       -9.8202     6.6537    -8.4117  C.ar    1  <O>11       0.2725
  13 O2      -10.6019     6.6734    -9.5819  O.2     1  <O>11      -0.2658
  14 C10      -9.9862     7.6526    -7.4409  C.ar    1  <O>11       0.0496
  15 C11     -10.9526     8.6819    -7.5238  C.ar    1  <O>11      -0.0487
  16 C12     -11.0431     9.6640    -6.5363  C.ar    1  <O>11      -0.0610
  17 C13     -10.1693     9.6430    -5.4553  C.ar    1  <O>11      -0.0611
  18 C14      -9.2040     8.6386    -5.3601  C.ar    1  <O>11      -0.0521
  19 C15      -9.1038     7.6307    -6.3464  C.ar    1  <O>11       0.0106
  20 C16      -5.9043     4.4776    -5.2773  C.ar    1  <O>11      -0.0461
  21 N3       -5.2250     1.3690    -6.1880  N.am    1  <O>11      -0.2974
  22 C17      -5.2400    -0.1020    -5.9950  C.3     1  <O>11       0.0173
  23 C18      -4.5440    -0.8190    -7.1450  C.3     1  <O>11      -0.0107
  24 C19      -5.1700    -0.4400    -8.4830  C.3     1  <O>11       0.0619
  25 O3       -4.4180    -1.0300    -9.5300  O.3     1  <O>11      -0.3732
  26 C20      -5.3002    -1.5502   -10.5110  C.3     1  <O>11       0.0591
  27 C21      -4.6781    -2.5360   -11.3450  C.3     1  <O>11      -0.0265
  28 C22      -5.4774    -1.8473   -12.4673  C.3     1  <O>11      -0.0484
  29 C23      -5.5790    -0.6098   -11.5569  C.3     1  <O>11      -0.0265
  30 C24      -5.1840     1.0730    -8.6690  C.3     1  <O>11      -0.0107
  31 C25      -5.8260     1.7840    -7.4820  C.3     1  <O>11       0.0173
  32 H1       -6.7927     7.6780    -5.0111  H       1  <O>11       0.0377
  33 H2       -7.5488     6.2400    -4.2836  H       1  <O>11       0.0377
  34 H3       -8.9006     4.9064    -8.9972  H       1  <O>11       0.1921
  35 H4       -4.7260    -0.3420    -5.0640  H       1  <O>11       0.0465
  36 H5       -6.2740    -0.4420    -5.9380  H       1  <O>11       0.0465
  37 H6       -3.4900    -0.5410    -7.1530  H       1  <O>11       0.0305
  38 H7       -4.6340    -1.8960    -7.0000  H       1  <O>11       0.0305
  39 H8       -6.1940    -0.8130    -8.5160  H       1  <O>11       0.0597
  40 H9       -6.2042    -1.9203   -10.0269  H       1  <O>11       0.0596
  41 H10      -3.5947    -2.4622   -11.4295  H       1  <O>11       0.0290
  42 H11      -4.9572    -3.5684   -11.1377  H       1  <O>11       0.0290
  43 H12      -4.9184    -1.6868   -13.3890  H       1  <O>11       0.0267
  44 H13      -6.4322    -2.3189   -12.6988  H       1  <O>11       0.0267
  45 H14      -4.8168     0.1522   -11.7163  H       1  <O>11       0.0290
  46 H15      -6.5611    -0.1395   -11.5142  H       1  <O>11       0.0290
  47 H16      -4.1580     1.4250    -8.7770  H       1  <O>11       0.0305
  48 H17      -5.7480     1.3130    -9.5710  H       1  <O>11       0.0305
  49 H18      -5.6930     2.8590    -7.6030  H       1  <O>11       0.0465
  50 H19      -6.8910     1.5490    -7.4660  H       1  <O>11       0.0465
  51 H20      -2.9094     3.7558    -6.6222  H       1  <O>11       0.0625
  52 H21      -2.9921     6.1247    -7.1479  H       1  <O>11       0.0618
  53 H22      -4.9196     7.4546    -6.4905  H       1  <O>11       0.0620
  54 H23     -11.6007     8.7071    -8.3265  H       1  <O>11       0.0625
  55 H24     -11.7578    10.4050    -6.6086  H       1  <O>11       0.0618
  56 H25     -10.2340    10.3686    -4.7242  H       1  <O>11       0.0618
  57 H26      -8.5544     8.6320    -4.5582  H       1  <O>11       0.0624
  58 H27      -6.6937     4.0385    -4.7783  H       1  <O>11       0.0628
@<TRIPOS>BOND
     1     1     2    2
     2     2     3    1
     3     3     4   ar
     4     4     5   ar
     5     5     6   ar
     6     6     7   ar
     7     7     8    1
     8     8     9    1
     9     9    10   ar
    10    10    11   ar
    11    11    12   ar
    12    12    13    2
    13    12    14   ar
    14    14    15   ar
    15    15    16   ar
    16    16    17   ar
    17    17    18   ar
    18    18    19   ar
    19     9    19   ar
    20    14    19   ar
    21     7    20   ar
    22     3    20   ar
    23     2    21   am
    24    21    22    1
    25    22    23    1
    26    23    24    1
    27    24    25    1
    28    25    26    1
    29    26    27    1
    30    27    28    1
    31    28    29    1
    32    26    29    1
    33    24    30    1
    34    30    31    1
    35    21    31    1
    36     8    32    1
    37     8    33    1
    38    11    34    1
    39    22    35    1
    40    22    36    1
    41    23    37    1
    42    23    38    1
    43    24    39    1
    44    26    40    1
    45    27    41    1
    46    27    42    1
    47    28    43    1
    48    28    44    1
    49    29    45    1
    50    29    46    1
    51    30    47    1
    52    30    48    1
    53    31    49    1
    54    31    50    1
    55     4    51    1
    56     5    52    1
    57     6    53    1
    58    15    54    1
    59    16    55    1
    60    17    56    1
    61    18    57    1
    62    20    58    1
@<TRIPOS>MOLECULE
mol96_2_7
 58 62 0 0 0
SMALL
USER_CHARGES
****
VDW energy = 11.97
@<TRIPOS>ATOM
   1 O1       -4.2425     1.9267    -4.2583  O.2     1  <O>11      -0.2700
   2 C1       -4.7326     2.2891    -5.3174  C.2     1  <O>11       0.2466
   3 C2       -4.7890     3.7070    -5.6470  C.ar    1  <O>11       0.0372
   4 C3       -3.7277     4.3170    -6.3385  C.ar    1  <O>11      -0.0496
   5 C4       -3.7762     5.6820    -6.6437  C.ar    1  <O>11      -0.0608
   6 C5       -4.8835     6.4476    -6.2675  C.ar    1  <O>11      -0.0582
   7 C6       -5.9421     5.8384    -5.5865  C.ar    1  <O>11      -0.0408
   8 C7       -7.1099     6.6512    -5.1933  C.3     1  <O>11       0.0171
   9 C8       -6.6706     7.7454    -4.2886  C.ar    1  <O>11       0.0736
  10 N1       -6.2856     8.9802    -4.8227  N.ar    1  <O>11      -0.1750
  11 N2       -5.7850     9.9494    -4.0222  N.ar    1  <O>11      -0.2425
  12 C9       -5.6715     9.7149    -2.6935  C.ar    1  <O>11       0.2725
  13 O2       -5.0534    10.7248    -1.9329  O.2     1  <O>11      -0.2658
  14 C10      -6.1290     8.5461    -2.0668  C.ar    1  <O>11       0.0496
  15 C11      -6.0663     8.3214    -0.6719  C.ar    1  <O>11      -0.0487
  16 C12      -6.5114     7.1208    -0.1166  C.ar    1  <O>11      -0.0610
  17 C13      -7.0184     6.1219    -0.9399  C.ar    1  <O>11      -0.0611
  18 C14      -7.0816     6.3230    -2.3202  C.ar    1  <O>11      -0.0521
  19 C15      -6.6435     7.5363    -2.8989  C.ar    1  <O>11       0.0106
  20 C16      -5.9043     4.4776    -5.2773  C.ar    1  <O>11      -0.0461
  21 N3       -5.2250     1.3690    -6.1880  N.am    1  <O>11      -0.2974
  22 C17      -5.2400    -0.1020    -5.9950  C.3     1  <O>11       0.0173
  23 C18      -4.5440    -0.8190    -7.1450  C.3     1  <O>11      -0.0107
  24 C19      -5.1700    -0.4400    -8.4830  C.3     1  <O>11       0.0619
  25 O3       -4.4180    -1.0300    -9.5300  O.3     1  <O>11      -0.3732
  26 C20      -5.3002    -1.5502   -10.5110  C.3     1  <O>11       0.0591
  27 C21      -4.6781    -2.5360   -11.3450  C.3     1  <O>11      -0.0265
  28 C22      -5.4774    -1.8473   -12.4673  C.3     1  <O>11      -0.0484
  29 C23      -5.5790    -0.6098   -11.5569  C.3     1  <O>11      -0.0265
  30 C24      -5.1840     1.0730    -8.6690  C.3     1  <O>11      -0.0107
  31 C25      -5.8260     1.7840    -7.4820  C.3     1  <O>11       0.0173
  32 H1       -7.8338     6.0206    -4.6770  H       1  <O>11       0.0377
  33 H2       -7.5711     7.0790    -6.0840  H       1  <O>11       0.0377
  34 H3       -5.5008    10.8370    -4.4119  H       1  <O>11       0.1921
  35 H4       -4.7260    -0.3420    -5.0640  H       1  <O>11       0.0465
  36 H5       -6.2740    -0.4420    -5.9380  H       1  <O>11       0.0465
  37 H6       -3.4900    -0.5410    -7.1530  H       1  <O>11       0.0305
  38 H7       -4.6340    -1.8960    -7.0000  H       1  <O>11       0.0305
  39 H8       -6.1940    -0.8130    -8.5160  H       1  <O>11       0.0597
  40 H9       -6.2042    -1.9203   -10.0269  H       1  <O>11       0.0596
  41 H10      -3.5947    -2.4622   -11.4295  H       1  <O>11       0.0290
  42 H11      -4.9572    -3.5684   -11.1377  H       1  <O>11       0.0290
  43 H12      -4.9184    -1.6868   -13.3890  H       1  <O>11       0.0267
  44 H13      -6.4322    -2.3189   -12.6988  H       1  <O>11       0.0267
  45 H14      -4.8168     0.1522   -11.7163  H       1  <O>11       0.0290
  46 H15      -6.5611    -0.1395   -11.5142  H       1  <O>11       0.0290
  47 H16      -4.1580     1.4250    -8.7770  H       1  <O>11       0.0305
  48 H17      -5.7480     1.3130    -9.5710  H       1  <O>11       0.0305
  49 H18      -5.6930     2.8590    -7.6030  H       1  <O>11       0.0465
  50 H19      -6.8910     1.5490    -7.4660  H       1  <O>11       0.0465
  51 H20      -2.9094     3.7558    -6.6222  H       1  <O>11       0.0625
  52 H21      -2.9921     6.1247    -7.1479  H       1  <O>11       0.0618
  53 H22      -4.9196     7.4546    -6.4905  H       1  <O>11       0.0620
  54 H23      -5.6857     9.0562    -0.0553  H       1  <O>11       0.0625
  55 H24      -6.4643     6.9747     0.9039  H       1  <O>11       0.0618
  56 H25      -7.3475     5.2330    -0.5315  H       1  <O>11       0.0618
  57 H26      -7.4534     5.5753    -2.9266  H       1  <O>11       0.0624
  58 H27      -6.6937     4.0385    -4.7783  H       1  <O>11       0.0628
@<TRIPOS>BOND
     1     1     2    2
     2     2     3    1
     3     3     4   ar
     4     4     5   ar
     5     5     6   ar
     6     6     7   ar
     7     7     8    1
     8     8     9    1
     9     9    10   ar
    10    10    11   ar
    11    11    12   ar
    12    12    13    2
    13    12    14   ar
    14    14    15   ar
    15    15    16   ar
    16    16    17   ar
    17    17    18   ar
    18    18    19   ar
    19     9    19   ar
    20    14    19   ar
    21     7    20   ar
    22     3    20   ar
    23     2    21   am
    24    21    22    1
    25    22    23    1
    26    23    24    1
    27    24    25    1
    28    25    26    1
    29    26    27    1
    30    27    28    1
    31    28    29    1
    32    26    29    1
    33    24    30    1
    34    30    31    1
    35    21    31    1
    36     8    32    1
    37     8    33    1
    38    11    34    1
    39    22    35    1
    40    22    36    1
    41    23    37    1
    42    23    38    1
    43    24    39    1
    44    26    40    1
    45    27    41    1
    46    27    42    1
    47    28    43    1
    48    28    44    1
    49    29    45    1
    50    29    46    1
    51    30    47    1
    52    30    48    1
    53    31    49    1
    54    31    50    1
    55     4    51    1
    56     5    52    1
    57     6    53    1
    58    15    54    1
    59    16    55    1
    60    17    56    1
    61    18    57    1
    62    20    58    1
@<TRIPOS>MOLECULE
mol96_2_8
 58 62 0 0 0
SMALL
USER_CHARGES
****
VDW energy = 13.85
@<TRIPOS>ATOM
   1 O1       -4.2425     1.9267    -4.2583  O.2     1  <O>11      -0.2700
   2 C1       -4.7326     2.2891    -5.3174  C.2     1  <O>11       0.2466
   3 C2       -4.7890     3.7070    -5.6470  C.ar    1  <O>11       0.0372
   4 C3       -3.7277     4.3170    -6.3385  C.ar    1  <O>11      -0.0496
   5 C4       -3.7762     5.6820    -6.6437  C.ar    1  <O>11      -0.0608
   6 C5       -4.8835     6.4476    -6.2675  C.ar    1  <O>11      -0.0582
   7 C6       -5.9421     5.8384    -5.5865  C.ar    1  <O>11      -0.0408
   8 C7       -7.1099     6.6512    -5.1933  C.3     1  <O>11       0.0171
   9 C8       -6.6706     7.7454    -4.2886  C.ar    1  <O>11       0.0736
  10 N1       -5.3273     8.1368    -4.2680  N.ar    1  <O>11      -0.1750
  11 N2       -4.8932     9.0577    -3.3768  N.ar    1  <O>11      -0.2425
  12 C9       -5.7777     9.6066    -2.5109  C.ar    1  <O>11       0.2725
  13 O2       -5.2447    10.4827    -1.5471  O.2     1  <O>11      -0.2658
  14 C10      -7.1558     9.3454    -2.5350  C.ar    1  <O>11       0.0496
  15 C11      -8.0916     9.9608    -1.6713  C.ar    1  <O>11      -0.0487
  16 C12      -9.4466     9.6312    -1.7277  C.ar    1  <O>11      -0.0610
  17 C13      -9.8914     8.6792    -2.6379  C.ar    1  <O>11      -0.0611
  18 C14      -8.9811     8.0559    -3.4937  C.ar    1  <O>11      -0.0521
  19 C15      -7.6064     8.3839    -3.4566  C.ar    1  <O>11       0.0106
  20 C16      -5.9043     4.4776    -5.2773  C.ar    1  <O>11      -0.0461
  21 N3       -5.2250     1.3690    -6.1880  N.am    1  <O>11      -0.2974
  22 C17      -5.8467     1.6516    -7.5052  C.3     1  <O>11       0.0173
  23 C18      -7.2453     1.0547    -7.5974  C.3     1  <O>11      -0.0107
  24 C19      -7.2181    -0.4446    -7.3197  C.3     1  <O>11       0.0619
  25 O3       -8.5479    -0.9353    -7.2943  O.3     1  <O>11      -0.3732
  26 C20      -8.9275    -1.3410    -8.5990  C.3     1  <O>11       0.0591
  27 C21     -10.3497    -1.4136    -8.7623  C.3     1  <O>11      -0.0265
  28 C22     -10.0231    -2.6824    -9.5724  C.3     1  <O>11      -0.0484
  29 C23      -8.6682    -2.7301    -8.8425  C.3     1  <O>11      -0.0265
  30 C24      -6.5512    -0.7389    -5.9809  C.3     1  <O>11      -0.0107
  31 C25      -5.1781    -0.0829    -5.8754  C.3     1  <O>11       0.0173
  32 H1       -7.8338     6.0206    -4.6770  H       1  <O>11       0.0377
  33 H2       -7.5711     7.0790    -6.0840  H       1  <O>11       0.0377
  34 H3       -3.9213     9.3326    -3.3593  H       1  <O>11       0.1921
  35 H4       -5.9118     2.7313    -7.6414  H       1  <O>11       0.0465
  36 H5       -5.2247     1.2225    -8.2907  H       1  <O>11       0.0465
  37 H6       -7.8898     1.5413    -6.8652  H       1  <O>11       0.0305
  38 H7       -7.6405     1.2261    -8.5991  H       1  <O>11       0.0305
  39 H8       -6.6614    -0.9441    -8.1131  H       1  <O>11       0.0597
  40 H9       -8.4536    -0.6901    -9.3341  H       1  <O>11       0.0596
  41 H10     -10.9186    -1.5762    -7.8478  H       1  <O>11       0.0290
  42 H11     -10.7981    -0.5989    -9.3296  H       1  <O>11       0.0290
  43 H12     -10.6769    -3.5304    -9.3695  H       1  <O>11       0.0267
  44 H13      -9.9525    -2.5273   -10.6487  H       1  <O>11       0.0267
  45 H14      -8.6364    -3.3624    -7.9558  H       1  <O>11       0.0290
  46 H15      -7.8045    -2.9418    -9.4722  H       1  <O>11       0.0290
  47 H16      -7.1850    -0.3589    -5.1796  H       1  <O>11       0.0305
  48 H17      -6.4357    -1.8179    -5.8731  H       1  <O>11       0.0305
  49 H18      -4.8045    -0.2122    -4.8597  H       1  <O>11       0.0465
  50 H19      -4.5007    -0.5715    -6.5769  H       1  <O>11       0.0465
  51 H20      -2.9094     3.7558    -6.6222  H       1  <O>11       0.0625
  52 H21      -2.9921     6.1247    -7.1479  H       1  <O>11       0.0618
  53 H22      -4.9196     7.4546    -6.4905  H       1  <O>11       0.0620
  54 H23      -7.7676    10.6641    -0.9891  H       1  <O>11       0.0625
  55 H24     -10.1176    10.0936    -1.0945  H       1  <O>11       0.0618
  56 H25     -10.8929     8.4335    -2.6809  H       1  <O>11       0.0618
  57 H26      -9.3167     7.3457    -4.1631  H       1  <O>11       0.0624
  58 H27      -6.6937     4.0385    -4.7783  H       1  <O>11       0.0628
@<TRIPOS>BOND
     1     1     2    2
     2     2     3    1
     3     3     4   ar
     4     4     5   ar
     5     5     6   ar
     6     6     7   ar
     7     7     8    1
     8     8     9    1
     9     9    10   ar
    10    10    11   ar
    11    11    12   ar
    12    12    13    2
    13    12    14   ar
    14    14    15   ar
    15    15    16   ar
    16    16    17   ar
    17    17    18   ar
    18    18    19   ar
    19     9    19   ar
    20    14    19   ar
    21     7    20   ar
    22     3    20   ar
    23     2    21   am
    24    21    22    1
    25    22    23    1
    26    23    24    1
    27    24    25    1
    28    25    26    1
    29    26    27    1
    30    27    28    1
    31    28    29    1
    32    26    29    1
    33    24    30    1
    34    30    31    1
    35    21    31    1
    36     8    32    1
    37     8    33    1
    38    11    34    1
    39    22    35    1
    40    22    36    1
    41    23    37    1
    42    23    38    1
    43    24    39    1
    44    26    40    1
    45    27    41    1
    46    27    42    1
    47    28    43    1
    48    28    44    1
    49    29    45    1
    50    29    46    1
    51    30    47    1
    52    30    48    1
    53    31    49    1
    54    31    50    1
    55     4    51    1
    56     5    52    1
    57     6    53    1
    58    15    54    1
    59    16    55    1
    60    17    56    1
    61    18    57    1
    62    20    58    1
@<TRIPOS>MOLECULE
mol96_2_9
 58 62 0 0 0
SMALL
USER_CHARGES
****
VDW energy = 14.78
@<TRIPOS>ATOM
   1 O1       -4.2425     1.9267    -4.2583  O.2     1  <O>11      -0.2700
   2 C1       -4.7326     2.2891    -5.3174  C.2     1  <O>11       0.2466
   3 C2       -4.7890     3.7070    -5.6470  C.ar    1  <O>11       0.0372
   4 C3       -5.9052     4.4773    -5.2763  C.ar    1  <O>11      -0.0496
   5 C4       -5.9651     5.8365    -5.6044  C.ar    1  <O>11      -0.0608
   6 C5       -4.9121     6.4392    -6.2987  C.ar    1  <O>11      -0.0582
   7 C6       -3.7989     5.6740    -6.6602  C.ar    1  <O>11      -0.0408
   8 C7       -2.6890     6.3160    -7.3916  C.3     1  <O>11       0.0171
   9 C8       -2.9320     6.2104    -8.8540  C.ar    1  <O>11       0.0736
  10 N1       -2.4503     5.1045    -9.5633  N.ar    1  <O>11      -0.1750
  11 N2       -2.5724     5.0450   -10.9095  N.ar    1  <O>11      -0.2425
  12 C9       -3.1780     6.0644   -11.5632  C.ar    1  <O>11       0.2725
  13 O2       -3.1848     5.9873   -12.9684  O.2     1  <O>11      -0.2658
  14 C10      -3.7774     7.1566   -10.9182  C.ar    1  <O>11       0.0496
  15 C11      -4.4623     8.1938   -11.5929  C.ar    1  <O>11      -0.0487
  16 C12      -5.0091     9.2692   -10.8911  C.ar    1  <O>11      -0.0610
  17 C13      -4.8768     9.3344    -9.5088  C.ar    1  <O>11      -0.0611
  18 C14      -4.1977     8.3232    -8.8262  C.ar    1  <O>11      -0.0521
  19 C15      -3.6453     7.2220    -9.5199  C.ar    1  <O>11       0.0106
  20 C16      -3.7287     4.3176    -6.3377  C.ar    1  <O>11      -0.0461
  21 N3       -5.2250     1.3690    -6.1880  N.am    1  <O>11      -0.2974
  22 C17      -5.2400    -0.1020    -5.9950  C.3     1  <O>11       0.0173
  23 C18      -4.5440    -0.8190    -7.1450  C.3     1  <O>11      -0.0107
  24 C19      -5.1700    -0.4400    -8.4830  C.3     1  <O>11       0.0619
  25 O3       -4.4180    -1.0300    -9.5300  O.3     1  <O>11      -0.3732
  26 C20      -5.3002    -1.5502   -10.5110  C.3     1  <O>11       0.0591
  27 C21      -4.6781    -2.5360   -11.3450  C.3     1  <O>11      -0.0265
  28 C22      -5.4774    -1.8473   -12.4673  C.3     1  <O>11      -0.0484
  29 C23      -5.5790    -0.6098   -11.5569  C.3     1  <O>11      -0.0265
  30 C24      -5.1840     1.0730    -8.6690  C.3     1  <O>11      -0.0107
  31 C25      -5.8260     1.7840    -7.4820  C.3     1  <O>11       0.0173
  32 H1       -1.7527     5.8172    -7.1411  H       1  <O>11       0.0377
  33 H2       -2.6274     7.3673    -7.1083  H       1  <O>11       0.0377
  34 H3       -2.2167     4.2488   -11.4196  H       1  <O>11       0.1921
  35 H4       -4.7260    -0.3420    -5.0640  H       1  <O>11       0.0465
  36 H5       -6.2740    -0.4420    -5.9380  H       1  <O>11       0.0465
  37 H6       -3.4900    -0.5410    -7.1530  H       1  <O>11       0.0305
  38 H7       -4.6340    -1.8960    -7.0000  H       1  <O>11       0.0305
  39 H8       -6.1940    -0.8130    -8.5160  H       1  <O>11       0.0597
  40 H9       -6.2042    -1.9203   -10.0269  H       1  <O>11       0.0596
  41 H10      -3.5947    -2.4622   -11.4295  H       1  <O>11       0.0290
  42 H11      -4.9572    -3.5684   -11.1377  H       1  <O>11       0.0290
  43 H12      -4.9184    -1.6868   -13.3890  H       1  <O>11       0.0267
  44 H13      -6.4322    -2.3189   -12.6988  H       1  <O>11       0.0267
  45 H14      -4.8168     0.1522   -11.7163  H       1  <O>11       0.0290
  46 H15      -6.5611    -0.1395   -11.5142  H       1  <O>11       0.0290
  47 H16      -4.1580     1.4250    -8.7770  H       1  <O>11       0.0305
  48 H17      -5.7480     1.3130    -9.5710  H       1  <O>11       0.0305
  49 H18      -5.6930     2.8590    -7.6030  H       1  <O>11       0.0465
  50 H19      -6.8910     1.5490    -7.4660  H       1  <O>11       0.0465
  51 H20      -6.6838     4.0385    -4.7601  H       1  <O>11       0.0625
  52 H21      -6.7890     6.3955    -5.3330  H       1  <O>11       0.0618
  53 H22      -4.9560     7.4410    -6.5426  H       1  <O>11       0.0620
  54 H23      -4.5593     8.1549   -12.6196  H       1  <O>11       0.0625
  55 H24      -5.5111    10.0150   -11.3978  H       1  <O>11       0.0618
  56 H25      -5.2798    10.1290    -8.9879  H       1  <O>11       0.0618
  57 H26      -4.0977     8.3804    -7.8007  H       1  <O>11       0.0624
  58 H27      -2.8998     3.7645    -6.6061  H       1  <O>11       0.0628
@<TRIPOS>BOND
     1     1     2    2
     2     2     3    1
     3     3     4   ar
     4     4     5   ar
     5     5     6   ar
     6     6     7   ar
     7     7     8    1
     8     8     9    1
     9     9    10   ar
    10    10    11   ar
    11    11    12   ar
    12    12    13    2
    13    12    14   ar
    14    14    15   ar
    15    15    16   ar
    16    16    17   ar
    17    17    18   ar
    18    18    19   ar
    19     9    19   ar
    20    14    19   ar
    21     7    20   ar
    22     3    20   ar
    23     2    21   am
    24    21    22    1
    25    22    23    1
    26    23    24    1
    27    24    25    1
    28    25    26    1
    29    26    27    1
    30    27    28    1
    31    28    29    1
    32    26    29    1
    33    24    30    1
    34    30    31    1
    35    21    31    1
    36     8    32    1
    37     8    33    1
    38    11    34    1
    39    22    35    1
    40    22    36    1
    41    23    37    1
    42    23    38    1
    43    24    39    1
    44    26    40    1
    45    27    41    1
    46    27    42    1
    47    28    43    1
    48    28    44    1
    49    29    45    1
    50    29    46    1
    51    30    47    1
    52    30    48    1
    53    31    49    1
    54    31    50    1
    55     4    51    1
    56     5    52    1
    57     6    53    1
    58    15    54    1
    59    16    55    1
    60    17    56    1
    61    18    57    1
    62    20    58    1
@<TRIPOS>MOLECULE
mol96_2_10
 58 62 0 0 0
SMALL
USER_CHARGES
****
VDW energy = 16.34
@<TRIPOS>ATOM
   1 O1       -4.2425     1.9267    -4.2583  O.2     1  <O>11      -0.2700
   2 C1       -4.7326     2.2891    -5.3174  C.2     1  <O>11       0.2466
   3 C2       -4.7890     3.7070    -5.6470  C.ar    1  <O>11       0.0372
   4 C3       -3.7277     4.3170    -6.3385  C.ar    1  <O>11      -0.0496
   5 C4       -3.7762     5.6820    -6.6437  C.ar    1  <O>11      -0.0608
   6 C5       -4.8835     6.4476    -6.2675  C.ar    1  <O>11      -0.0582
   7 C6       -5.9421     5.8384    -5.5865  C.ar    1  <O>11      -0.0408
   8 C7       -7.1099     6.6512    -5.1933  C.3     1  <O>11       0.0171
   9 C8       -7.8083     5.9981    -4.0555  C.ar    1  <O>11       0.0736
  10 N1       -9.1443     5.6045    -4.1900  N.ar    1  <O>11      -0.1750
  11 N2       -9.8236     5.1049    -3.1318  N.ar    1  <O>11      -0.2425
  12 C9       -9.1911     4.9785    -1.9413  C.ar    1  <O>11       0.2725
  13 O2       -9.9799     4.5458    -0.8592  O.2     1  <O>11      -0.2658
  14 C10      -7.8286     5.2526    -1.7502  C.ar    1  <O>11       0.0496
  15 C11      -7.1499     5.0662    -0.5234  C.ar    1  <O>11      -0.0487
  16 C12      -5.7984     5.3893    -0.3935  C.ar    1  <O>11      -0.0610
  17 C13      -5.1025     5.9101    -1.4784  C.ar    1  <O>11      -0.0611
  18 C14      -5.7576     6.1078    -2.6955  C.ar    1  <O>11      -0.0521
  19 C15      -7.1239     5.7778    -2.8477  C.ar    1  <O>11       0.0106
  20 C16      -5.9043     4.4776    -5.2773  C.ar    1  <O>11      -0.0461
  21 N3       -5.2250     1.3690    -6.1880  N.am    1  <O>11      -0.2974
  22 C17      -5.8467     1.6516    -7.5052  C.3     1  <O>11       0.0173
  23 C18      -7.2453     1.0547    -7.5974  C.3     1  <O>11      -0.0107
  24 C19      -7.2181    -0.4446    -7.3197  C.3     1  <O>11       0.0619
  25 O3       -8.5479    -0.9353    -7.2943  O.3     1  <O>11      -0.3732
  26 C20      -8.9275    -1.3410    -8.5990  C.3     1  <O>11       0.0591
  27 C21     -10.3497    -1.4136    -8.7623  C.3     1  <O>11      -0.0265
  28 C22     -10.0231    -2.6824    -9.5724  C.3     1  <O>11      -0.0484
  29 C23      -8.6682    -2.7301    -8.8425  C.3     1  <O>11      -0.0265
  30 C24      -6.5512    -0.7389    -5.9809  C.3     1  <O>11      -0.0107
  31 C25      -5.1781    -0.0829    -5.8754  C.3     1  <O>11       0.0173
  32 H1       -7.7930     6.7378    -6.0383  H       1  <O>11       0.0377
  33 H2       -6.7760     7.6449    -4.8929  H       1  <O>11       0.0377
  34 H3      -10.7904     4.8288    -3.2301  H       1  <O>11       0.1921
  35 H4       -5.9118     2.7313    -7.6414  H       1  <O>11       0.0465
  36 H5       -5.2247     1.2225    -8.2907  H       1  <O>11       0.0465
  37 H6       -7.8898     1.5413    -6.8652  H       1  <O>11       0.0305
  38 H7       -7.6405     1.2261    -8.5991  H       1  <O>11       0.0305
  39 H8       -6.6614    -0.9441    -8.1131  H       1  <O>11       0.0597
  40 H9       -8.4536    -0.6901    -9.3341  H       1  <O>11       0.0596
  41 H10     -10.9186    -1.5762    -7.8478  H       1  <O>11       0.0290
  42 H11     -10.7981    -0.5989    -9.3296  H       1  <O>11       0.0290
  43 H12     -10.6769    -3.5304    -9.3695  H       1  <O>11       0.0267
  44 H13      -9.9525    -2.5273   -10.6487  H       1  <O>11       0.0267
  45 H14      -8.6364    -3.3624    -7.9558  H       1  <O>11       0.0290
  46 H15      -7.8045    -2.9418    -9.4722  H       1  <O>11       0.0290
  47 H16      -7.1850    -0.3589    -5.1796  H       1  <O>11       0.0305
  48 H17      -6.4357    -1.8179    -5.8731  H       1  <O>11       0.0305
  49 H18      -4.8045    -0.2122    -4.8597  H       1  <O>11       0.0465
  50 H19      -4.5007    -0.5715    -6.5769  H       1  <O>11       0.0465
  51 H20      -2.9094     3.7558    -6.6222  H       1  <O>11       0.0625
  52 H21      -2.9921     6.1247    -7.1479  H       1  <O>11       0.0618
  53 H22      -4.9196     7.4546    -6.4905  H       1  <O>11       0.0620
  54 H23      -7.6616     4.6855     0.2879  H       1  <O>11       0.0625
  55 H24      -5.3162     5.2417     0.5069  H       1  <O>11       0.0618
  56 H25      -4.1032     6.1503    -1.3844  H       1  <O>11       0.0618
  57 H26      -5.2370     6.5003    -3.4954  H       1  <O>11       0.0624
  58 H27      -6.6937     4.0385    -4.7783  H       1  <O>11       0.0628
@<TRIPOS>BOND
     1     1     2    2
     2     2     3    1
     3     3     4   ar
     4     4     5   ar
     5     5     6   ar
     6     6     7   ar
     7     7     8    1
     8     8     9    1
     9     9    10   ar
    10    10    11   ar
    11    11    12   ar
    12    12    13    2
    13    12    14   ar
    14    14    15   ar
    15    15    16   ar
    16    16    17   ar
    17    17    18   ar
    18    18    19   ar
    19     9    19   ar
    20    14    19   ar
    21     7    20   ar
    22     3    20   ar
    23     2    21   am
    24    21    22    1
    25    22    23    1
    26    23    24    1
    27    24    25    1
    28    25    26    1
    29    26    27    1
    30    27    28    1
    31    28    29    1
    32    26    29    1
    33    24    30    1
    34    30    31    1
    35    21    31    1
    36     8    32    1
    37     8    33    1
    38    11    34    1
    39    22    35    1
    40    22    36    1
    41    23    37    1
    42    23    38    1
    43    24    39    1
    44    26    40    1
    45    27    41    1
    46    27    42    1
    47    28    43    1
    48    28    44    1
    49    29    45    1
    50    29    46    1
    51    30    47    1
    52    30    48    1
    53    31    49    1
    54    31    50    1
    55     4    51    1
    56     5    52    1
    57     6    53    1
    58    15    54    1
    59    16    55    1
    60    17    56    1
    61    18    57    1
    62    20    58    1
@<TRIPOS>MOLECULE
mol96_2_11
 58 62 0 0 0
SMALL
USER_CHARGES
****
VDW energy = 16.61
@<TRIPOS>ATOM
   1 O1       -4.2425     1.9267    -4.2583  O.2     1  <O>11      -0.2700
   2 C1       -4.7326     2.2891    -5.3174  C.2     1  <O>11       0.2466
   3 C2       -4.7890     3.7070    -5.6470  C.ar    1  <O>11       0.0372
   4 C3       -3.7277     4.3170    -6.3385  C.ar    1  <O>11      -0.0496
   5 C4       -3.7762     5.6820    -6.6437  C.ar    1  <O>11      -0.0608
   6 C5       -4.8835     6.4476    -6.2675  C.ar    1  <O>11      -0.0582
   7 C6       -5.9421     5.8384    -5.5865  C.ar    1  <O>11      -0.0408
   8 C7       -7.1099     6.6512    -5.1933  C.3     1  <O>11       0.0171
   9 C8       -6.6706     7.7454    -4.2886  C.ar    1  <O>11       0.0736
  10 N1       -6.8820     9.0797    -4.6534  N.ar    1  <O>11      -0.1750
  11 N2       -6.3953    10.0861    -3.8912  N.ar    1  <O>11      -0.2425
  12 C9       -5.7100     9.7873    -2.7623  C.ar    1  <O>11       0.2725
  13 O2       -5.1470    10.8747    -2.0686  O.2     1  <O>11      -0.2658
  14 C10      -5.5441     8.4826    -2.2741  C.ar    1  <O>11       0.0496
  15 C11      -4.8801     8.1701    -1.0651  C.ar    1  <O>11      -0.0487
  16 C12      -4.7226     6.8460    -0.6531  C.ar    1  <O>11      -0.0610
  17 C13      -5.2156     5.8116    -1.4401  C.ar    1  <O>11      -0.0611
  18 C14      -5.8678     6.1005    -2.6405  C.ar    1  <O>11      -0.0521
  19 C15      -6.0441     7.4362    -3.0689  C.ar    1  <O>11       0.0106
  20 C16      -5.9043     4.4776    -5.2773  C.ar    1  <O>11      -0.0461
  21 N3       -5.2250     1.3690    -6.1880  N.am    1  <O>11      -0.2974
  22 C17      -5.2400    -0.1020    -5.9950  C.3     1  <O>11       0.0173
  23 C18      -4.5440    -0.8190    -7.1450  C.3     1  <O>11      -0.0107
  24 C19      -5.1700    -0.4400    -8.4830  C.3     1  <O>11       0.0619
  25 O3       -4.4180    -1.0300    -9.5300  O.3     1  <O>11      -0.3732
  26 C20      -5.3002    -1.5502   -10.5110  C.3     1  <O>11       0.0591
  27 C21      -4.6781    -2.5360   -11.3450  C.3     1  <O>11      -0.0265
  28 C22      -5.4774    -1.8473   -12.4673  C.3     1  <O>11      -0.0484
  29 C23      -5.5790    -0.6098   -11.5569  C.3     1  <O>11      -0.0265
  30 C24      -5.1840     1.0730    -8.6690  C.3     1  <O>11      -0.0107
  31 C25      -5.8260     1.7840    -7.4820  C.3     1  <O>11       0.0173
  32 H1       -7.8338     6.0206    -4.6770  H       1  <O>11       0.0377
  33 H2       -7.5711     7.0790    -6.0840  H       1  <O>11       0.0377
  34 H3       -6.5430    11.0483    -4.1613  H       1  <O>11       0.1921
  35 H4       -4.7260    -0.3420    -5.0640  H       1  <O>11       0.0465
  36 H5       -6.2740    -0.4420    -5.9380  H       1  <O>11       0.0465
  37 H6       -3.4900    -0.5410    -7.1530  H       1  <O>11       0.0305
  38 H7       -4.6340    -1.8960    -7.0000  H       1  <O>11       0.0305
  39 H8       -6.1940    -0.8130    -8.5160  H       1  <O>11       0.0597
  40 H9       -6.2042    -1.9203   -10.0269  H       1  <O>11       0.0596
  41 H10      -3.5947    -2.4622   -11.4295  H       1  <O>11       0.0290
  42 H11      -4.9572    -3.5684   -11.1377  H       1  <O>11       0.0290
  43 H12      -4.9184    -1.6868   -13.3890  H       1  <O>11       0.0267
  44 H13      -6.4322    -2.3189   -12.6988  H       1  <O>11       0.0267
  45 H14      -4.8168     0.1522   -11.7163  H       1  <O>11       0.0290
  46 H15      -6.5611    -0.1395   -11.5142  H       1  <O>11       0.0290
  47 H16      -4.1580     1.4250    -8.7770  H       1  <O>11       0.0305
  48 H17      -5.7480     1.3130    -9.5710  H       1  <O>11       0.0305
  49 H18      -5.6930     2.8590    -7.6030  H       1  <O>11       0.0465
  50 H19      -6.8910     1.5490    -7.4660  H       1  <O>11       0.0465
  51 H20      -2.9094     3.7558    -6.6222  H       1  <O>11       0.0625
  52 H21      -2.9921     6.1247    -7.1479  H       1  <O>11       0.0618
  53 H22      -4.9196     7.4546    -6.4905  H       1  <O>11       0.0620
  54 H23      -4.5064     8.9327    -0.4787  H       1  <O>11       0.0625
  55 H24      -4.2407     6.6351     0.2348  H       1  <O>11       0.0618
  56 H25      -5.0997     4.8317    -1.1377  H       1  <O>11       0.0618
  57 H26      -6.2262     5.3278    -3.2232  H       1  <O>11       0.0624
  58 H27      -6.6937     4.0385    -4.7783  H       1  <O>11       0.0628
@<TRIPOS>BOND
     1     1     2    2
     2     2     3    1
     3     3     4   ar
     4     4     5   ar
     5     5     6   ar
     6     6     7   ar
     7     7     8    1
     8     8     9    1
     9     9    10   ar
    10    10    11   ar
    11    11    12   ar
    12    12    13    2
    13    12    14   ar
    14    14    15   ar
    15    15    16   ar
    16    16    17   ar
    17    17    18   ar
    18    18    19   ar
    19     9    19   ar
    20    14    19   ar
    21     7    20   ar
    22     3    20   ar
    23     2    21   am
    24    21    22    1
    25    22    23    1
    26    23    24    1
    27    24    25    1
    28    25    26    1
    29    26    27    1
    30    27    28    1
    31    28    29    1
    32    26    29    1
    33    24    30    1
    34    30    31    1
    35    21    31    1
    36     8    32    1
    37     8    33    1
    38    11    34    1
    39    22    35    1
    40    22    36    1
    41    23    37    1
    42    23    38    1
    43    24    39    1
    44    26    40    1
    45    27    41    1
    46    27    42    1
    47    28    43    1
    48    28    44    1
    49    29    45    1
    50    29    46    1
    51    30    47    1
    52    30    48    1
    53    31    49    1
    54    31    50    1
    55     4    51    1
    56     5    52    1
    57     6    53    1
    58    15    54    1
    59    16    55    1
    60    17    56    1
    61    18    57    1
    62    20    58    1
@<TRIPOS>MOLECULE
mol96_2_12
 58 62 0 0 0
SMALL
USER_CHARGES
****
VDW energy = 17.00
@<TRIPOS>ATOM
   1 O1       -4.2425     1.9267    -4.2583  O.2     1  <O>11      -0.2700
   2 C1       -4.7326     2.2891    -5.3174  C.2     1  <O>11       0.2466
   3 C2       -4.7890     3.7070    -5.6470  C.ar    1  <O>11       0.0372
   4 C3       -3.7277     4.3170    -6.3385  C.ar    1  <O>11      -0.0496
   5 C4       -3.7762     5.6820    -6.6437  C.ar    1  <O>11      -0.0608
   6 C5       -4.8835     6.4476    -6.2675  C.ar    1  <O>11      -0.0582
   7 C6       -5.9421     5.8384    -5.5865  C.ar    1  <O>11      -0.0408
   8 C7       -7.1099     6.6512    -5.1933  C.3     1  <O>11       0.0171
   9 C8       -6.6706     7.7454    -4.2886  C.ar    1  <O>11       0.0736
  10 N1       -5.3273     8.1368    -4.2680  N.ar    1  <O>11      -0.1750
  11 N2       -4.8932     9.0577    -3.3768  N.ar    1  <O>11      -0.2425
  12 C9       -5.7777     9.6066    -2.5109  C.ar    1  <O>11       0.2725
  13 O2       -5.2447    10.4827    -1.5471  O.2     1  <O>11      -0.2658
  14 C10      -7.1558     9.3454    -2.5350  C.ar    1  <O>11       0.0496
  15 C11      -8.0916     9.9608    -1.6713  C.ar    1  <O>11      -0.0487
  16 C12      -9.4466     9.6312    -1.7277  C.ar    1  <O>11      -0.0610
  17 C13      -9.8914     8.6792    -2.6379  C.ar    1  <O>11      -0.0611
  18 C14      -8.9811     8.0559    -3.4937  C.ar    1  <O>11      -0.0521
  19 C15      -7.6064     8.3839    -3.4566  C.ar    1  <O>11       0.0106
  20 C16      -5.9043     4.4776    -5.2773  C.ar    1  <O>11      -0.0461
  21 N3       -5.2250     1.3690    -6.1880  N.am    1  <O>11      -0.2974
  22 C17      -5.2400    -0.1020    -5.9950  C.3     1  <O>11       0.0173
  23 C18      -4.5440    -0.8190    -7.1450  C.3     1  <O>11      -0.0107
  24 C19      -5.1700    -0.4400    -8.4830  C.3     1  <O>11       0.0619
  25 O3       -4.4180    -1.0300    -9.5300  O.3     1  <O>11      -0.3732
  26 C20      -5.3002    -1.5502   -10.5110  C.3     1  <O>11       0.0591
  27 C21      -4.6781    -2.5360   -11.3450  C.3     1  <O>11      -0.0265
  28 C22      -5.4774    -1.8473   -12.4673  C.3     1  <O>11      -0.0484
  29 C23      -5.5790    -0.6098   -11.5569  C.3     1  <O>11      -0.0265
  30 C24      -5.1840     1.0730    -8.6690  C.3     1  <O>11      -0.0107
  31 C25      -5.8260     1.7840    -7.4820  C.3     1  <O>11       0.0173
  32 H1       -7.8338     6.0206    -4.6770  H       1  <O>11       0.0377
  33 H2       -7.5711     7.0790    -6.0840  H       1  <O>11       0.0377
  34 H3       -3.9213     9.3326    -3.3593  H       1  <O>11       0.1921
  35 H4       -4.7260    -0.3420    -5.0640  H       1  <O>11       0.0465
  36 H5       -6.2740    -0.4420    -5.9380  H       1  <O>11       0.0465
  37 H6       -3.4900    -0.5410    -7.1530  H       1  <O>11       0.0305
  38 H7       -4.6340    -1.8960    -7.0000  H       1  <O>11       0.0305
  39 H8       -6.1940    -0.8130    -8.5160  H       1  <O>11       0.0597
  40 H9       -6.2042    -1.9203   -10.0269  H       1  <O>11       0.0596
  41 H10      -3.5947    -2.4622   -11.4295  H       1  <O>11       0.0290
  42 H11      -4.9572    -3.5684   -11.1377  H       1  <O>11       0.0290
  43 H12      -4.9184    -1.6868   -13.3890  H       1  <O>11       0.0267
  44 H13      -6.4322    -2.3189   -12.6988  H       1  <O>11       0.0267
  45 H14      -4.8168     0.1522   -11.7163  H       1  <O>11       0.0290
  46 H15      -6.5611    -0.1395   -11.5142  H       1  <O>11       0.0290
  47 H16      -4.1580     1.4250    -8.7770  H       1  <O>11       0.0305
  48 H17      -5.7480     1.3130    -9.5710  H       1  <O>11       0.0305
  49 H18      -5.6930     2.8590    -7.6030  H       1  <O>11       0.0465
  50 H19      -6.8910     1.5490    -7.4660  H       1  <O>11       0.0465
  51 H20      -2.9094     3.7558    -6.6222  H       1  <O>11       0.0625
  52 H21      -2.9921     6.1247    -7.1479  H       1  <O>11       0.0618
  53 H22      -4.9196     7.4546    -6.4905  H       1  <O>11       0.0620
  54 H23      -7.7676    10.6641    -0.9891  H       1  <O>11       0.0625
  55 H24     -10.1176    10.0936    -1.0945  H       1  <O>11       0.0618
  56 H25     -10.8929     8.4335    -2.6809  H       1  <O>11       0.0618
  57 H26      -9.3167     7.3457    -4.1631  H       1  <O>11       0.0624
  58 H27      -6.6937     4.0385    -4.7783  H       1  <O>11       0.0628
@<TRIPOS>BOND
     1     1     2    2
     2     2     3    1
     3     3     4   ar
     4     4     5   ar
     5     5     6   ar
     6     6     7   ar
     7     7     8    1
     8     8     9    1
     9     9    10   ar
    10    10    11   ar
    11    11    12   ar
    12    12    13    2
    13    12    14   ar
    14    14    15   ar
    15    15    16   ar
    16    16    17   ar
    17    17    18   ar
    18    18    19   ar
    19     9    19   ar
    20    14    19   ar
    21     7    20   ar
    22     3    20   ar
    23     2    21   am
    24    21    22    1
    25    22    23    1
    26    23    24    1
    27    24    25    1
    28    25    26    1
    29    26    27    1
    30    27    28    1
    31    28    29    1
    32    26    29    1
    33    24    30    1
    34    30    31    1
    35    21    31    1
    36     8    32    1
    37     8    33    1
    38    11    34    1
    39    22    35    1
    40    22    36    1
    41    23    37    1
    42    23    38    1
    43    24    39    1
    44    26    40    1
    45    27    41    1
    46    27    42    1
    47    28    43    1
    48    28    44    1
    49    29    45    1
    50    29    46    1
    51    30    47    1
    52    30    48    1
    53    31    49    1
    54    31    50    1
    55     4    51    1
    56     5    52    1
    57     6    53    1
    58    15    54    1
    59    16    55    1
    60    17    56    1
    61    18    57    1
    62    20    58    1
@<TRIPOS>MOLECULE
mol96_2_13
 58 62 0 0 0
SMALL
USER_CHARGES
****
VDW energy = 20.44
@<TRIPOS>ATOM
   1 O1       -4.2425     1.9267    -4.2583  O.2     1  <O>11      -0.2700
   2 C1       -4.7326     2.2891    -5.3174  C.2     1  <O>11       0.2466
   3 C2       -4.7890     3.7070    -5.6470  C.ar    1  <O>11       0.0372
   4 C3       -3.7277     4.3170    -6.3385  C.ar    1  <O>11      -0.0496
   5 C4       -3.7762     5.6820    -6.6437  C.ar    1  <O>11      -0.0608
   6 C5       -4.8835     6.4476    -6.2675  C.ar    1  <O>11      -0.0582
   7 C6       -5.9421     5.8384    -5.5865  C.ar    1  <O>11      -0.0408
   8 C7       -7.1099     6.6512    -5.1933  C.3     1  <O>11       0.0171
   9 C8       -6.6706     7.7454    -4.2886  C.ar    1  <O>11       0.0736
  10 N1       -6.6430     7.5382    -2.9050  N.ar    1  <O>11      -0.1750
  11 N2       -6.3461     8.5552    -2.0634  N.ar    1  <O>11      -0.2425
  12 C9       -6.0637     9.7758    -2.5767  C.ar    1  <O>11       0.2725
  13 O2       -5.8605    10.8117    -1.6460  O.2     1  <O>11      -0.2658
  14 C10      -5.9694    10.0400    -3.9513  C.ar    1  <O>11       0.0496
  15 C11      -5.6169    11.2987    -4.4914  C.ar    1  <O>11      -0.0487
  16 C12      -5.5724    11.5016    -5.8715  C.ar    1  <O>11      -0.0610
  17 C13      -5.8852    10.4590    -6.7361  C.ar    1  <O>11      -0.0611
  18 C14      -6.2422     9.2112    -6.2211  C.ar    1  <O>11      -0.0521
  19 C15      -6.2839     8.9852    -4.8261  C.ar    1  <O>11       0.0106
  20 C16      -5.9043     4.4776    -5.2773  C.ar    1  <O>11      -0.0461
  21 N3       -5.2250     1.3690    -6.1880  N.am    1  <O>11      -0.2974
  22 C17      -5.2400    -0.1020    -5.9950  C.3     1  <O>11       0.0173
  23 C18      -4.5440    -0.8190    -7.1450  C.3     1  <O>11      -0.0107
  24 C19      -5.1700    -0.4400    -8.4830  C.3     1  <O>11       0.0619
  25 O3       -4.4180    -1.0300    -9.5300  O.3     1  <O>11      -0.3732
  26 C20      -5.3002    -1.5502   -10.5110  C.3     1  <O>11       0.0591
  27 C21      -4.6781    -2.5360   -11.3450  C.3     1  <O>11      -0.0265
  28 C22      -5.4774    -1.8473   -12.4673  C.3     1  <O>11      -0.0484
  29 C23      -5.5790    -0.6098   -11.5569  C.3     1  <O>11      -0.0265
  30 C24      -5.1840     1.0730    -8.6690  C.3     1  <O>11      -0.0107
  31 C25      -5.8260     1.7840    -7.4820  C.3     1  <O>11       0.0173
  32 H1       -7.8338     6.0206    -4.6770  H       1  <O>11       0.0377
  33 H2       -7.5711     7.0790    -6.0840  H       1  <O>11       0.0377
  34 H3       -6.3346     8.4043    -1.0646  H       1  <O>11       0.1921
  35 H4       -4.7260    -0.3420    -5.0640  H       1  <O>11       0.0465
  36 H5       -6.2740    -0.4420    -5.9380  H       1  <O>11       0.0465
  37 H6       -3.4900    -0.5410    -7.1530  H       1  <O>11       0.0305
  38 H7       -4.6340    -1.8960    -7.0000  H       1  <O>11       0.0305
  39 H8       -6.1940    -0.8130    -8.5160  H       1  <O>11       0.0597
  40 H9       -6.2042    -1.9203   -10.0269  H       1  <O>11       0.0596
  41 H10      -3.5947    -2.4622   -11.4295  H       1  <O>11       0.0290
  42 H11      -4.9572    -3.5684   -11.1377  H       1  <O>11       0.0290
  43 H12      -4.9184    -1.6868   -13.3890  H       1  <O>11       0.0267
  44 H13      -6.4322    -2.3189   -12.6988  H       1  <O>11       0.0267
  45 H14      -4.8168     0.1522   -11.7163  H       1  <O>11       0.0290
  46 H15      -6.5611    -0.1395   -11.5142  H       1  <O>11       0.0290
  47 H16      -4.1580     1.4250    -8.7770  H       1  <O>11       0.0305
  48 H17      -5.7480     1.3130    -9.5710  H       1  <O>11       0.0305
  49 H18      -5.6930     2.8590    -7.6030  H       1  <O>11       0.0465
  50 H19      -6.8910     1.5490    -7.4660  H       1  <O>11       0.0465
  51 H20      -2.9094     3.7558    -6.6222  H       1  <O>11       0.0625
  52 H21      -2.9921     6.1247    -7.1479  H       1  <O>11       0.0618
  53 H22      -4.9196     7.4546    -6.4905  H       1  <O>11       0.0620
  54 H23      -5.3893    12.0790    -3.8554  H       1  <O>11       0.0625
  55 H24      -5.3076    12.4246    -6.2497  H       1  <O>11       0.0618
  56 H25      -5.8535    10.6069    -7.7570  H       1  <O>11       0.0618
  57 H26      -6.4790     8.4429    -6.8682  H       1  <O>11       0.0624
  58 H27      -6.6937     4.0385    -4.7783  H       1  <O>11       0.0628
@<TRIPOS>BOND
     1     1     2    2
     2     2     3    1
     3     3     4   ar
     4     4     5   ar
     5     5     6   ar
     6     6     7   ar
     7     7     8    1
     8     8     9    1
     9     9    10   ar
    10    10    11   ar
    11    11    12   ar
    12    12    13    2
    13    12    14   ar
    14    14    15   ar
    15    15    16   ar
    16    16    17   ar
    17    17    18   ar
    18    18    19   ar
    19     9    19   ar
    20    14    19   ar
    21     7    20   ar
    22     3    20   ar
    23     2    21   am
    24    21    22    1
    25    22    23    1
    26    23    24    1
    27    24    25    1
    28    25    26    1
    29    26    27    1
    30    27    28    1
    31    28    29    1
    32    26    29    1
    33    24    30    1
    34    30    31    1
    35    21    31    1
    36     8    32    1
    37     8    33    1
    38    11    34    1
    39    22    35    1
    40    22    36    1
    41    23    37    1
    42    23    38    1
    43    24    39    1
    44    26    40    1
    45    27    41    1
    46    27    42    1
    47    28    43    1
    48    28    44    1
    49    29    45    1
    50    29    46    1
    51    30    47    1
    52    30    48    1
    53    31    49    1
    54    31    50    1
    55     4    51    1
    56     5    52    1
    57     6    53    1
    58    15    54    1
    59    16    55    1
    60    17    56    1
    61    18    57    1
    62    20    58    1
@<TRIPOS>MOLECULE
mol96_2_14
 58 62 0 0 0
SMALL
USER_CHARGES
****
VDW energy = 27.27
@<TRIPOS>ATOM
   1 O1       -4.2425     1.9267    -4.2583  O.2     1  <O>11      -0.2700
   2 C1       -4.7326     2.2891    -5.3174  C.2     1  <O>11       0.2466
   3 C2       -4.7890     3.7070    -5.6470  C.ar    1  <O>11       0.0372
   4 C3       -5.9236     4.2430    -6.2811  C.ar    1  <O>11      -0.0496
   5 C4       -5.9723     5.6026    -6.6094  C.ar    1  <O>11      -0.0608
   6 C5       -4.8945     6.4387    -6.3039  C.ar    1  <O>11      -0.0582
   7 C6       -3.7697     5.9063    -5.6662  C.ar    1  <O>11      -0.0408
   8 C7       -2.6352     6.7941    -5.3442  C.3     1  <O>11       0.0171
   9 C8       -1.6802     6.8114    -6.4829  C.ar    1  <O>11       0.0736
  10 N1       -2.1056     6.4174    -7.7564  N.ar    1  <O>11      -0.1750
  11 N2       -1.2237     6.3281    -8.7786  N.ar    1  <O>11      -0.2425
  12 C9        0.0762     6.6365    -8.5579  C.ar    1  <O>11       0.2725
  13 O2        0.9577     6.4286    -9.6351  O.2     1  <O>11      -0.2658
  14 C10       0.5623     7.1368    -7.3408  C.ar    1  <O>11       0.0496
  15 C11       1.9074     7.5159    -7.1234  C.ar    1  <O>11      -0.0487
  16 C12       2.3315     7.9772    -5.8763  C.ar    1  <O>11      -0.0610
  17 C13       1.4272     8.0614    -4.8239  C.ar    1  <O>11      -0.0611
  18 C14       0.0967     7.6849    -5.0178  C.ar    1  <O>11      -0.0521
  19 C15      -0.3524     7.2238    -6.2766  C.ar    1  <O>11       0.0106
  20 C16      -3.7107     4.5517    -5.3340  C.ar    1  <O>11      -0.0461
  21 N3       -5.2250     1.3690    -6.1880  N.am    1  <O>11      -0.2974
  22 C17      -5.8467     1.6516    -7.5052  C.3     1  <O>11       0.0173
  23 C18      -7.2453     1.0547    -7.5974  C.3     1  <O>11      -0.0107
  24 C19      -7.2181    -0.4446    -7.3197  C.3     1  <O>11       0.0619
  25 O3       -8.5479    -0.9353    -7.2943  O.3     1  <O>11      -0.3732
  26 C20      -8.6077    -2.1755    -7.9794  C.3     1  <O>11       0.0591
  27 C21      -8.8877    -2.0208    -9.3766  C.3     1  <O>11      -0.0265
  28 C22      -9.7741    -3.2627    -9.1646  C.3     1  <O>11      -0.0484
  29 C23      -9.7884    -2.9249    -7.6625  C.3     1  <O>11      -0.0265
  30 C24      -6.5512    -0.7389    -5.9809  C.3     1  <O>11      -0.0107
  31 C25      -5.1781    -0.0829    -5.8754  C.3     1  <O>11       0.0173
  32 H1       -2.1297     6.4276    -4.4507  H       1  <O>11       0.0377
  33 H2       -3.0044     7.8042    -5.1641  H       1  <O>11       0.0377
  34 H3       -1.5324     6.0359    -9.6951  H       1  <O>11       0.1921
  35 H4       -5.9118     2.7313    -7.6414  H       1  <O>11       0.0465
  36 H5       -5.2247     1.2225    -8.2907  H       1  <O>11       0.0465
  37 H6       -7.8898     1.5413    -6.8652  H       1  <O>11       0.0305
  38 H7       -7.6405     1.2261    -8.5991  H       1  <O>11       0.0305
  39 H8       -6.6614    -0.9441    -8.1131  H       1  <O>11       0.0597
  40 H9       -7.6916    -2.7370    -7.7948  H       1  <O>11       0.0596
  41 H10      -9.4175    -1.1094    -9.6503  H       1  <O>11       0.0290
  42 H11      -8.0373    -2.1613   -10.0429  H       1  <O>11       0.0290
  43 H12     -10.7488    -3.2119    -9.6495  H       1  <O>11       0.0267
  44 H13      -9.2943    -4.2095    -9.4113  H       1  <O>11       0.0267
  45 H14     -10.6396    -2.3354    -7.3235  H       1  <O>11       0.0290
  46 H15      -9.6402    -3.7703    -6.9911  H       1  <O>11       0.0290
  47 H16      -7.1850    -0.3589    -5.1796  H       1  <O>11       0.0305
  48 H17      -6.4357    -1.8179    -5.8731  H       1  <O>11       0.0305
  49 H18      -4.8045    -0.2122    -4.8597  H       1  <O>11       0.0465
  50 H19      -4.5007    -0.5715    -6.5769  H       1  <O>11       0.0465
  51 H20      -6.7239     3.6312    -6.5055  H       1  <O>11       0.0625
  52 H21      -6.8063     5.9891    -7.0785  H       1  <O>11       0.0618
  53 H22      -4.9287     7.4411    -6.5470  H       1  <O>11       0.0620
  54 H23       2.5855     7.4505    -7.8986  H       1  <O>11       0.0625
  55 H24       3.3153     8.2555    -5.7357  H       1  <O>11       0.0618
  56 H25       1.7387     8.4017    -3.9007  H       1  <O>11       0.0618
  57 H26      -0.5684     7.7441    -4.2309  H       1  <O>11       0.0624
  58 H27      -2.8768     4.1715    -4.8595  H       1  <O>11       0.0628
@<TRIPOS>BOND
     1     1     2    2
     2     2     3    1
     3     3     4   ar
     4     4     5   ar
     5     5     6   ar
     6     6     7   ar
     7     7     8    1
     8     8     9    1
     9     9    10   ar
    10    10    11   ar
    11    11    12   ar
    12    12    13    2
    13    12    14   ar
    14    14    15   ar
    15    15    16   ar
    16    16    17   ar
    17    17    18   ar
    18    18    19   ar
    19     9    19   ar
    20    14    19   ar
    21     7    20   ar
    22     3    20   ar
    23     2    21   am
    24    21    22    1
    25    22    23    1
    26    23    24    1
    27    24    25    1
    28    25    26    1
    29    26    27    1
    30    27    28    1
    31    28    29    1
    32    26    29    1
    33    24    30    1
    34    30    31    1
    35    21    31    1
    36     8    32    1
    37     8    33    1
    38    11    34    1
    39    22    35    1
    40    22    36    1
    41    23    37    1
    42    23    38    1
    43    24    39    1
    44    26    40    1
    45    27    41    1
    46    27    42    1
    47    28    43    1
    48    28    44    1
    49    29    45    1
    50    29    46    1
    51    30    47    1
    52    30    48    1
    53    31    49    1
    54    31    50    1
    55     4    51    1
    56     5    52    1
    57     6    53    1
    58    15    54    1
    59    16    55    1
    60    17    56    1
    61    18    57    1
    62    20    58    1
@<TRIPOS>MOLECULE
mol96_2_15
 58 62 0 0 0
SMALL
USER_CHARGES
****
VDW energy = 29.33
@<TRIPOS>ATOM
   1 O1       -4.2425     1.9267    -4.2583  O.2     1  <O>11      -0.2700
   2 C1       -4.7326     2.2891    -5.3174  C.2     1  <O>11       0.2466
   3 C2       -4.7890     3.7070    -5.6470  C.ar    1  <O>11       0.0372
   4 C3       -5.9236     4.2430    -6.2811  C.ar    1  <O>11      -0.0496
   5 C4       -5.9723     5.6026    -6.6094  C.ar    1  <O>11      -0.0608
   6 C5       -4.8945     6.4387    -6.3039  C.ar    1  <O>11      -0.0582
   7 C6       -3.7697     5.9063    -5.6662  C.ar    1  <O>11      -0.0408
   8 C7       -2.6352     6.7941    -5.3442  C.3     1  <O>11       0.0171
   9 C8       -2.8278     7.3734    -3.9892  C.ar    1  <O>11       0.0736
  10 N1       -3.6961     6.7550    -3.0829  N.ar    1  <O>11      -0.1750
  11 N2       -3.9615     7.3268    -1.8857  N.ar    1  <O>11      -0.2425
  12 C9       -3.3667     8.5011    -1.5686  C.ar    1  <O>11       0.2725
  13 O2       -3.7601     9.0909    -0.3529  O.2     1  <O>11      -0.2658
  14 C10      -2.4079     9.1315    -2.3757  C.ar    1  <O>11       0.0496
  15 C11      -1.7406    10.3273    -2.0219  C.ar    1  <O>11      -0.0487
  16 C12      -0.8191    10.9190    -2.8871  C.ar    1  <O>11      -0.0610
  17 C13      -0.5524    10.3358    -4.1205  C.ar    1  <O>11      -0.0611
  18 C14      -1.2068     9.1590    -4.4900  C.ar    1  <O>11      -0.0521
  19 C15      -2.1365     8.5410    -3.6225  C.ar    1  <O>11       0.0106
  20 C16      -3.7107     4.5517    -5.3340  C.ar    1  <O>11      -0.0461
  21 N3       -5.2250     1.3690    -6.1880  N.am    1  <O>11      -0.2974
  22 C17      -5.8467     1.6516    -7.5052  C.3     1  <O>11       0.0173
  23 C18      -7.2453     1.0547    -7.5974  C.3     1  <O>11      -0.0107
  24 C19      -7.2181    -0.4446    -7.3197  C.3     1  <O>11       0.0619
  25 O3       -8.5479    -0.9353    -7.2943  O.3     1  <O>11      -0.3732
  26 C20      -8.9275    -1.3410    -8.5990  C.3     1  <O>11       0.0591
  27 C21      -9.5292    -0.2809    -9.3532  C.3     1  <O>11      -0.0265
  28 C22     -10.4770    -1.3928    -9.8414  C.3     1  <O>11      -0.0484
  29 C23     -10.0720    -2.2048    -8.5975  C.3     1  <O>11      -0.0265
  30 C24      -6.5512    -0.7389    -5.9809  C.3     1  <O>11      -0.0107
  31 C25      -5.1781    -0.0829    -5.8754  C.3     1  <O>11       0.0173
  32 H1       -2.5827     7.5971    -6.0795  H       1  <O>11       0.0377
  33 H2       -1.7079     6.2207    -5.3660  H       1  <O>11       0.0377
  34 H3       -4.5949     6.8817    -1.2366  H       1  <O>11       0.1921
  35 H4       -5.9118     2.7313    -7.6414  H       1  <O>11       0.0465
  36 H5       -5.2247     1.2225    -8.2907  H       1  <O>11       0.0465
  37 H6       -7.8898     1.5413    -6.8652  H       1  <O>11       0.0305
  38 H7       -7.6405     1.2261    -8.5991  H       1  <O>11       0.0305
  39 H8       -6.6614    -0.9441    -8.1131  H       1  <O>11       0.0597
  40 H9       -8.0691    -1.7819    -9.1064  H       1  <O>11       0.0596
  41 H10      -9.9968     0.5066    -8.7637  H       1  <O>11       0.0290
  42 H11      -8.8973     0.1653   -10.1202  H       1  <O>11       0.0290
  43 H12     -11.5288    -1.1095    -9.8745  H       1  <O>11       0.0267
  44 H13     -10.1927    -1.8463   -10.7906  H       1  <O>11       0.0267
  45 H14     -10.7330    -2.1040    -7.7373  H       1  <O>11       0.0290
  46 H15      -9.8628    -3.2595    -8.7747  H       1  <O>11       0.0290
  47 H16      -7.1850    -0.3589    -5.1796  H       1  <O>11       0.0305
  48 H17      -6.4357    -1.8179    -5.8731  H       1  <O>11       0.0305
  49 H18      -4.8045    -0.2122    -4.8597  H       1  <O>11       0.0465
  50 H19      -4.5007    -0.5715    -6.5769  H       1  <O>11       0.0465
  51 H20      -6.7239     3.6312    -6.5055  H       1  <O>11       0.0625
  52 H21      -6.8063     5.9891    -7.0785  H       1  <O>11       0.0618
  53 H22      -4.9287     7.4411    -6.5470  H       1  <O>11       0.0620
  54 H23      -1.9380    10.7689    -1.1103  H       1  <O>11       0.0625
  55 H24      -0.3362    11.7885    -2.6115  H       1  <O>11       0.0618
  56 H25       0.1283    10.7720    -4.7621  H       1  <O>11       0.0618
  57 H26      -1.0088     8.7343    -5.4094  H       1  <O>11       0.0624
  58 H27      -2.8768     4.1715    -4.8595  H       1  <O>11       0.0628
@<TRIPOS>BOND
     1     1     2    2
     2     2     3    1
     3     3     4   ar
     4     4     5   ar
     5     5     6   ar
     6     6     7   ar
     7     7     8    1
     8     8     9    1
     9     9    10   ar
    10    10    11   ar
    11    11    12   ar
    12    12    13    2
    13    12    14   ar
    14    14    15   ar
    15    15    16   ar
    16    16    17   ar
    17    17    18   ar
    18    18    19   ar
    19     9    19   ar
    20    14    19   ar
    21     7    20   ar
    22     3    20   ar
    23     2    21   am
    24    21    22    1
    25    22    23    1
    26    23    24    1
    27    24    25    1
    28    25    26    1
    29    26    27    1
    30    27    28    1
    31    28    29    1
    32    26    29    1
    33    24    30    1
    34    30    31    1
    35    21    31    1
    36     8    32    1
    37     8    33    1
    38    11    34    1
    39    22    35    1
    40    22    36    1
    41    23    37    1
    42    23    38    1
    43    24    39    1
    44    26    40    1
    45    27    41    1
    46    27    42    1
    47    28    43    1
    48    28    44    1
    49    29    45    1
    50    29    46    1
    51    30    47    1
    52    30    48    1
    53    31    49    1
    54    31    50    1
    55     4    51    1
    56     5    52    1
    57     6    53    1
    58    15    54    1
    59    16    55    1
    60    17    56    1
    61    18    57    1
    62    20    58    1
@<TRIPOS>MOLECULE
mol96_2_16
 58 62 0 0 0
SMALL
USER_CHARGES
****
VDW energy = 29.71
@<TRIPOS>ATOM
   1 O1       -4.2425     1.9267    -4.2583  O.2     1  <O>11      -0.2700
   2 C1       -4.7326     2.2891    -5.3174  C.2     1  <O>11       0.2466
   3 C2       -4.7890     3.7070    -5.6470  C.ar    1  <O>11       0.0372
   4 C3       -5.9236     4.2430    -6.2811  C.ar    1  <O>11      -0.0496
   5 C4       -5.9723     5.6026    -6.6094  C.ar    1  <O>11      -0.0608
   6 C5       -4.8945     6.4387    -6.3039  C.ar    1  <O>11      -0.0582
   7 C6       -3.7697     5.9063    -5.6662  C.ar    1  <O>11      -0.0408
   8 C7       -2.6352     6.7941    -5.3442  C.3     1  <O>11       0.0171
   9 C8       -1.6802     6.8114    -6.4829  C.ar    1  <O>11       0.0736
  10 N1       -2.1056     6.4174    -7.7564  N.ar    1  <O>11      -0.1750
  11 N2       -1.2237     6.3281    -8.7786  N.ar    1  <O>11      -0.2425
  12 C9        0.0762     6.6365    -8.5579  C.ar    1  <O>11       0.2725
  13 O2        0.9577     6.4286    -9.6351  O.2     1  <O>11      -0.2658
  14 C10       0.5623     7.1368    -7.3408  C.ar    1  <O>11       0.0496
  15 C11       1.9074     7.5159    -7.1234  C.ar    1  <O>11      -0.0487
  16 C12       2.3315     7.9772    -5.8763  C.ar    1  <O>11      -0.0610
  17 C13       1.4272     8.0614    -4.8239  C.ar    1  <O>11      -0.0611
  18 C14       0.0967     7.6849    -5.0178  C.ar    1  <O>11      -0.0521
  19 C15      -0.3524     7.2238    -6.2766  C.ar    1  <O>11       0.0106
  20 C16      -3.7107     4.5517    -5.3340  C.ar    1  <O>11      -0.0461
  21 N3       -5.2250     1.3690    -6.1880  N.am    1  <O>11      -0.2974
  22 C17      -5.8467     1.6516    -7.5052  C.3     1  <O>11       0.0173
  23 C18      -7.2453     1.0547    -7.5974  C.3     1  <O>11      -0.0107
  24 C19      -7.2181    -0.4446    -7.3197  C.3     1  <O>11       0.0619
  25 O3       -8.5479    -0.9353    -7.2943  O.3     1  <O>11      -0.3732
  26 C20      -8.9275    -1.3410    -8.5990  C.3     1  <O>11       0.0591
  27 C21      -9.5292    -0.2809    -9.3532  C.3     1  <O>11      -0.0265
  28 C22     -10.4770    -1.3928    -9.8414  C.3     1  <O>11      -0.0484
  29 C23     -10.0720    -2.2048    -8.5975  C.3     1  <O>11      -0.0265
  30 C24      -6.5512    -0.7389    -5.9809  C.3     1  <O>11      -0.0107
  31 C25      -5.1781    -0.0829    -5.8754  C.3     1  <O>11       0.0173
  32 H1       -2.1297     6.4276    -4.4507  H       1  <O>11       0.0377
  33 H2       -3.0044     7.8042    -5.1641  H       1  <O>11       0.0377
  34 H3       -1.5324     6.0359    -9.6951  H       1  <O>11       0.1921
  35 H4       -5.9118     2.7313    -7.6414  H       1  <O>11       0.0465
  36 H5       -5.2247     1.2225    -8.2907  H       1  <O>11       0.0465
  37 H6       -7.8898     1.5413    -6.8652  H       1  <O>11       0.0305
  38 H7       -7.6405     1.2261    -8.5991  H       1  <O>11       0.0305
  39 H8       -6.6614    -0.9441    -8.1131  H       1  <O>11       0.0597
  40 H9       -8.0691    -1.7819    -9.1064  H       1  <O>11       0.0596
  41 H10      -9.9968     0.5066    -8.7637  H       1  <O>11       0.0290
  42 H11      -8.8973     0.1653   -10.1202  H       1  <O>11       0.0290
  43 H12     -11.5288    -1.1095    -9.8745  H       1  <O>11       0.0267
  44 H13     -10.1927    -1.8463   -10.7906  H       1  <O>11       0.0267
  45 H14     -10.7330    -2.1040    -7.7373  H       1  <O>11       0.0290
  46 H15      -9.8628    -3.2595    -8.7747  H       1  <O>11       0.0290
  47 H16      -7.1850    -0.3589    -5.1796  H       1  <O>11       0.0305
  48 H17      -6.4357    -1.8179    -5.8731  H       1  <O>11       0.0305
  49 H18      -4.8045    -0.2122    -4.8597  H       1  <O>11       0.0465
  50 H19      -4.5007    -0.5715    -6.5769  H       1  <O>11       0.0465
  51 H20      -6.7239     3.6312    -6.5055  H       1  <O>11       0.0625
  52 H21      -6.8063     5.9891    -7.0785  H       1  <O>11       0.0618
  53 H22      -4.9287     7.4411    -6.5470  H       1  <O>11       0.0620
  54 H23       2.5855     7.4505    -7.8986  H       1  <O>11       0.0625
  55 H24       3.3153     8.2555    -5.7357  H       1  <O>11       0.0618
  56 H25       1.7387     8.4017    -3.9007  H       1  <O>11       0.0618
  57 H26      -0.5684     7.7441    -4.2309  H       1  <O>11       0.0624
  58 H27      -2.8768     4.1715    -4.8595  H       1  <O>11       0.0628
@<TRIPOS>BOND
     1     1     2    2
     2     2     3    1
     3     3     4   ar
     4     4     5   ar
     5     5     6   ar
     6     6     7   ar
     7     7     8    1
     8     8     9    1
     9     9    10   ar
    10    10    11   ar
    11    11    12   ar
    12    12    13    2
    13    12    14   ar
    14    14    15   ar
    15    15    16   ar
    16    16    17   ar
    17    17    18   ar
    18    18    19   ar
    19     9    19   ar
    20    14    19   ar
    21     7    20   ar
    22     3    20   ar
    23     2    21   am
    24    21    22    1
    25    22    23    1
    26    23    24    1
    27    24    25    1
    28    25    26    1
    29    26    27    1
    30    27    28    1
    31    28    29    1
    32    26    29    1
    33    24    30    1
    34    30    31    1
    35    21    31    1
    36     8    32    1
    37     8    33    1
    38    11    34    1
    39    22    35    1
    40    22    36    1
    41    23    37    1
    42    23    38    1
    43    24    39    1
    44    26    40    1
    45    27    41    1
    46    27    42    1
    47    28    43    1
    48    28    44    1
    49    29    45    1
    50    29    46    1
    51    30    47    1
    52    30    48    1
    53    31    49    1
    54    31    50    1
    55     4    51    1
    56     5    52    1
    57     6    53    1
    58    15    54    1
    59    16    55    1
    60    17    56    1
    61    18    57    1
    62    20    58    1
@<TRIPOS>MOLECULE
mol96_2_17
 58 62 0 0 0
SMALL
USER_CHARGES
****
VDW energy = 31.22
@<TRIPOS>ATOM
   1 O1       -4.2425     1.9267    -4.2583  O.2     1  <O>11      -0.2700
   2 C1       -4.7326     2.2891    -5.3174  C.2     1  <O>11       0.2466
   3 C2       -4.7890     3.7070    -5.6470  C.ar    1  <O>11       0.0372
   4 C3       -3.7277     4.3170    -6.3385  C.ar    1  <O>11      -0.0496
   5 C4       -3.7762     5.6820    -6.6437  C.ar    1  <O>11      -0.0608
   6 C5       -4.8835     6.4476    -6.2675  C.ar    1  <O>11      -0.0582
   7 C6       -5.9421     5.8384    -5.5865  C.ar    1  <O>11      -0.0408
   8 C7       -7.1099     6.6512    -5.1933  C.3     1  <O>11       0.0171
   9 C8       -7.8083     5.9981    -4.0555  C.ar    1  <O>11       0.0736
  10 N1       -7.1324     5.0596    -3.2678  N.ar    1  <O>11      -0.1750
  11 N2       -7.7844     4.3810    -2.2957  N.ar    1  <O>11      -0.2425
  12 C9       -9.0986     4.6294    -2.0850  C.ar    1  <O>11       0.2725
  13 O2       -9.7401     3.8214    -1.1277  O.2     1  <O>11      -0.2658
  14 C10      -9.8212     5.6248    -2.7596  C.ar    1  <O>11       0.0496
  15 C11     -11.1784     5.9277    -2.5015  C.ar    1  <O>11      -0.0487
  16 C12     -11.8469     6.9108    -3.2326  C.ar    1  <O>11      -0.0610
  17 C13     -11.1793     7.6025    -4.2368  C.ar    1  <O>11      -0.0611
  18 C14      -9.8412     7.3122    -4.5106  C.ar    1  <O>11      -0.0521
  19 C15      -9.1458     6.3258    -3.7741  C.ar    1  <O>11       0.0106
  20 C16      -5.9043     4.4776    -5.2773  C.ar    1  <O>11      -0.0461
  21 N3       -5.2250     1.3690    -6.1880  N.am    1  <O>11      -0.2974
  22 C17      -5.8467     1.6516    -7.5052  C.3     1  <O>11       0.0173
  23 C18      -7.2453     1.0547    -7.5974  C.3     1  <O>11      -0.0107
  24 C19      -7.2181    -0.4446    -7.3197  C.3     1  <O>11       0.0619
  25 O3       -8.5479    -0.9353    -7.2943  O.3     1  <O>11      -0.3732
  26 C20      -8.9275    -1.3410    -8.5990  C.3     1  <O>11       0.0591
  27 C21     -10.3497    -1.4136    -8.7623  C.3     1  <O>11      -0.0265
  28 C22     -10.0231    -2.6824    -9.5724  C.3     1  <O>11      -0.0484
  29 C23      -8.6682    -2.7301    -8.8425  C.3     1  <O>11      -0.0265
  30 C24      -6.5512    -0.7389    -5.9809  C.3     1  <O>11      -0.0107
  31 C25      -5.1781    -0.0829    -5.8754  C.3     1  <O>11       0.0173
  32 H1       -7.7930     6.7378    -6.0383  H       1  <O>11       0.0377
  33 H2       -6.7760     7.6449    -4.8929  H       1  <O>11       0.0377
  34 H3       -7.2955     3.6984    -1.7339  H       1  <O>11       0.1921
  35 H4       -5.9118     2.7313    -7.6414  H       1  <O>11       0.0465
  36 H5       -5.2247     1.2225    -8.2907  H       1  <O>11       0.0465
  37 H6       -7.8898     1.5413    -6.8652  H       1  <O>11       0.0305
  38 H7       -7.6405     1.2261    -8.5991  H       1  <O>11       0.0305
  39 H8       -6.6614    -0.9441    -8.1131  H       1  <O>11       0.0597
  40 H9       -8.4536    -0.6901    -9.3341  H       1  <O>11       0.0596
  41 H10     -10.9186    -1.5762    -7.8478  H       1  <O>11       0.0290
  42 H11     -10.7981    -0.5989    -9.3296  H       1  <O>11       0.0290
  43 H12     -10.6769    -3.5304    -9.3695  H       1  <O>11       0.0267
  44 H13      -9.9525    -2.5273   -10.6487  H       1  <O>11       0.0267
  45 H14      -8.6364    -3.3624    -7.9558  H       1  <O>11       0.0290
  46 H15      -7.8045    -2.9418    -9.4722  H       1  <O>11       0.0290
  47 H16      -7.1850    -0.3589    -5.1796  H       1  <O>11       0.0305
  48 H17      -6.4357    -1.8179    -5.8731  H       1  <O>11       0.0305
  49 H18      -4.8045    -0.2122    -4.8597  H       1  <O>11       0.0465
  50 H19      -4.5007    -0.5715    -6.5769  H       1  <O>11       0.0465
  51 H20      -2.9094     3.7558    -6.6222  H       1  <O>11       0.0625
  52 H21      -2.9921     6.1247    -7.1479  H       1  <O>11       0.0618
  53 H22      -4.9196     7.4546    -6.4905  H       1  <O>11       0.0620
  54 H23     -11.6820     5.4142    -1.7615  H       1  <O>11       0.0625
  55 H24     -12.8357     7.1240    -3.0280  H       1  <O>11       0.0618
  56 H25     -11.6718     8.3294    -4.7791  H       1  <O>11       0.0618
  57 H26      -9.3529     7.8250    -5.2613  H       1  <O>11       0.0624
  58 H27      -6.6937     4.0385    -4.7783  H       1  <O>11       0.0628
@<TRIPOS>BOND
     1     1     2    2
     2     2     3    1
     3     3     4   ar
     4     4     5   ar
     5     5     6   ar
     6     6     7   ar
     7     7     8    1
     8     8     9    1
     9     9    10   ar
    10    10    11   ar
    11    11    12   ar
    12    12    13    2
    13    12    14   ar
    14    14    15   ar
    15    15    16   ar
    16    16    17   ar
    17    17    18   ar
    18    18    19   ar
    19     9    19   ar
    20    14    19   ar
    21     7    20   ar
    22     3    20   ar
    23     2    21   am
    24    21    22    1
    25    22    23    1
    26    23    24    1
    27    24    25    1
    28    25    26    1
    29    26    27    1
    30    27    28    1
    31    28    29    1
    32    26    29    1
    33    24    30    1
    34    30    31    1
    35    21    31    1
    36     8    32    1
    37     8    33    1
    38    11    34    1
    39    22    35    1
    40    22    36    1
    41    23    37    1
    42    23    38    1
    43    24    39    1
    44    26    40    1
    45    27    41    1
    46    27    42    1
    47    28    43    1
    48    28    44    1
    49    29    45    1
    50    29    46    1
    51    30    47    1
    52    30    48    1
    53    31    49    1
    54    31    50    1
    55     4    51    1
    56     5    52    1
    57     6    53    1
    58    15    54    1
    59    16    55    1
    60    17    56    1
    61    18    57    1
    62    20    58    1
@<TRIPOS>MOLECULE
mol96_2_18
 58 62 0 0 0
SMALL
USER_CHARGES
****
VDW energy = 31.67
@<TRIPOS>ATOM
   1 O1       -4.2425     1.9267    -4.2583  O.2     1  <O>11      -0.2700
   2 C1       -4.7326     2.2891    -5.3174  C.2     1  <O>11       0.2466
   3 C2       -4.7890     3.7070    -5.6470  C.ar    1  <O>11       0.0372
   4 C3       -3.7277     4.3170    -6.3385  C.ar    1  <O>11      -0.0496
   5 C4       -3.7762     5.6820    -6.6437  C.ar    1  <O>11      -0.0608
   6 C5       -4.8835     6.4476    -6.2675  C.ar    1  <O>11      -0.0582
   7 C6       -5.9421     5.8384    -5.5865  C.ar    1  <O>11      -0.0408
   8 C7       -7.1099     6.6512    -5.1933  C.3     1  <O>11       0.0171
   9 C8       -6.8853     7.2191    -3.8383  C.ar    1  <O>11       0.0736
  10 N1       -5.5863     7.3088    -3.3259  N.ar    1  <O>11      -0.1750
  11 N2       -5.3756     7.7256    -2.0560  N.ar    1  <O>11      -0.2425
  12 C9       -6.4375     8.0672    -1.2885  C.ar    1  <O>11       0.2725
  13 O2       -6.1582     8.3971     0.0508  O.2     1  <O>11      -0.2658
  14 C10      -7.7588     8.1035    -1.7585  C.ar    1  <O>11       0.0496
  15 C11      -8.8638     8.5160    -0.9781  C.ar    1  <O>11      -0.0487
  16 C12     -10.1584     8.4979    -1.4991  C.ar    1  <O>11      -0.0610
  17 C13     -10.3759     8.0621    -2.8012  C.ar    1  <O>11      -0.0611
  18 C14      -9.2981     7.6444    -3.5844  C.ar    1  <O>11      -0.0521
  19 C15      -7.9790     7.6644    -3.0760  C.ar    1  <O>11       0.0106
  20 C16      -5.9043     4.4776    -5.2773  C.ar    1  <O>11      -0.0461
  21 N3       -5.2250     1.3690    -6.1880  N.am    1  <O>11      -0.2974
  22 C17      -5.2400    -0.1020    -5.9950  C.3     1  <O>11       0.0173
  23 C18      -4.5440    -0.8190    -7.1450  C.3     1  <O>11      -0.0107
  24 C19      -5.1700    -0.4400    -8.4830  C.3     1  <O>11       0.0619
  25 O3       -4.4180    -1.0300    -9.5300  O.3     1  <O>11      -0.3732
  26 C20      -3.0351    -0.9344    -9.2310  C.3     1  <O>11       0.0591
  27 C21      -2.2083    -1.0771   -10.3933  C.3     1  <O>11      -0.0265
  28 C22      -1.3095    -1.8951    -9.4468  C.3     1  <O>11      -0.0484
  29 C23      -2.5386    -2.0885    -8.5399  C.3     1  <O>11      -0.0265
  30 C24      -5.1840     1.0730    -8.6690  C.3     1  <O>11      -0.0107
  31 C25      -5.8260     1.7840    -7.4820  C.3     1  <O>11       0.0173
  32 H1       -8.0014     6.0241    -5.1820  H       1  <O>11       0.0377
  33 H2       -7.2455     7.4622    -5.9095  H       1  <O>11       0.0377
  34 H3       -4.4371     7.7820    -1.6864  H       1  <O>11       0.1921
  35 H4       -4.7260    -0.3420    -5.0640  H       1  <O>11       0.0465
  36 H5       -6.2740    -0.4420    -5.9380  H       1  <O>11       0.0465
  37 H6       -3.4900    -0.5410    -7.1530  H       1  <O>11       0.0305
  38 H7       -4.6340    -1.8960    -7.0000  H       1  <O>11       0.0305
  39 H8       -6.1940    -0.8130    -8.5160  H       1  <O>11       0.0597
  40 H9       -2.8434    -0.0068    -8.6913  H       1  <O>11       0.0596
  41 H10      -2.6505    -1.6357   -11.2171  H       1  <O>11       0.0290
  42 H11      -1.7708    -0.1545   -10.7728  H       1  <O>11       0.0290
  43 H12      -0.9158    -2.8152    -9.8783  H       1  <O>11       0.0267
  44 H13      -0.4961    -1.3296    -8.9928  H       1  <O>11       0.0267
  45 H14      -3.0997    -3.0082    -8.7021  H       1  <O>11       0.0290
  46 H15      -2.3592    -1.9544    -7.4735  H       1  <O>11       0.0290
  47 H16      -4.1580     1.4250    -8.7770  H       1  <O>11       0.0305
  48 H17      -5.7480     1.3130    -9.5710  H       1  <O>11       0.0305
  49 H18      -5.6930     2.8590    -7.6030  H       1  <O>11       0.0465
  50 H19      -6.8910     1.5490    -7.4660  H       1  <O>11       0.0465
  51 H20      -2.9094     3.7558    -6.6222  H       1  <O>11       0.0625
  52 H21      -2.9921     6.1247    -7.1479  H       1  <O>11       0.0618
  53 H22      -4.9196     7.4546    -6.4905  H       1  <O>11       0.0620
  54 H23      -8.7105     8.8352    -0.0087  H       1  <O>11       0.0625
  55 H24     -10.9534     8.8077    -0.9185  H       1  <O>11       0.0618
  56 H25     -11.3325     8.0474    -3.1883  H       1  <O>11       0.0618
  57 H26      -9.4668     7.3164    -4.5482  H       1  <O>11       0.0624
  58 H27      -6.6937     4.0385    -4.7783  H       1  <O>11       0.0628
@<TRIPOS>BOND
     1     1     2    2
     2     2     3    1
     3     3     4   ar
     4     4     5   ar
     5     5     6   ar
     6     6     7   ar
     7     7     8    1
     8     8     9    1
     9     9    10   ar
    10    10    11   ar
    11    11    12   ar
    12    12    13    2
    13    12    14   ar
    14    14    15   ar
    15    15    16   ar
    16    16    17   ar
    17    17    18   ar
    18    18    19   ar
    19     9    19   ar
    20    14    19   ar
    21     7    20   ar
    22     3    20   ar
    23     2    21   am
    24    21    22    1
    25    22    23    1
    26    23    24    1
    27    24    25    1
    28    25    26    1
    29    26    27    1
    30    27    28    1
    31    28    29    1
    32    26    29    1
    33    24    30    1
    34    30    31    1
    35    21    31    1
    36     8    32    1
    37     8    33    1
    38    11    34    1
    39    22    35    1
    40    22    36    1
    41    23    37    1
    42    23    38    1
    43    24    39    1
    44    26    40    1
    45    27    41    1
    46    27    42    1
    47    28    43    1
    48    28    44    1
    49    29    45    1
    50    29    46    1
    51    30    47    1
    52    30    48    1
    53    31    49    1
    54    31    50    1
    55     4    51    1
    56     5    52    1
    57     6    53    1
    58    15    54    1
    59    16    55    1
    60    17    56    1
    61    18    57    1
    62    20    58    1
@<TRIPOS>MOLECULE
mol96_2_19
 58 62 0 0 0
SMALL
USER_CHARGES
****
VDW energy = 32.06
@<TRIPOS>ATOM
   1 O1       -4.2425     1.9267    -4.2583  O.2     1  <O>11      -0.2700
   2 C1       -4.7326     2.2891    -5.3174  C.2     1  <O>11       0.2466
   3 C2       -4.7890     3.7070    -5.6470  C.ar    1  <O>11       0.0372
   4 C3       -5.9052     4.4773    -5.2763  C.ar    1  <O>11      -0.0496
   5 C4       -5.9651     5.8365    -5.6044  C.ar    1  <O>11      -0.0608
   6 C5       -4.9121     6.4392    -6.2987  C.ar    1  <O>11      -0.0582
   7 C6       -3.7989     5.6740    -6.6602  C.ar    1  <O>11      -0.0408
   8 C7       -2.6890     6.3160    -7.3916  C.3     1  <O>11       0.0171
   9 C8       -1.9236     5.2833    -8.1376  C.ar    1  <O>11       0.0736
  10 N1       -2.5129     4.0458    -8.4194  N.ar    1  <O>11      -0.1750
  11 N2       -1.7947     3.0597    -9.0045  N.ar    1  <O>11      -0.2425
  12 C9       -0.4994     3.2882    -9.3261  C.ar    1  <O>11       0.2725
  13 O2        0.2178     2.1921    -9.8407  O.2     1  <O>11      -0.2658
  14 C10       0.1342     4.5303    -9.1716  C.ar    1  <O>11       0.0496
  15 C11       1.4690     4.7899    -9.5604  C.ar    1  <O>11      -0.0487
  16 C12       2.0486     6.0418    -9.3489  C.ar    1  <O>11      -0.0610
  17 C13       1.3132     7.0525    -8.7404  C.ar    1  <O>11      -0.0611
  18 C14      -0.0037     6.8125    -8.3434  C.ar    1  <O>11      -0.0521
  19 C15      -0.6098     5.5533    -8.5578  C.ar    1  <O>11       0.0106
  20 C16      -3.7287     4.3176    -6.3377  C.ar    1  <O>11      -0.0461
  21 N3       -5.2250     1.3690    -6.1880  N.am    1  <O>11      -0.2974
  22 C17      -5.8467     1.6516    -7.5052  C.3     1  <O>11       0.0173
  23 C18      -7.2453     1.0547    -7.5974  C.3     1  <O>11      -0.0107
  24 C19      -7.2181    -0.4446    -7.3197  C.3     1  <O>11       0.0619
  25 O3       -8.5479    -0.9353    -7.2943  O.3     1  <O>11      -0.3732
  26 C20      -8.9275    -1.3410    -8.5990  C.3     1  <O>11       0.0591
  27 C21     -10.3497    -1.4136    -8.7623  C.3     1  <O>11      -0.0265
  28 C22     -10.0231    -2.6824    -9.5724  C.3     1  <O>11      -0.0484
  29 C23      -8.6682    -2.7301    -8.8425  C.3     1  <O>11      -0.0265
  30 C24      -6.5512    -0.7389    -5.9809  C.3     1  <O>11      -0.0107
  31 C25      -5.1781    -0.0829    -5.8754  C.3     1  <O>11       0.0173
  32 H1       -2.0293     6.8172    -6.6832  H       1  <O>11       0.0377
  33 H2       -3.0915     7.0475    -8.0931  H       1  <O>11       0.0377
  34 H3       -2.2208     2.1648    -9.1996  H       1  <O>11       0.1921
  35 H4       -5.9118     2.7313    -7.6414  H       1  <O>11       0.0465
  36 H5       -5.2247     1.2225    -8.2907  H       1  <O>11       0.0465
  37 H6       -7.8898     1.5413    -6.8652  H       1  <O>11       0.0305
  38 H7       -7.6405     1.2261    -8.5991  H       1  <O>11       0.0305
  39 H8       -6.6614    -0.9441    -8.1131  H       1  <O>11       0.0597
  40 H9       -8.4536    -0.6901    -9.3341  H       1  <O>11       0.0596
  41 H10     -10.9186    -1.5762    -7.8478  H       1  <O>11       0.0290
  42 H11     -10.7981    -0.5989    -9.3296  H       1  <O>11       0.0290
  43 H12     -10.6769    -3.5304    -9.3695  H       1  <O>11       0.0267
  44 H13      -9.9525    -2.5273   -10.6487  H       1  <O>11       0.0267
  45 H14      -8.6364    -3.3624    -7.9558  H       1  <O>11       0.0290
  46 H15      -7.8045    -2.9418    -9.4722  H       1  <O>11       0.0290
  47 H16      -7.1850    -0.3589    -5.1796  H       1  <O>11       0.0305
  48 H17      -6.4357    -1.8179    -5.8731  H       1  <O>11       0.0305
  49 H18      -4.8045    -0.2122    -4.8597  H       1  <O>11       0.0465
  50 H19      -4.5007    -0.5715    -6.5769  H       1  <O>11       0.0465
  51 H20      -6.6838     4.0385    -4.7601  H       1  <O>11       0.0625
  52 H21      -6.7890     6.3955    -5.3330  H       1  <O>11       0.0618
  53 H22      -4.9560     7.4410    -6.5426  H       1  <O>11       0.0620
  54 H23       2.0227     4.0425   -10.0073  H       1  <O>11       0.0625
  55 H24       3.0219     6.2169    -9.6438  H       1  <O>11       0.0618
  56 H25       1.7400     7.9788    -8.5825  H       1  <O>11       0.0618
  57 H26      -0.5424     7.5651    -7.8868  H       1  <O>11       0.0624
  58 H27      -2.8998     3.7645    -6.6061  H       1  <O>11       0.0628
@<TRIPOS>BOND
     1     1     2    2
     2     2     3    1
     3     3     4   ar
     4     4     5   ar
     5     5     6   ar
     6     6     7   ar
     7     7     8    1
     8     8     9    1
     9     9    10   ar
    10    10    11   ar
    11    11    12   ar
    12    12    13    2
    13    12    14   ar
    14    14    15   ar
    15    15    16   ar
    16    16    17   ar
    17    17    18   ar
    18    18    19   ar
    19     9    19   ar
    20    14    19   ar
    21     7    20   ar
    22     3    20   ar
    23     2    21   am
    24    21    22    1
    25    22    23    1
    26    23    24    1
    27    24    25    1
    28    25    26    1
    29    26    27    1
    30    27    28    1
    31    28    29    1
    32    26    29    1
    33    24    30    1
    34    30    31    1
    35    21    31    1
    36     8    32    1
    37     8    33    1
    38    11    34    1
    39    22    35    1
    40    22    36    1
    41    23    37    1
    42    23    38    1
    43    24    39    1
    44    26    40    1
    45    27    41    1
    46    27    42    1
    47    28    43    1
    48    28    44    1
    49    29    45    1
    50    29    46    1
    51    30    47    1
    52    30    48    1
    53    31    49    1
    54    31    50    1
    55     4    51    1
    56     5    52    1
    57     6    53    1
    58    15    54    1
    59    16    55    1
    60    17    56    1
    61    18    57    1
    62    20    58    1
@<TRIPOS>MOLECULE
mol96_2_20
 58 62 0 0 0
SMALL
USER_CHARGES
****
VDW energy = 32.78
@<TRIPOS>ATOM
   1 O1       -4.2425     1.9267    -4.2583  O.2     1  <O>11      -0.2700
   2 C1       -4.7326     2.2891    -5.3174  C.2     1  <O>11       0.2466
   3 C2       -4.7890     3.7070    -5.6470  C.ar    1  <O>11       0.0372
   4 C3       -3.7277     4.3170    -6.3385  C.ar    1  <O>11      -0.0496
   5 C4       -3.7762     5.6820    -6.6437  C.ar    1  <O>11      -0.0608
   6 C5       -4.8835     6.4476    -6.2675  C.ar    1  <O>11      -0.0582
   7 C6       -5.9421     5.8384    -5.5865  C.ar    1  <O>11      -0.0408
   8 C7       -7.1099     6.6512    -5.1933  C.3     1  <O>11       0.0171
   9 C8       -7.8083     5.9981    -4.0555  C.ar    1  <O>11       0.0736
  10 N1       -7.1324     5.0596    -3.2678  N.ar    1  <O>11      -0.1750
  11 N2       -7.7844     4.3810    -2.2957  N.ar    1  <O>11      -0.2425
  12 C9       -9.0986     4.6294    -2.0850  C.ar    1  <O>11       0.2725
  13 O2       -9.7401     3.8214    -1.1277  O.2     1  <O>11      -0.2658
  14 C10      -9.8212     5.6248    -2.7596  C.ar    1  <O>11       0.0496
  15 C11     -11.1784     5.9277    -2.5015  C.ar    1  <O>11      -0.0487
  16 C12     -11.8469     6.9108    -3.2326  C.ar    1  <O>11      -0.0610
  17 C13     -11.1793     7.6025    -4.2368  C.ar    1  <O>11      -0.0611
  18 C14      -9.8412     7.3122    -4.5106  C.ar    1  <O>11      -0.0521
  19 C15      -9.1458     6.3258    -3.7741  C.ar    1  <O>11       0.0106
  20 C16      -5.9043     4.4776    -5.2773  C.ar    1  <O>11      -0.0461
  21 N3       -5.2250     1.3690    -6.1880  N.am    1  <O>11      -0.2974
  22 C17      -5.2400    -0.1020    -5.9950  C.3     1  <O>11       0.0173
  23 C18      -4.5440    -0.8190    -7.1450  C.3     1  <O>11      -0.0107
  24 C19      -5.1700    -0.4400    -8.4830  C.3     1  <O>11       0.0619
  25 O3       -4.4180    -1.0300    -9.5300  O.3     1  <O>11      -0.3732
  26 C20      -4.9432    -2.3140    -9.8242  C.3     1  <O>11       0.0591
  27 C21      -4.0058    -3.1478   -10.5174  C.3     1  <O>11      -0.0265
  28 C22      -5.2450    -3.5843   -11.3216  C.3     1  <O>11      -0.0484
  29 C23      -5.9284    -2.2822   -10.8655  C.3     1  <O>11      -0.0265
  30 C24      -5.1840     1.0730    -8.6690  C.3     1  <O>11      -0.0107
  31 C25      -5.8260     1.7840    -7.4820  C.3     1  <O>11       0.0173
  32 H1       -7.7930     6.7378    -6.0383  H       1  <O>11       0.0377
  33 H2       -6.7760     7.6449    -4.8929  H       1  <O>11       0.0377
  34 H3       -7.2955     3.6984    -1.7339  H       1  <O>11       0.1921
  35 H4       -4.7260    -0.3420    -5.0640  H       1  <O>11       0.0465
  36 H5       -6.2740    -0.4420    -5.9380  H       1  <O>11       0.0465
  37 H6       -3.4900    -0.5410    -7.1530  H       1  <O>11       0.0305
  38 H7       -4.6340    -1.8960    -7.0000  H       1  <O>11       0.0305
  39 H8       -6.1940    -0.8130    -8.5160  H       1  <O>11       0.0597
  40 H9       -5.3152    -2.7729    -8.9079  H       1  <O>11       0.0596
  41 H10      -3.2411    -2.6206   -11.0863  H       1  <O>11       0.0290
  42 H11      -3.5394    -3.9278    -9.9168  H       1  <O>11       0.0290
  43 H12      -5.0843    -3.6588   -12.3969  H       1  <O>11       0.0267
  44 H13      -5.7212    -4.4959   -10.9614  H       1  <O>11       0.0267
  45 H14      -5.8499    -1.4450   -11.5583  H       1  <O>11       0.0290
  46 H15      -6.9618    -2.3865   -10.5358  H       1  <O>11       0.0290
  47 H16      -4.1580     1.4250    -8.7770  H       1  <O>11       0.0305
  48 H17      -5.7480     1.3130    -9.5710  H       1  <O>11       0.0305
  49 H18      -5.6930     2.8590    -7.6030  H       1  <O>11       0.0465
  50 H19      -6.8910     1.5490    -7.4660  H       1  <O>11       0.0465
  51 H20      -2.9094     3.7558    -6.6222  H       1  <O>11       0.0625
  52 H21      -2.9921     6.1247    -7.1479  H       1  <O>11       0.0618
  53 H22      -4.9196     7.4546    -6.4905  H       1  <O>11       0.0620
  54 H23     -11.6820     5.4142    -1.7615  H       1  <O>11       0.0625
  55 H24     -12.8357     7.1240    -3.0280  H       1  <O>11       0.0618
  56 H25     -11.6718     8.3294    -4.7791  H       1  <O>11       0.0618
  57 H26      -9.3529     7.8250    -5.2613  H       1  <O>11       0.0624
  58 H27      -6.6937     4.0385    -4.7783  H       1  <O>11       0.0628
@<TRIPOS>BOND
     1     1     2    2
     2     2     3    1
     3     3     4   ar
     4     4     5   ar
     5     5     6   ar
     6     6     7   ar
     7     7     8    1
     8     8     9    1
     9     9    10   ar
    10    10    11   ar
    11    11    12   ar
    12    12    13    2
    13    12    14   ar
    14    14    15   ar
    15    15    16   ar
    16    16    17   ar
    17    17    18   ar
    18    18    19   ar
    19     9    19   ar
    20    14    19   ar
    21     7    20   ar
    22     3    20   ar
    23     2    21   am
    24    21    22    1
    25    22    23    1
    26    23    24    1
    27    24    25    1
    28    25    26    1
    29    26    27    1
    30    27    28    1
    31    28    29    1
    32    26    29    1
    33    24    30    1
    34    30    31    1
    35    21    31    1
    36     8    32    1
    37     8    33    1
    38    11    34    1
    39    22    35    1
    40    22    36    1
    41    23    37    1
    42    23    38    1
    43    24    39    1
    44    26    40    1
    45    27    41    1
    46    27    42    1
    47    28    43    1
    48    28    44    1
    49    29    45    1
    50    29    46    1
    51    30    47    1
    52    30    48    1
    53    31    49    1
    54    31    50    1
    55     4    51    1
    56     5    52    1
    57     6    53    1
    58    15    54    1
    59    16    55    1
    60    17    56    1
    61    18    57    1
    62    20    58    1
@<TRIPOS>MOLECULE
mol96_2_21
 58 62 0 0 0
SMALL
USER_CHARGES
****
VDW energy = 33.17
@<TRIPOS>ATOM
   1 O1       -4.2425     1.9267    -4.2583  O.2     1  <O>11      -0.2700
   2 C1       -4.7326     2.2891    -5.3174  C.2     1  <O>11       0.2466
   3 C2       -4.7890     3.7070    -5.6470  C.ar    1  <O>11       0.0372
   4 C3       -5.9052     4.4773    -5.2763  C.ar    1  <O>11      -0.0496
   5 C4       -5.9651     5.8365    -5.6044  C.ar    1  <O>11      -0.0608
   6 C5       -4.9121     6.4392    -6.2987  C.ar    1  <O>11      -0.0582
   7 C6       -3.7989     5.6740    -6.6602  C.ar    1  <O>11      -0.0408
   8 C7       -2.6890     6.3160    -7.3916  C.3     1  <O>11       0.0171
   9 C8       -1.9236     5.2833    -8.1376  C.ar    1  <O>11       0.0736
  10 N1       -2.5129     4.0458    -8.4194  N.ar    1  <O>11      -0.1750
  11 N2       -1.7947     3.0597    -9.0045  N.ar    1  <O>11      -0.2425
  12 C9       -0.4994     3.2882    -9.3261  C.ar    1  <O>11       0.2725
  13 O2        0.2178     2.1921    -9.8407  O.2     1  <O>11      -0.2658
  14 C10       0.1342     4.5303    -9.1716  C.ar    1  <O>11       0.0496
  15 C11       1.4690     4.7899    -9.5604  C.ar    1  <O>11      -0.0487
  16 C12       2.0486     6.0418    -9.3489  C.ar    1  <O>11      -0.0610
  17 C13       1.3132     7.0525    -8.7404  C.ar    1  <O>11      -0.0611
  18 C14      -0.0037     6.8125    -8.3434  C.ar    1  <O>11      -0.0521
  19 C15      -0.6098     5.5533    -8.5578  C.ar    1  <O>11       0.0106
  20 C16      -3.7287     4.3176    -6.3377  C.ar    1  <O>11      -0.0461
  21 N3       -5.2250     1.3690    -6.1880  N.am    1  <O>11      -0.2974
  22 C17      -5.2400    -0.1020    -5.9950  C.3     1  <O>11       0.0173
  23 C18      -4.5440    -0.8190    -7.1450  C.3     1  <O>11      -0.0107
  24 C19      -5.1700    -0.4400    -8.4830  C.3     1  <O>11       0.0619
  25 O3       -4.4180    -1.0300    -9.5300  O.3     1  <O>11      -0.3732
  26 C20      -4.9432    -2.3140    -9.8242  C.3     1  <O>11       0.0591
  27 C21      -4.0058    -3.1478   -10.5174  C.3     1  <O>11      -0.0265
  28 C22      -5.2450    -3.5843   -11.3216  C.3     1  <O>11      -0.0484
  29 C23      -5.9284    -2.2822   -10.8655  C.3     1  <O>11      -0.0265
  30 C24      -5.1840     1.0730    -8.6690  C.3     1  <O>11      -0.0107
  31 C25      -5.8260     1.7840    -7.4820  C.3     1  <O>11       0.0173
  32 H1       -2.0293     6.8172    -6.6832  H       1  <O>11       0.0377
  33 H2       -3.0915     7.0475    -8.0931  H       1  <O>11       0.0377
  34 H3       -2.2208     2.1648    -9.1996  H       1  <O>11       0.1921
  35 H4       -4.7260    -0.3420    -5.0640  H       1  <O>11       0.0465
  36 H5       -6.2740    -0.4420    -5.9380  H       1  <O>11       0.0465
  37 H6       -3.4900    -0.5410    -7.1530  H       1  <O>11       0.0305
  38 H7       -4.6340    -1.8960    -7.0000  H       1  <O>11       0.0305
  39 H8       -6.1940    -0.8130    -8.5160  H       1  <O>11       0.0597
  40 H9       -5.3152    -2.7729    -8.9079  H       1  <O>11       0.0596
  41 H10      -3.2411    -2.6206   -11.0863  H       1  <O>11       0.0290
  42 H11      -3.5394    -3.9278    -9.9168  H       1  <O>11       0.0290
  43 H12      -5.0843    -3.6588   -12.3969  H       1  <O>11       0.0267
  44 H13      -5.7212    -4.4959   -10.9614  H       1  <O>11       0.0267
  45 H14      -5.8499    -1.4450   -11.5583  H       1  <O>11       0.0290
  46 H15      -6.9618    -2.3865   -10.5358  H       1  <O>11       0.0290
  47 H16      -4.1580     1.4250    -8.7770  H       1  <O>11       0.0305
  48 H17      -5.7480     1.3130    -9.5710  H       1  <O>11       0.0305
  49 H18      -5.6930     2.8590    -7.6030  H       1  <O>11       0.0465
  50 H19      -6.8910     1.5490    -7.4660  H       1  <O>11       0.0465
  51 H20      -6.6838     4.0385    -4.7601  H       1  <O>11       0.0625
  52 H21      -6.7890     6.3955    -5.3330  H       1  <O>11       0.0618
  53 H22      -4.9560     7.4410    -6.5426  H       1  <O>11       0.0620
  54 H23       2.0227     4.0425   -10.0073  H       1  <O>11       0.0625
  55 H24       3.0219     6.2169    -9.6438  H       1  <O>11       0.0618
  56 H25       1.7400     7.9788    -8.5825  H       1  <O>11       0.0618
  57 H26      -0.5424     7.5651    -7.8868  H       1  <O>11       0.0624
  58 H27      -2.8998     3.7645    -6.6061  H       1  <O>11       0.0628
@<TRIPOS>BOND
     1     1     2    2
     2     2     3    1
     3     3     4   ar
     4     4     5   ar
     5     5     6   ar
     6     6     7   ar
     7     7     8    1
     8     8     9    1
     9     9    10   ar
    10    10    11   ar
    11    11    12   ar
    12    12    13    2
    13    12    14   ar
    14    14    15   ar
    15    15    16   ar
    16    16    17   ar
    17    17    18   ar
    18    18    19   ar
    19     9    19   ar
    20    14    19   ar
    21     7    20   ar
    22     3    20   ar
    23     2    21   am
    24    21    22    1
    25    22    23    1
    26    23    24    1
    27    24    25    1
    28    25    26    1
    29    26    27    1
    30    27    28    1
    31    28    29    1
    32    26    29    1
    33    24    30    1
    34    30    31    1
    35    21    31    1
    36     8    32    1
    37     8    33    1
    38    11    34    1
    39    22    35    1
    40    22    36    1
    41    23    37    1
    42    23    38    1
    43    24    39    1
    44    26    40    1
    45    27    41    1
    46    27    42    1
    47    28    43    1
    48    28    44    1
    49    29    45    1
    50    29    46    1
    51    30    47    1
    52    30    48    1
    53    31    49    1
    54    31    50    1
    55     4    51    1
    56     5    52    1
    57     6    53    1
    58    15    54    1
    59    16    55    1
    60    17    56    1
    61    18    57    1
    62    20    58    1
@<TRIPOS>MOLECULE
mol96_2_22
 58 62 0 0 0
SMALL
USER_CHARGES
****
VDW energy = 33.89
@<TRIPOS>ATOM
   1 O1       -4.2425     1.9267    -4.2583  O.2     1  <O>11      -0.2700
   2 C1       -4.7326     2.2891    -5.3174  C.2     1  <O>11       0.2466
   3 C2       -4.7890     3.7070    -5.6470  C.ar    1  <O>11       0.0372
   4 C3       -5.9236     4.2430    -6.2811  C.ar    1  <O>11      -0.0496
   5 C4       -5.9723     5.6026    -6.6094  C.ar    1  <O>11      -0.0608
   6 C5       -4.8945     6.4387    -6.3039  C.ar    1  <O>11      -0.0582
   7 C6       -3.7697     5.9063    -5.6662  C.ar    1  <O>11      -0.0408
   8 C7       -2.6352     6.7941    -5.3442  C.3     1  <O>11       0.0171
   9 C8       -2.1014     7.3907    -6.5964  C.ar    1  <O>11       0.0736
  10 N1       -2.8964     7.4247    -7.7474  N.ar    1  <O>11      -0.1750
  11 N2       -2.3891     7.8687    -8.9204  N.ar    1  <O>11      -0.2425
  12 C9       -1.1037     8.2920    -8.9657  C.ar    1  <O>11       0.2725
  13 O2       -0.6089     8.6477   -10.2343  O.2     1  <O>11      -0.2658
  14 C10      -0.2745     8.3864    -7.8381  C.ar    1  <O>11       0.0496
  15 C11       1.0492     8.8834    -7.8704  C.ar    1  <O>11      -0.0487
  16 C12       1.8314     8.9204    -6.7151  C.ar    1  <O>11      -0.0610
  17 C13       1.3128     8.4569    -5.5114  C.ar    1  <O>11      -0.0611
  18 C14       0.0104     7.9561    -5.4616  C.ar    1  <O>11      -0.0521
  19 C15      -0.7992     7.9193    -6.6201  C.ar    1  <O>11       0.0106
  20 C16      -3.7107     4.5517    -5.3340  C.ar    1  <O>11      -0.0461
  21 N3       -5.2250     1.3690    -6.1880  N.am    1  <O>11      -0.2974
  22 C17      -5.8467     1.6516    -7.5052  C.3     1  <O>11       0.0173
  23 C18      -7.2453     1.0547    -7.5974  C.3     1  <O>11      -0.0107
  24 C19      -7.2181    -0.4446    -7.3197  C.3     1  <O>11       0.0619
  25 O3       -8.5479    -0.9353    -7.2943  O.3     1  <O>11      -0.3732
  26 C20      -8.9275    -1.3410    -8.5990  C.3     1  <O>11       0.0591
  27 C21     -10.3497    -1.4136    -8.7623  C.3     1  <O>11      -0.0265
  28 C22     -10.0231    -2.6824    -9.5724  C.3     1  <O>11      -0.0484
  29 C23      -8.6682    -2.7301    -8.8425  C.3     1  <O>11      -0.0265
  30 C24      -6.5512    -0.7389    -5.9809  C.3     1  <O>11      -0.0107
  31 C25      -5.1781    -0.0829    -5.8754  C.3     1  <O>11       0.0173
  32 H1       -1.8514     6.2177    -4.8526  H       1  <O>11       0.0377
  33 H2       -2.9735     7.5886    -4.6784  H       1  <O>11       0.0377
  34 H3       -2.9632     7.8848    -9.7515  H       1  <O>11       0.1921
  35 H4       -5.9118     2.7313    -7.6414  H       1  <O>11       0.0465
  36 H5       -5.2247     1.2225    -8.2907  H       1  <O>11       0.0465
  37 H6       -7.8898     1.5413    -6.8652  H       1  <O>11       0.0305
  38 H7       -7.6405     1.2261    -8.5991  H       1  <O>11       0.0305
  39 H8       -6.6614    -0.9441    -8.1131  H       1  <O>11       0.0597
  40 H9       -8.4536    -0.6901    -9.3341  H       1  <O>11       0.0596
  41 H10     -10.9186    -1.5762    -7.8478  H       1  <O>11       0.0290
  42 H11     -10.7981    -0.5989    -9.3296  H       1  <O>11       0.0290
  43 H12     -10.6769    -3.5304    -9.3695  H       1  <O>11       0.0267
  44 H13      -9.9525    -2.5273   -10.6487  H       1  <O>11       0.0267
  45 H14      -8.6364    -3.3624    -7.9558  H       1  <O>11       0.0290
  46 H15      -7.8045    -2.9418    -9.4722  H       1  <O>11       0.0290
  47 H16      -7.1850    -0.3589    -5.1796  H       1  <O>11       0.0305
  48 H17      -6.4357    -1.8179    -5.8731  H       1  <O>11       0.0305
  49 H18      -4.8045    -0.2122    -4.8597  H       1  <O>11       0.0465
  50 H19      -4.5007    -0.5715    -6.5769  H       1  <O>11       0.0465
  51 H20      -6.7239     3.6312    -6.5055  H       1  <O>11       0.0625
  52 H21      -6.8063     5.9891    -7.0785  H       1  <O>11       0.0618
  53 H22      -4.9287     7.4411    -6.5470  H       1  <O>11       0.0620
  54 H23       1.4428     9.2237    -8.7616  H       1  <O>11       0.0625
  55 H24       2.7935     9.2916    -6.7543  H       1  <O>11       0.0618
  56 H25       1.8896     8.4828    -4.6560  H       1  <O>11       0.0618
  57 H26      -0.3667     7.6080    -4.5663  H       1  <O>11       0.0624
  58 H27      -2.8768     4.1715    -4.8595  H       1  <O>11       0.0628
@<TRIPOS>BOND
     1     1     2    2
     2     2     3    1
     3     3     4   ar
     4     4     5   ar
     5     5     6   ar
     6     6     7   ar
     7     7     8    1
     8     8     9    1
     9     9    10   ar
    10    10    11   ar
    11    11    12   ar
    12    12    13    2
    13    12    14   ar
    14    14    15   ar
    15    15    16   ar
    16    16    17   ar
    17    17    18   ar
    18    18    19   ar
    19     9    19   ar
    20    14    19   ar
    21     7    20   ar
    22     3    20   ar
    23     2    21   am
    24    21    22    1
    25    22    23    1
    26    23    24    1
    27    24    25    1
    28    25    26    1
    29    26    27    1
    30    27    28    1
    31    28    29    1
    32    26    29    1
    33    24    30    1
    34    30    31    1
    35    21    31    1
    36     8    32    1
    37     8    33    1
    38    11    34    1
    39    22    35    1
    40    22    36    1
    41    23    37    1
    42    23    38    1
    43    24    39    1
    44    26    40    1
    45    27    41    1
    46    27    42    1
    47    28    43    1
    48    28    44    1
    49    29    45    1
    50    29    46    1
    51    30    47    1
    52    30    48    1
    53    31    49    1
    54    31    50    1
    55     4    51    1
    56     5    52    1
    57     6    53    1
    58    15    54    1
    59    16    55    1
    60    17    56    1
    61    18    57    1
    62    20    58    1
@<TRIPOS>MOLECULE
mol96_2_23
 58 62 0 0 0
SMALL
USER_CHARGES
****
VDW energy = 34.13
@<TRIPOS>ATOM
   1 O1       -4.2425     1.9267    -4.2583  O.2     1  <O>11      -0.2700
   2 C1       -4.7326     2.2891    -5.3174  C.2     1  <O>11       0.2466
   3 C2       -4.7890     3.7070    -5.6470  C.ar    1  <O>11       0.0372
   4 C3       -5.9236     4.2430    -6.2811  C.ar    1  <O>11      -0.0496
   5 C4       -5.9723     5.6026    -6.6094  C.ar    1  <O>11      -0.0608
   6 C5       -4.8945     6.4387    -6.3039  C.ar    1  <O>11      -0.0582
   7 C6       -3.7697     5.9063    -5.6662  C.ar    1  <O>11      -0.0408
   8 C7       -2.6352     6.7941    -5.3442  C.3     1  <O>11       0.0171
   9 C8       -1.6802     6.8114    -6.4829  C.ar    1  <O>11       0.0736
  10 N1       -2.1056     6.4174    -7.7564  N.ar    1  <O>11      -0.1750
  11 N2       -1.2237     6.3281    -8.7786  N.ar    1  <O>11      -0.2425
  12 C9        0.0762     6.6365    -8.5579  C.ar    1  <O>11       0.2725
  13 O2        0.9577     6.4286    -9.6351  O.2     1  <O>11      -0.2658
  14 C10       0.5623     7.1368    -7.3408  C.ar    1  <O>11       0.0496
  15 C11       1.9074     7.5159    -7.1234  C.ar    1  <O>11      -0.0487
  16 C12       2.3315     7.9772    -5.8763  C.ar    1  <O>11      -0.0610
  17 C13       1.4272     8.0614    -4.8239  C.ar    1  <O>11      -0.0611
  18 C14       0.0967     7.6849    -5.0178  C.ar    1  <O>11      -0.0521
  19 C15      -0.3524     7.2238    -6.2766  C.ar    1  <O>11       0.0106
  20 C16      -3.7107     4.5517    -5.3340  C.ar    1  <O>11      -0.0461
  21 N3       -5.2250     1.3690    -6.1880  N.am    1  <O>11      -0.2974
  22 C17      -5.2400    -0.1020    -5.9950  C.3     1  <O>11       0.0173
  23 C18      -4.5440    -0.8190    -7.1450  C.3     1  <O>11      -0.0107
  24 C19      -5.1700    -0.4400    -8.4830  C.3     1  <O>11       0.0619
  25 O3       -4.4180    -1.0300    -9.5300  O.3     1  <O>11      -0.3732
  26 C20      -5.3002    -1.5502   -10.5110  C.3     1  <O>11       0.0591
  27 C21      -5.6671    -2.9121   -10.2561  C.3     1  <O>11      -0.0265
  28 C22      -5.5236    -3.0601   -11.7827  C.3     1  <O>11      -0.0484
  29 C23      -4.6496    -1.7926   -11.7655  C.3     1  <O>11      -0.0265
  30 C24      -5.1840     1.0730    -8.6690  C.3     1  <O>11      -0.0107
  31 C25      -5.8260     1.7840    -7.4820  C.3     1  <O>11       0.0173
  32 H1       -2.1297     6.4276    -4.4507  H       1  <O>11       0.0377
  33 H2       -3.0044     7.8042    -5.1641  H       1  <O>11       0.0377
  34 H3       -1.5324     6.0359    -9.6951  H       1  <O>11       0.1921
  35 H4       -4.7260    -0.3420    -5.0640  H       1  <O>11       0.0465
  36 H5       -6.2740    -0.4420    -5.9380  H       1  <O>11       0.0465
  37 H6       -3.4900    -0.5410    -7.1530  H       1  <O>11       0.0305
  38 H7       -4.6340    -1.8960    -7.0000  H       1  <O>11       0.0305
  39 H8       -6.1940    -0.8130    -8.5160  H       1  <O>11       0.0597
  40 H9       -6.1652    -0.8935   -10.6064  H       1  <O>11       0.0596
  41 H10      -4.9568    -3.4855    -9.6620  H       1  <O>11       0.0290
  42 H11      -6.6726    -3.0607    -9.8643  H       1  <O>11       0.0290
  43 H12      -5.0052    -3.9633   -12.1038  H       1  <O>11       0.0267
  44 H13      -6.4562    -2.9596   -12.3375  H       1  <O>11       0.0267
  45 H14      -3.5754    -1.9658   -11.7096  H       1  <O>11       0.0290
  46 H15      -4.8613    -1.0673   -12.5507  H       1  <O>11       0.0290
  47 H16      -4.1580     1.4250    -8.7770  H       1  <O>11       0.0305
  48 H17      -5.7480     1.3130    -9.5710  H       1  <O>11       0.0305
  49 H18      -5.6930     2.8590    -7.6030  H       1  <O>11       0.0465
  50 H19      -6.8910     1.5490    -7.4660  H       1  <O>11       0.0465
  51 H20      -6.7239     3.6312    -6.5055  H       1  <O>11       0.0625
  52 H21      -6.8063     5.9891    -7.0785  H       1  <O>11       0.0618
  53 H22      -4.9287     7.4411    -6.5470  H       1  <O>11       0.0620
  54 H23       2.5855     7.4505    -7.8986  H       1  <O>11       0.0625
  55 H24       3.3153     8.2555    -5.7357  H       1  <O>11       0.0618
  56 H25       1.7387     8.4017    -3.9007  H       1  <O>11       0.0618
  57 H26      -0.5684     7.7441    -4.2309  H       1  <O>11       0.0624
  58 H27      -2.8768     4.1715    -4.8595  H       1  <O>11       0.0628
@<TRIPOS>BOND
     1     1     2    2
     2     2     3    1
     3     3     4   ar
     4     4     5   ar
     5     5     6   ar
     6     6     7   ar
     7     7     8    1
     8     8     9    1
     9     9    10   ar
    10    10    11   ar
    11    11    12   ar
    12    12    13    2
    13    12    14   ar
    14    14    15   ar
    15    15    16   ar
    16    16    17   ar
    17    17    18   ar
    18    18    19   ar
    19     9    19   ar
    20    14    19   ar
    21     7    20   ar
    22     3    20   ar
    23     2    21   am
    24    21    22    1
    25    22    23    1
    26    23    24    1
    27    24    25    1
    28    25    26    1
    29    26    27    1
    30    27    28    1
    31    28    29    1
    32    26    29    1
    33    24    30    1
    34    30    31    1
    35    21    31    1
    36     8    32    1
    37     8    33    1
    38    11    34    1
    39    22    35    1
    40    22    36    1
    41    23    37    1
    42    23    38    1
    43    24    39    1
    44    26    40    1
    45    27    41    1
    46    27    42    1
    47    28    43    1
    48    28    44    1
    49    29    45    1
    50    29    46    1
    51    30    47    1
    52    30    48    1
    53    31    49    1
    54    31    50    1
    55     4    51    1
    56     5    52    1
    57     6    53    1
    58    15    54    1
    59    16    55    1
    60    17    56    1
    61    18    57    1
    62    20    58    1
@<TRIPOS>MOLECULE
mol96_2_24
 58 62 0 0 0
SMALL
USER_CHARGES
****
VDW energy = 34.16
@<TRIPOS>ATOM
   1 O1       -4.2425     1.9267    -4.2583  O.2     1  <O>11      -0.2700
   2 C1       -4.7326     2.2891    -5.3174  C.2     1  <O>11       0.2466
   3 C2       -4.7890     3.7070    -5.6470  C.ar    1  <O>11       0.0372
   4 C3       -3.7277     4.3170    -6.3385  C.ar    1  <O>11      -0.0496
   5 C4       -3.7762     5.6820    -6.6437  C.ar    1  <O>11      -0.0608
   6 C5       -4.8835     6.4476    -6.2675  C.ar    1  <O>11      -0.0582
   7 C6       -5.9421     5.8384    -5.5865  C.ar    1  <O>11      -0.0408
   8 C7       -7.1099     6.6512    -5.1933  C.3     1  <O>11       0.0171
   9 C8       -7.8083     5.9981    -4.0555  C.ar    1  <O>11       0.0736
  10 N1       -7.1324     5.0596    -3.2678  N.ar    1  <O>11      -0.1750
  11 N2       -7.7844     4.3810    -2.2957  N.ar    1  <O>11      -0.2425
  12 C9       -9.0986     4.6294    -2.0850  C.ar    1  <O>11       0.2725
  13 O2       -9.7401     3.8214    -1.1277  O.2     1  <O>11      -0.2658
  14 C10      -9.8212     5.6248    -2.7596  C.ar    1  <O>11       0.0496
  15 C11     -11.1784     5.9277    -2.5015  C.ar    1  <O>11      -0.0487
  16 C12     -11.8469     6.9108    -3.2326  C.ar    1  <O>11      -0.0610
  17 C13     -11.1793     7.6025    -4.2368  C.ar    1  <O>11      -0.0611
  18 C14      -9.8412     7.3122    -4.5106  C.ar    1  <O>11      -0.0521
  19 C15      -9.1458     6.3258    -3.7741  C.ar    1  <O>11       0.0106
  20 C16      -5.9043     4.4776    -5.2773  C.ar    1  <O>11      -0.0461
  21 N3       -5.2250     1.3690    -6.1880  N.am    1  <O>11      -0.2974
  22 C17      -5.2400    -0.1020    -5.9950  C.3     1  <O>11       0.0173
  23 C18      -4.5440    -0.8190    -7.1450  C.3     1  <O>11      -0.0107
  24 C19      -5.1700    -0.4400    -8.4830  C.3     1  <O>11       0.0619
  25 O3       -4.4180    -1.0300    -9.5300  O.3     1  <O>11      -0.3732
  26 C20      -5.3002    -1.5502   -10.5110  C.3     1  <O>11       0.0591
  27 C21      -4.6781    -2.5360   -11.3450  C.3     1  <O>11      -0.0265
  28 C22      -5.4774    -1.8473   -12.4673  C.3     1  <O>11      -0.0484
  29 C23      -5.5790    -0.6098   -11.5569  C.3     1  <O>11      -0.0265
  30 C24      -5.1840     1.0730    -8.6690  C.3     1  <O>11      -0.0107
  31 C25      -5.8260     1.7840    -7.4820  C.3     1  <O>11       0.0173
  32 H1       -7.7930     6.7378    -6.0383  H       1  <O>11       0.0377
  33 H2       -6.7760     7.6449    -4.8929  H       1  <O>11       0.0377
  34 H3       -7.2955     3.6984    -1.7339  H       1  <O>11       0.1921
  35 H4       -4.7260    -0.3420    -5.0640  H       1  <O>11       0.0465
  36 H5       -6.2740    -0.4420    -5.9380  H       1  <O>11       0.0465
  37 H6       -3.4900    -0.5410    -7.1530  H       1  <O>11       0.0305
  38 H7       -4.6340    -1.8960    -7.0000  H       1  <O>11       0.0305
  39 H8       -6.1940    -0.8130    -8.5160  H       1  <O>11       0.0597
  40 H9       -6.2042    -1.9203   -10.0269  H       1  <O>11       0.0596
  41 H10      -3.5947    -2.4622   -11.4295  H       1  <O>11       0.0290
  42 H11      -4.9572    -3.5684   -11.1377  H       1  <O>11       0.0290
  43 H12      -4.9184    -1.6868   -13.3890  H       1  <O>11       0.0267
  44 H13      -6.4322    -2.3189   -12.6988  H       1  <O>11       0.0267
  45 H14      -4.8168     0.1522   -11.7163  H       1  <O>11       0.0290
  46 H15      -6.5611    -0.1395   -11.5142  H       1  <O>11       0.0290
  47 H16      -4.1580     1.4250    -8.7770  H       1  <O>11       0.0305
  48 H17      -5.7480     1.3130    -9.5710  H       1  <O>11       0.0305
  49 H18      -5.6930     2.8590    -7.6030  H       1  <O>11       0.0465
  50 H19      -6.8910     1.5490    -7.4660  H       1  <O>11       0.0465
  51 H20      -2.9094     3.7558    -6.6222  H       1  <O>11       0.0625
  52 H21      -2.9921     6.1247    -7.1479  H       1  <O>11       0.0618
  53 H22      -4.9196     7.4546    -6.4905  H       1  <O>11       0.0620
  54 H23     -11.6820     5.4142    -1.7615  H       1  <O>11       0.0625
  55 H24     -12.8357     7.1240    -3.0280  H       1  <O>11       0.0618
  56 H25     -11.6718     8.3294    -4.7791  H       1  <O>11       0.0618
  57 H26      -9.3529     7.8250    -5.2613  H       1  <O>11       0.0624
  58 H27      -6.6937     4.0385    -4.7783  H       1  <O>11       0.0628
@<TRIPOS>BOND
     1     1     2    2
     2     2     3    1
     3     3     4   ar
     4     4     5   ar
     5     5     6   ar
     6     6     7   ar
     7     7     8    1
     8     8     9    1
     9     9    10   ar
    10    10    11   ar
    11    11    12   ar
    12    12    13    2
    13    12    14   ar
    14    14    15   ar
    15    15    16   ar
    16    16    17   ar
    17    17    18   ar
    18    18    19   ar
    19     9    19   ar
    20    14    19   ar
    21     7    20   ar
    22     3    20   ar
    23     2    21   am
    24    21    22    1
    25    22    23    1
    26    23    24    1
    27    24    25    1
    28    25    26    1
    29    26    27    1
    30    27    28    1
    31    28    29    1
    32    26    29    1
    33    24    30    1
    34    30    31    1
    35    21    31    1
    36     8    32    1
    37     8    33    1
    38    11    34    1
    39    22    35    1
    40    22    36    1
    41    23    37    1
    42    23    38    1
    43    24    39    1
    44    26    40    1
    45    27    41    1
    46    27    42    1
    47    28    43    1
    48    28    44    1
    49    29    45    1
    50    29    46    1
    51    30    47    1
    52    30    48    1
    53    31    49    1
    54    31    50    1
    55     4    51    1
    56     5    52    1
    57     6    53    1
    58    15    54    1
    59    16    55    1
    60    17    56    1
    61    18    57    1
    62    20    58    1
@<TRIPOS>MOLECULE
mol96_2_25
 58 62 0 0 0
SMALL
USER_CHARGES
****
VDW energy = 35.56
@<TRIPOS>ATOM
   1 O1       -4.2425     1.9267    -4.2583  O.2     1  <O>11      -0.2700
   2 C1       -4.7326     2.2891    -5.3174  C.2     1  <O>11       0.2466
   3 C2       -4.7890     3.7070    -5.6470  C.ar    1  <O>11       0.0372
   4 C3       -5.9236     4.2430    -6.2811  C.ar    1  <O>11      -0.0496
   5 C4       -5.9723     5.6026    -6.6094  C.ar    1  <O>11      -0.0608
   6 C5       -4.8945     6.4387    -6.3039  C.ar    1  <O>11      -0.0582
   7 C6       -3.7697     5.9063    -5.6662  C.ar    1  <O>11      -0.0408
   8 C7       -2.6352     6.7941    -5.3442  C.3     1  <O>11       0.0171
   9 C8       -1.6802     6.8114    -6.4829  C.ar    1  <O>11       0.0736
  10 N1       -2.1056     6.4174    -7.7564  N.ar    1  <O>11      -0.1750
  11 N2       -1.2237     6.3281    -8.7786  N.ar    1  <O>11      -0.2425
  12 C9        0.0762     6.6365    -8.5579  C.ar    1  <O>11       0.2725
  13 O2        0.9577     6.4286    -9.6351  O.2     1  <O>11      -0.2658
  14 C10       0.5623     7.1368    -7.3408  C.ar    1  <O>11       0.0496
  15 C11       1.9074     7.5159    -7.1234  C.ar    1  <O>11      -0.0487
  16 C12       2.3315     7.9772    -5.8763  C.ar    1  <O>11      -0.0610
  17 C13       1.4272     8.0614    -4.8239  C.ar    1  <O>11      -0.0611
  18 C14       0.0967     7.6849    -5.0178  C.ar    1  <O>11      -0.0521
  19 C15      -0.3524     7.2238    -6.2766  C.ar    1  <O>11       0.0106
  20 C16      -3.7107     4.5517    -5.3340  C.ar    1  <O>11      -0.0461
  21 N3       -5.2250     1.3690    -6.1880  N.am    1  <O>11      -0.2974
  22 C17      -5.2400    -0.1020    -5.9950  C.3     1  <O>11       0.0173
  23 C18      -4.5440    -0.8190    -7.1450  C.3     1  <O>11      -0.0107
  24 C19      -5.1700    -0.4400    -8.4830  C.3     1  <O>11       0.0619
  25 O3       -4.4180    -1.0300    -9.5300  O.3     1  <O>11      -0.3732
  26 C20      -5.3002    -1.5502   -10.5110  C.3     1  <O>11       0.0591
  27 C21      -4.6781    -2.5360   -11.3450  C.3     1  <O>11      -0.0265
  28 C22      -5.4774    -1.8473   -12.4673  C.3     1  <O>11      -0.0484
  29 C23      -5.5790    -0.6098   -11.5569  C.3     1  <O>11      -0.0265
  30 C24      -5.1840     1.0730    -8.6690  C.3     1  <O>11      -0.0107
  31 C25      -5.8260     1.7840    -7.4820  C.3     1  <O>11       0.0173
  32 H1       -2.1297     6.4276    -4.4507  H       1  <O>11       0.0377
  33 H2       -3.0044     7.8042    -5.1641  H       1  <O>11       0.0377
  34 H3       -1.5324     6.0359    -9.6951  H       1  <O>11       0.1921
  35 H4       -4.7260    -0.3420    -5.0640  H       1  <O>11       0.0465
  36 H5       -6.2740    -0.4420    -5.9380  H       1  <O>11       0.0465
  37 H6       -3.4900    -0.5410    -7.1530  H       1  <O>11       0.0305
  38 H7       -4.6340    -1.8960    -7.0000  H       1  <O>11       0.0305
  39 H8       -6.1940    -0.8130    -8.5160  H       1  <O>11       0.0597
  40 H9       -6.2042    -1.9203   -10.0269  H       1  <O>11       0.0596
  41 H10      -3.5947    -2.4622   -11.4295  H       1  <O>11       0.0290
  42 H11      -4.9572    -3.5684   -11.1377  H       1  <O>11       0.0290
  43 H12      -4.9184    -1.6868   -13.3890  H       1  <O>11       0.0267
  44 H13      -6.4322    -2.3189   -12.6988  H       1  <O>11       0.0267
  45 H14      -4.8168     0.1522   -11.7163  H       1  <O>11       0.0290
  46 H15      -6.5611    -0.1395   -11.5142  H       1  <O>11       0.0290
  47 H16      -4.1580     1.4250    -8.7770  H       1  <O>11       0.0305
  48 H17      -5.7480     1.3130    -9.5710  H       1  <O>11       0.0305
  49 H18      -5.6930     2.8590    -7.6030  H       1  <O>11       0.0465
  50 H19      -6.8910     1.5490    -7.4660  H       1  <O>11       0.0465
  51 H20      -6.7239     3.6312    -6.5055  H       1  <O>11       0.0625
  52 H21      -6.8063     5.9891    -7.0785  H       1  <O>11       0.0618
  53 H22      -4.9287     7.4411    -6.5470  H       1  <O>11       0.0620
  54 H23       2.5855     7.4505    -7.8986  H       1  <O>11       0.0625
  55 H24       3.3153     8.2555    -5.7357  H       1  <O>11       0.0618
  56 H25       1.7387     8.4017    -3.9007  H       1  <O>11       0.0618
  57 H26      -0.5684     7.7441    -4.2309  H       1  <O>11       0.0624
  58 H27      -2.8768     4.1715    -4.8595  H       1  <O>11       0.0628
@<TRIPOS>BOND
     1     1     2    2
     2     2     3    1
     3     3     4   ar
     4     4     5   ar
     5     5     6   ar
     6     6     7   ar
     7     7     8    1
     8     8     9    1
     9     9    10   ar
    10    10    11   ar
    11    11    12   ar
    12    12    13    2
    13    12    14   ar
    14    14    15   ar
    15    15    16   ar
    16    16    17   ar
    17    17    18   ar
    18    18    19   ar
    19     9    19   ar
    20    14    19   ar
    21     7    20   ar
    22     3    20   ar
    23     2    21   am
    24    21    22    1
    25    22    23    1
    26    23    24    1
    27    24    25    1
    28    25    26    1
    29    26    27    1
    30    27    28    1
    31    28    29    1
    32    26    29    1
    33    24    30    1
    34    30    31    1
    35    21    31    1
    36     8    32    1
    37     8    33    1
    38    11    34    1
    39    22    35    1
    40    22    36    1
    41    23    37    1
    42    23    38    1
    43    24    39    1
    44    26    40    1
    45    27    41    1
    46    27    42    1
    47    28    43    1
    48    28    44    1
    49    29    45    1
    50    29    46    1
    51    30    47    1
    52    30    48    1
    53    31    49    1
    54    31    50    1
    55     4    51    1
    56     5    52    1
    57     6    53    1
    58    15    54    1
    59    16    55    1
    60    17    56    1
    61    18    57    1
    62    20    58    1
@<TRIPOS>MOLECULE
mol96_2_26
 58 62 0 0 0
SMALL
USER_CHARGES
****
VDW energy = 40.18
@<TRIPOS>ATOM
   1 O1       -4.2425     1.9267    -4.2583  O.2     1  <O>11      -0.2700
   2 C1       -4.7326     2.2891    -5.3174  C.2     1  <O>11       0.2466
   3 C2       -4.7890     3.7070    -5.6470  C.ar    1  <O>11       0.0372
   4 C3       -5.9052     4.4773    -5.2763  C.ar    1  <O>11      -0.0496
   5 C4       -5.9651     5.8365    -5.6044  C.ar    1  <O>11      -0.0608
   6 C5       -4.9121     6.4392    -6.2987  C.ar    1  <O>11      -0.0582
   7 C6       -3.7989     5.6740    -6.6602  C.ar    1  <O>11      -0.0408
   8 C7       -2.6890     6.3160    -7.3916  C.3     1  <O>11       0.0171
   9 C8       -1.9236     5.2833    -8.1376  C.ar    1  <O>11       0.0736
  10 N1       -2.5129     4.0458    -8.4194  N.ar    1  <O>11      -0.1750
  11 N2       -1.7947     3.0597    -9.0045  N.ar    1  <O>11      -0.2425
  12 C9       -0.4994     3.2882    -9.3261  C.ar    1  <O>11       0.2725
  13 O2        0.2178     2.1921    -9.8407  O.2     1  <O>11      -0.2658
  14 C10       0.1342     4.5303    -9.1716  C.ar    1  <O>11       0.0496
  15 C11       1.4690     4.7899    -9.5604  C.ar    1  <O>11      -0.0487
  16 C12       2.0486     6.0418    -9.3489  C.ar    1  <O>11      -0.0610
  17 C13       1.3132     7.0525    -8.7404  C.ar    1  <O>11      -0.0611
  18 C14      -0.0037     6.8125    -8.3434  C.ar    1  <O>11      -0.0521
  19 C15      -0.6098     5.5533    -8.5578  C.ar    1  <O>11       0.0106
  20 C16      -3.7287     4.3176    -6.3377  C.ar    1  <O>11      -0.0461
  21 N3       -5.2250     1.3690    -6.1880  N.am    1  <O>11      -0.2974
  22 C17      -5.8467     1.6516    -7.5052  C.3     1  <O>11       0.0173
  23 C18      -7.2453     1.0547    -7.5974  C.3     1  <O>11      -0.0107
  24 C19      -7.2181    -0.4446    -7.3197  C.3     1  <O>11       0.0619
  25 O3       -8.5479    -0.9353    -7.2943  O.3     1  <O>11      -0.3732
  26 C20      -8.5328    -2.3297    -7.0365  C.3     1  <O>11       0.0591
  27 C21      -9.7472    -2.9777    -7.4364  C.3     1  <O>11      -0.0265
  28 C22      -9.5549    -3.7727    -6.1310  C.3     1  <O>11      -0.0484
  29 C23      -8.6423    -2.6341    -5.6397  C.3     1  <O>11      -0.0265
  30 C24      -6.5512    -0.7389    -5.9809  C.3     1  <O>11      -0.0107
  31 C25      -5.1781    -0.0829    -5.8754  C.3     1  <O>11       0.0173
  32 H1       -2.0293     6.8172    -6.6832  H       1  <O>11       0.0377
  33 H2       -3.0915     7.0475    -8.0931  H       1  <O>11       0.0377
  34 H3       -2.2208     2.1648    -9.1996  H       1  <O>11       0.1921
  35 H4       -5.9118     2.7313    -7.6414  H       1  <O>11       0.0465
  36 H5       -5.2247     1.2225    -8.2907  H       1  <O>11       0.0465
  37 H6       -7.8898     1.5413    -6.8652  H       1  <O>11       0.0305
  38 H7       -7.6405     1.2261    -8.5991  H       1  <O>11       0.0305
  39 H8       -6.6614    -0.9441    -8.1131  H       1  <O>11       0.0597
  40 H9       -7.6494    -2.7743    -7.4953  H       1  <O>11       0.0596
  41 H10     -10.6295    -2.3401    -7.4698  H       1  <O>11       0.0290
  42 H11      -9.6859    -3.5624    -8.3535  H       1  <O>11       0.0290
  43 H12     -10.4639    -3.9093    -5.5455  H       1  <O>11       0.0267
  44 H13      -9.0546    -4.7329    -6.2545  H       1  <O>11       0.0267
  45 H14      -9.1300    -1.8728    -5.0318  H       1  <O>11       0.0290
  46 H15      -7.7187    -2.9504    -5.1555  H       1  <O>11       0.0290
  47 H16      -7.1850    -0.3589    -5.1796  H       1  <O>11       0.0305
  48 H17      -6.4357    -1.8179    -5.8731  H       1  <O>11       0.0305
  49 H18      -4.8045    -0.2122    -4.8597  H       1  <O>11       0.0465
  50 H19      -4.5007    -0.5715    -6.5769  H       1  <O>11       0.0465
  51 H20      -6.6838     4.0385    -4.7601  H       1  <O>11       0.0625
  52 H21      -6.7890     6.3955    -5.3330  H       1  <O>11       0.0618
  53 H22      -4.9560     7.4410    -6.5426  H       1  <O>11       0.0620
  54 H23       2.0227     4.0425   -10.0073  H       1  <O>11       0.0625
  55 H24       3.0219     6.2169    -9.6438  H       1  <O>11       0.0618
  56 H25       1.7400     7.9788    -8.5825  H       1  <O>11       0.0618
  57 H26      -0.5424     7.5651    -7.8868  H       1  <O>11       0.0624
  58 H27      -2.8998     3.7645    -6.6061  H       1  <O>11       0.0628
@<TRIPOS>BOND
     1     1     2    2
     2     2     3    1
     3     3     4   ar
     4     4     5   ar
     5     5     6   ar
     6     6     7   ar
     7     7     8    1
     8     8     9    1
     9     9    10   ar
    10    10    11   ar
    11    11    12   ar
    12    12    13    2
    13    12    14   ar
    14    14    15   ar
    15    15    16   ar
    16    16    17   ar
    17    17    18   ar
    18    18    19   ar
    19     9    19   ar
    20    14    19   ar
    21     7    20   ar
    22     3    20   ar
    23     2    21   am
    24    21    22    1
    25    22    23    1
    26    23    24    1
    27    24    25    1
    28    25    26    1
    29    26    27    1
    30    27    28    1
    31    28    29    1
    32    26    29    1
    33    24    30    1
    34    30    31    1
    35    21    31    1
    36     8    32    1
    37     8    33    1
    38    11    34    1
    39    22    35    1
    40    22    36    1
    41    23    37    1
    42    23    38    1
    43    24    39    1
    44    26    40    1
    45    27    41    1
    46    27    42    1
    47    28    43    1
    48    28    44    1
    49    29    45    1
    50    29    46    1
    51    30    47    1
    52    30    48    1
    53    31    49    1
    54    31    50    1
    55     4    51    1
    56     5    52    1
    57     6    53    1
    58    15    54    1
    59    16    55    1
    60    17    56    1
    61    18    57    1
    62    20    58    1
@<TRIPOS>MOLECULE
mol96_2_27
 58 62 0 0 0
SMALL
USER_CHARGES
****
VDW energy = 42.02
@<TRIPOS>ATOM
   1 O1       -4.2425     1.9267    -4.2583  O.2     1  <O>11      -0.2700
   2 C1       -4.7326     2.2891    -5.3174  C.2     1  <O>11       0.2466
   3 C2       -4.7890     3.7070    -5.6470  C.ar    1  <O>11       0.0372
   4 C3       -5.9052     4.4773    -5.2763  C.ar    1  <O>11      -0.0496
   5 C4       -5.9651     5.8365    -5.6044  C.ar    1  <O>11      -0.0608
   6 C5       -4.9121     6.4392    -6.2987  C.ar    1  <O>11      -0.0582
   7 C6       -3.7989     5.6740    -6.6602  C.ar    1  <O>11      -0.0408
   8 C7       -2.6890     6.3160    -7.3916  C.3     1  <O>11       0.0171
   9 C8       -1.9236     5.2833    -8.1376  C.ar    1  <O>11       0.0736
  10 N1       -2.5129     4.0458    -8.4194  N.ar    1  <O>11      -0.1750
  11 N2       -1.7947     3.0597    -9.0045  N.ar    1  <O>11      -0.2425
  12 C9       -0.4994     3.2882    -9.3261  C.ar    1  <O>11       0.2725
  13 O2        0.2178     2.1921    -9.8407  O.2     1  <O>11      -0.2658
  14 C10       0.1342     4.5303    -9.1716  C.ar    1  <O>11       0.0496
  15 C11       1.4690     4.7899    -9.5604  C.ar    1  <O>11      -0.0487
  16 C12       2.0486     6.0418    -9.3489  C.ar    1  <O>11      -0.0610
  17 C13       1.3132     7.0525    -8.7404  C.ar    1  <O>11      -0.0611
  18 C14      -0.0037     6.8125    -8.3434  C.ar    1  <O>11      -0.0521
  19 C15      -0.6098     5.5533    -8.5578  C.ar    1  <O>11       0.0106
  20 C16      -3.7287     4.3176    -6.3377  C.ar    1  <O>11      -0.0461
  21 N3       -5.2250     1.3690    -6.1880  N.am    1  <O>11      -0.2974
  22 C17      -5.2400    -0.1020    -5.9950  C.3     1  <O>11       0.0173
  23 C18      -4.5440    -0.8190    -7.1450  C.3     1  <O>11      -0.0107
  24 C19      -5.1700    -0.4400    -8.4830  C.3     1  <O>11       0.0619
  25 O3       -4.4180    -1.0300    -9.5300  O.3     1  <O>11      -0.3732
  26 C20      -4.9929    -0.6829   -10.7790  C.3     1  <O>11       0.0591
  27 C21      -4.6008    -1.5719   -11.8328  C.3     1  <O>11      -0.0265
  28 C22      -4.5257    -0.2794   -12.6674  C.3     1  <O>11      -0.0484
  29 C23      -4.4124     0.5000   -11.3444  C.3     1  <O>11      -0.0265
  30 C24      -5.1840     1.0730    -8.6690  C.3     1  <O>11      -0.0107
  31 C25      -5.8260     1.7840    -7.4820  C.3     1  <O>11       0.0173
  32 H1       -2.0293     6.8172    -6.6832  H       1  <O>11       0.0377
  33 H2       -3.0915     7.0475    -8.0931  H       1  <O>11       0.0377
  34 H3       -2.2208     2.1648    -9.1996  H       1  <O>11       0.1921
  35 H4       -4.7260    -0.3420    -5.0640  H       1  <O>11       0.0465
  36 H5       -6.2740    -0.4420    -5.9380  H       1  <O>11       0.0465
  37 H6       -3.4900    -0.5410    -7.1530  H       1  <O>11       0.0305
  38 H7       -4.6340    -1.8960    -7.0000  H       1  <O>11       0.0305
  39 H8       -6.1940    -0.8130    -8.5160  H       1  <O>11       0.0597
  40 H9       -6.0755    -0.6100   -10.6728  H       1  <O>11       0.0596
  41 H10      -3.6531    -2.0873   -11.6827  H       1  <O>11       0.0290
  42 H11      -5.3587    -2.2884   -12.1473  H       1  <O>11       0.0290
  43 H12      -3.6503    -0.2065   -13.3124  H       1  <O>11       0.0267
  44 H13      -5.4228    -0.0608   -13.2463  H       1  <O>11       0.0267
  45 H14      -3.3971     0.7242   -11.0189  H       1  <O>11       0.0290
  46 H15      -5.0235     1.3997   -11.2772  H       1  <O>11       0.0290
  47 H16      -4.1580     1.4250    -8.7770  H       1  <O>11       0.0305
  48 H17      -5.7480     1.3130    -9.5710  H       1  <O>11       0.0305
  49 H18      -5.6930     2.8590    -7.6030  H       1  <O>11       0.0465
  50 H19      -6.8910     1.5490    -7.4660  H       1  <O>11       0.0465
  51 H20      -6.6838     4.0385    -4.7601  H       1  <O>11       0.0625
  52 H21      -6.7890     6.3955    -5.3330  H       1  <O>11       0.0618
  53 H22      -4.9560     7.4410    -6.5426  H       1  <O>11       0.0620
  54 H23       2.0227     4.0425   -10.0073  H       1  <O>11       0.0625
  55 H24       3.0219     6.2169    -9.6438  H       1  <O>11       0.0618
  56 H25       1.7400     7.9788    -8.5825  H       1  <O>11       0.0618
  57 H26      -0.5424     7.5651    -7.8868  H       1  <O>11       0.0624
  58 H27      -2.8998     3.7645    -6.6061  H       1  <O>11       0.0628
@<TRIPOS>BOND
     1     1     2    2
     2     2     3    1
     3     3     4   ar
     4     4     5   ar
     5     5     6   ar
     6     6     7   ar
     7     7     8    1
     8     8     9    1
     9     9    10   ar
    10    10    11   ar
    11    11    12   ar
    12    12    13    2
    13    12    14   ar
    14    14    15   ar
    15    15    16   ar
    16    16    17   ar
    17    17    18   ar
    18    18    19   ar
    19     9    19   ar
    20    14    19   ar
    21     7    20   ar
    22     3    20   ar
    23     2    21   am
    24    21    22    1
    25    22    23    1
    26    23    24    1
    27    24    25    1
    28    25    26    1
    29    26    27    1
    30    27    28    1
    31    28    29    1
    32    26    29    1
    33    24    30    1
    34    30    31    1
    35    21    31    1
    36     8    32    1
    37     8    33    1
    38    11    34    1
    39    22    35    1
    40    22    36    1
    41    23    37    1
    42    23    38    1
    43    24    39    1
    44    26    40    1
    45    27    41    1
    46    27    42    1
    47    28    43    1
    48    28    44    1
    49    29    45    1
    50    29    46    1
    51    30    47    1
    52    30    48    1
    53    31    49    1
    54    31    50    1
    55     4    51    1
    56     5    52    1
    57     6    53    1
    58    15    54    1
    59    16    55    1
    60    17    56    1
    61    18    57    1
    62    20    58    1
@<TRIPOS>MOLECULE
mol96_2_28
 58 62 0 0 0
SMALL
USER_CHARGES
****
VDW energy = 46.50
@<TRIPOS>ATOM
   1 O1       -4.2425     1.9267    -4.2583  O.2     1  <O>11      -0.2700
   2 C1       -4.7326     2.2891    -5.3174  C.2     1  <O>11       0.2466
   3 C2       -4.7890     3.7070    -5.6470  C.ar    1  <O>11       0.0372
   4 C3       -5.9052     4.4773    -5.2763  C.ar    1  <O>11      -0.0496
   5 C4       -5.9651     5.8365    -5.6044  C.ar    1  <O>11      -0.0608
   6 C5       -4.9121     6.4392    -6.2987  C.ar    1  <O>11      -0.0582
   7 C6       -3.7989     5.6740    -6.6602  C.ar    1  <O>11      -0.0408
   8 C7       -2.6890     6.3160    -7.3916  C.3     1  <O>11       0.0171
   9 C8       -1.9236     5.2833    -8.1376  C.ar    1  <O>11       0.0736
  10 N1       -2.5129     4.0458    -8.4194  N.ar    1  <O>11      -0.1750
  11 N2       -1.7947     3.0597    -9.0045  N.ar    1  <O>11      -0.2425
  12 C9       -0.4994     3.2882    -9.3261  C.ar    1  <O>11       0.2725
  13 O2        0.2178     2.1921    -9.8407  O.2     1  <O>11      -0.2658
  14 C10       0.1342     4.5303    -9.1716  C.ar    1  <O>11       0.0496
  15 C11       1.4690     4.7899    -9.5604  C.ar    1  <O>11      -0.0487
  16 C12       2.0486     6.0418    -9.3489  C.ar    1  <O>11      -0.0610
  17 C13       1.3132     7.0525    -8.7404  C.ar    1  <O>11      -0.0611
  18 C14      -0.0037     6.8125    -8.3434  C.ar    1  <O>11      -0.0521
  19 C15      -0.6098     5.5533    -8.5578  C.ar    1  <O>11       0.0106
  20 C16      -3.7287     4.3176    -6.3377  C.ar    1  <O>11      -0.0461
  21 N3       -5.2250     1.3690    -6.1880  N.am    1  <O>11      -0.2974
  22 C17      -5.2400    -0.1020    -5.9950  C.3     1  <O>11       0.0173
  23 C18      -4.5440    -0.8190    -7.1450  C.3     1  <O>11      -0.0107
  24 C19      -5.1700    -0.4400    -8.4830  C.3     1  <O>11       0.0619
  25 O3       -4.4180    -1.0300    -9.5300  O.3     1  <O>11      -0.3732
  26 C20      -4.9929    -0.6829   -10.7790  C.3     1  <O>11       0.0591
  27 C21      -5.9846    -1.6238   -11.2102  C.3     1  <O>11      -0.0265
  28 C22      -5.3536    -1.3980   -12.5972  C.3     1  <O>11      -0.0484
  29 C23      -4.0929    -0.8861   -11.8766  C.3     1  <O>11      -0.0265
  30 C24      -5.1840     1.0730    -8.6690  C.3     1  <O>11      -0.0107
  31 C25      -5.8260     1.7840    -7.4820  C.3     1  <O>11       0.0173
  32 H1       -2.0293     6.8172    -6.6832  H       1  <O>11       0.0377
  33 H2       -3.0915     7.0475    -8.0931  H       1  <O>11       0.0377
  34 H3       -2.2208     2.1648    -9.1996  H       1  <O>11       0.1921
  35 H4       -4.7260    -0.3420    -5.0640  H       1  <O>11       0.0465
  36 H5       -6.2740    -0.4420    -5.9380  H       1  <O>11       0.0465
  37 H6       -3.4900    -0.5410    -7.1530  H       1  <O>11       0.0305
  38 H7       -4.6340    -1.8960    -7.0000  H       1  <O>11       0.0305
  39 H8       -6.1940    -0.8130    -8.5160  H       1  <O>11       0.0597
  40 H9       -5.3748     0.3371   -10.7322  H       1  <O>11       0.0596
  41 H10      -5.8815    -2.6307   -10.8079  H       1  <O>11       0.0290
  42 H11      -7.0181    -1.2950   -11.1074  H       1  <O>11       0.0290
  43 H12      -5.2044    -2.3064   -13.1805  H       1  <O>11       0.0267
  44 H13      -5.8597    -0.6520   -13.2095  H       1  <O>11       0.0267
  45 H14      -3.3139    -1.6297   -11.7113  H       1  <O>11       0.0290
  46 H15      -3.6505     0.0186   -12.2930  H       1  <O>11       0.0290
  47 H16      -4.1580     1.4250    -8.7770  H       1  <O>11       0.0305
  48 H17      -5.7480     1.3130    -9.5710  H       1  <O>11       0.0305
  49 H18      -5.6930     2.8590    -7.6030  H       1  <O>11       0.0465
  50 H19      -6.8910     1.5490    -7.4660  H       1  <O>11       0.0465
  51 H20      -6.6838     4.0385    -4.7601  H       1  <O>11       0.0625
  52 H21      -6.7890     6.3955    -5.3330  H       1  <O>11       0.0618
  53 H22      -4.9560     7.4410    -6.5426  H       1  <O>11       0.0620
  54 H23       2.0227     4.0425   -10.0073  H       1  <O>11       0.0625
  55 H24       3.0219     6.2169    -9.6438  H       1  <O>11       0.0618
  56 H25       1.7400     7.9788    -8.5825  H       1  <O>11       0.0618
  57 H26      -0.5424     7.5651    -7.8868  H       1  <O>11       0.0624
  58 H27      -2.8998     3.7645    -6.6061  H       1  <O>11       0.0628
@<TRIPOS>BOND
     1     1     2    2
     2     2     3    1
     3     3     4   ar
     4     4     5   ar
     5     5     6   ar
     6     6     7   ar
     7     7     8    1
     8     8     9    1
     9     9    10   ar
    10    10    11   ar
    11    11    12   ar
    12    12    13    2
    13    12    14   ar
    14    14    15   ar
    15    15    16   ar
    16    16    17   ar
    17    17    18   ar
    18    18    19   ar
    19     9    19   ar
    20    14    19   ar
    21     7    20   ar
    22     3    20   ar
    23     2    21   am
    24    21    22    1
    25    22    23    1
    26    23    24    1
    27    24    25    1
    28    25    26    1
    29    26    27    1
    30    27    28    1
    31    28    29    1
    32    26    29    1
    33    24    30    1
    34    30    31    1
    35    21    31    1
    36     8    32    1
    37     8    33    1
    38    11    34    1
    39    22    35    1
    40    22    36    1
    41    23    37    1
    42    23    38    1
    43    24    39    1
    44    26    40    1
    45    27    41    1
    46    27    42    1
    47    28    43    1
    48    28    44    1
    49    29    45    1
    50    29    46    1
    51    30    47    1
    52    30    48    1
    53    31    49    1
    54    31    50    1
    55     4    51    1
    56     5    52    1
    57     6    53    1
    58    15    54    1
    59    16    55    1
    60    17    56    1
    61    18    57    1
    62    20    58    1
@<TRIPOS>MOLECULE
mol96_2_29
 58 62 0 0 0
SMALL
USER_CHARGES
****
VDW energy = 55.16
@<TRIPOS>ATOM
   1 O1       -4.2425     1.9267    -4.2583  O.2     1  <O>11      -0.2700
   2 C1       -4.7326     2.2891    -5.3174  C.2     1  <O>11       0.2466
   3 C2       -4.7890     3.7070    -5.6470  C.ar    1  <O>11       0.0372
   4 C3       -3.7277     4.3170    -6.3385  C.ar    1  <O>11      -0.0496
   5 C4       -3.7762     5.6820    -6.6437  C.ar    1  <O>11      -0.0608
   6 C5       -4.8835     6.4476    -6.2675  C.ar    1  <O>11      -0.0582
   7 C6       -5.9421     5.8384    -5.5865  C.ar    1  <O>11      -0.0408
   8 C7       -7.1099     6.6512    -5.1933  C.3     1  <O>11       0.0171
   9 C8       -7.8083     5.9981    -4.0555  C.ar    1  <O>11       0.0736
  10 N1       -7.1324     5.0596    -3.2678  N.ar    1  <O>11      -0.1750
  11 N2       -7.7844     4.3810    -2.2957  N.ar    1  <O>11      -0.2425
  12 C9       -9.0986     4.6294    -2.0850  C.ar    1  <O>11       0.2725
  13 O2       -9.7401     3.8214    -1.1277  O.2     1  <O>11      -0.2658
  14 C10      -9.8212     5.6248    -2.7596  C.ar    1  <O>11       0.0496
  15 C11     -11.1784     5.9277    -2.5015  C.ar    1  <O>11      -0.0487
  16 C12     -11.8469     6.9108    -3.2326  C.ar    1  <O>11      -0.0610
  17 C13     -11.1793     7.6025    -4.2368  C.ar    1  <O>11      -0.0611
  18 C14      -9.8412     7.3122    -4.5106  C.ar    1  <O>11      -0.0521
  19 C15      -9.1458     6.3258    -3.7741  C.ar    1  <O>11       0.0106
  20 C16      -5.9043     4.4776    -5.2773  C.ar    1  <O>11      -0.0461
  21 N3       -5.2250     1.3690    -6.1880  N.am    1  <O>11      -0.2974
  22 C17      -5.2400    -0.1020    -5.9950  C.3     1  <O>11       0.0173
  23 C18      -4.5440    -0.8190    -7.1450  C.3     1  <O>11      -0.0107
  24 C19      -5.1700    -0.4400    -8.4830  C.3     1  <O>11       0.0619
  25 O3       -4.4180    -1.0300    -9.5300  O.3     1  <O>11      -0.3732
  26 C20      -3.0351    -0.9344    -9.2310  C.3     1  <O>11       0.0591
  27 C21      -2.2083    -1.0771   -10.3933  C.3     1  <O>11      -0.0265
  28 C22      -1.3095    -1.8951    -9.4468  C.3     1  <O>11      -0.0484
  29 C23      -2.5386    -2.0885    -8.5399  C.3     1  <O>11      -0.0265
  30 C24      -5.1840     1.0730    -8.6690  C.3     1  <O>11      -0.0107
  31 C25      -5.8260     1.7840    -7.4820  C.3     1  <O>11       0.0173
  32 H1       -7.7930     6.7378    -6.0383  H       1  <O>11       0.0377
  33 H2       -6.7760     7.6449    -4.8929  H       1  <O>11       0.0377
  34 H3       -7.2955     3.6984    -1.7339  H       1  <O>11       0.1921
  35 H4       -4.7260    -0.3420    -5.0640  H       1  <O>11       0.0465
  36 H5       -6.2740    -0.4420    -5.9380  H       1  <O>11       0.0465
  37 H6       -3.4900    -0.5410    -7.1530  H       1  <O>11       0.0305
  38 H7       -4.6340    -1.8960    -7.0000  H       1  <O>11       0.0305
  39 H8       -6.1940    -0.8130    -8.5160  H       1  <O>11       0.0597
  40 H9       -2.8434    -0.0068    -8.6913  H       1  <O>11       0.0596
  41 H10      -2.6505    -1.6357   -11.2171  H       1  <O>11       0.0290
  42 H11      -1.7708    -0.1545   -10.7728  H       1  <O>11       0.0290
  43 H12      -0.9158    -2.8152    -9.8783  H       1  <O>11       0.0267
  44 H13      -0.4961    -1.3296    -8.9928  H       1  <O>11       0.0267
  45 H14      -3.0997    -3.0082    -8.7021  H       1  <O>11       0.0290
  46 H15      -2.3592    -1.9544    -7.4735  H       1  <O>11       0.0290
  47 H16      -4.1580     1.4250    -8.7770  H       1  <O>11       0.0305
  48 H17      -5.7480     1.3130    -9.5710  H       1  <O>11       0.0305
  49 H18      -5.6930     2.8590    -7.6030  H       1  <O>11       0.0465
  50 H19      -6.8910     1.5490    -7.4660  H       1  <O>11       0.0465
  51 H20      -2.9094     3.7558    -6.6222  H       1  <O>11       0.0625
  52 H21      -2.9921     6.1247    -7.1479  H       1  <O>11       0.0618
  53 H22      -4.9196     7.4546    -6.4905  H       1  <O>11       0.0620
  54 H23     -11.6820     5.4142    -1.7615  H       1  <O>11       0.0625
  55 H24     -12.8357     7.1240    -3.0280  H       1  <O>11       0.0618
  56 H25     -11.6718     8.3294    -4.7791  H       1  <O>11       0.0618
  57 H26      -9.3529     7.8250    -5.2613  H       1  <O>11       0.0624
  58 H27      -6.6937     4.0385    -4.7783  H       1  <O>11       0.0628
@<TRIPOS>BOND
     1     1     2    2
     2     2     3    1
     3     3     4   ar
     4     4     5   ar
     5     5     6   ar
     6     6     7   ar
     7     7     8    1
     8     8     9    1
     9     9    10   ar
    10    10    11   ar
    11    11    12   ar
    12    12    13    2
    13    12    14   ar
    14    14    15   ar
    15    15    16   ar
    16    16    17   ar
    17    17    18   ar
    18    18    19   ar
    19     9    19   ar
    20    14    19   ar
    21     7    20   ar
    22     3    20   ar
    23     2    21   am
    24    21    22    1
    25    22    23    1
    26    23    24    1
    27    24    25    1
    28    25    26    1
    29    26    27    1
    30    27    28    1
    31    28    29    1
    32    26    29    1
    33    24    30    1
    34    30    31    1
    35    21    31    1
    36     8    32    1
    37     8    33    1
    38    11    34    1
    39    22    35    1
    40    22    36    1
    41    23    37    1
    42    23    38    1
    43    24    39    1
    44    26    40    1
    45    27    41    1
    46    27    42    1
    47    28    43    1
    48    28    44    1
    49    29    45    1
    50    29    46    1
    51    30    47    1
    52    30    48    1
    53    31    49    1
    54    31    50    1
    55     4    51    1
    56     5    52    1
    57     6    53    1
    58    15    54    1
    59    16    55    1
    60    17    56    1
    61    18    57    1
    62    20    58    1
@<TRIPOS>MOLECULE
mol96_2_30
 58 62 0 0 0
SMALL
USER_CHARGES
****
VDW energy = 56.49
@<TRIPOS>ATOM
   1 O1       -4.2425     1.9267    -4.2583  O.2     1  <O>11      -0.2700
   2 C1       -4.7326     2.2891    -5.3174  C.2     1  <O>11       0.2466
   3 C2       -4.7890     3.7070    -5.6470  C.ar    1  <O>11       0.0372
   4 C3       -5.9236     4.2430    -6.2811  C.ar    1  <O>11      -0.0496
   5 C4       -5.9723     5.6026    -6.6094  C.ar    1  <O>11      -0.0608
   6 C5       -4.8945     6.4387    -6.3039  C.ar    1  <O>11      -0.0582
   7 C6       -3.7697     5.9063    -5.6662  C.ar    1  <O>11      -0.0408
   8 C7       -2.6352     6.7941    -5.3442  C.3     1  <O>11       0.0171
   9 C8       -1.6802     6.8114    -6.4829  C.ar    1  <O>11       0.0736
  10 N1       -2.1056     6.4174    -7.7564  N.ar    1  <O>11      -0.1750
  11 N2       -1.2237     6.3281    -8.7786  N.ar    1  <O>11      -0.2425
  12 C9        0.0762     6.6365    -8.5579  C.ar    1  <O>11       0.2725
  13 O2        0.9577     6.4286    -9.6351  O.2     1  <O>11      -0.2658
  14 C10       0.5623     7.1368    -7.3408  C.ar    1  <O>11       0.0496
  15 C11       1.9074     7.5159    -7.1234  C.ar    1  <O>11      -0.0487
  16 C12       2.3315     7.9772    -5.8763  C.ar    1  <O>11      -0.0610
  17 C13       1.4272     8.0614    -4.8239  C.ar    1  <O>11      -0.0611
  18 C14       0.0967     7.6849    -5.0178  C.ar    1  <O>11      -0.0521
  19 C15      -0.3524     7.2238    -6.2766  C.ar    1  <O>11       0.0106
  20 C16      -3.7107     4.5517    -5.3340  C.ar    1  <O>11      -0.0461
  21 N3       -5.2250     1.3690    -6.1880  N.am    1  <O>11      -0.2974
  22 C17      -5.2400    -0.1020    -5.9950  C.3     1  <O>11       0.0173
  23 C18      -4.5440    -0.8190    -7.1450  C.3     1  <O>11      -0.0107
  24 C19      -5.1700    -0.4400    -8.4830  C.3     1  <O>11       0.0619
  25 O3       -4.4180    -1.0300    -9.5300  O.3     1  <O>11      -0.3732
  26 C20      -3.0351    -0.9344    -9.2310  C.3     1  <O>11       0.0591
  27 C21      -2.2083    -1.0771   -10.3933  C.3     1  <O>11      -0.0265
  28 C22      -1.3095    -1.8951    -9.4468  C.3     1  <O>11      -0.0484
  29 C23      -2.5386    -2.0885    -8.5399  C.3     1  <O>11      -0.0265
  30 C24      -5.1840     1.0730    -8.6690  C.3     1  <O>11      -0.0107
  31 C25      -5.8260     1.7840    -7.4820  C.3     1  <O>11       0.0173
  32 H1       -2.1297     6.4276    -4.4507  H       1  <O>11       0.0377
  33 H2       -3.0044     7.8042    -5.1641  H       1  <O>11       0.0377
  34 H3       -1.5324     6.0359    -9.6951  H       1  <O>11       0.1921
  35 H4       -4.7260    -0.3420    -5.0640  H       1  <O>11       0.0465
  36 H5       -6.2740    -0.4420    -5.9380  H       1  <O>11       0.0465
  37 H6       -3.4900    -0.5410    -7.1530  H       1  <O>11       0.0305
  38 H7       -4.6340    -1.8960    -7.0000  H       1  <O>11       0.0305
  39 H8       -6.1940    -0.8130    -8.5160  H       1  <O>11       0.0597
  40 H9       -2.8434    -0.0068    -8.6913  H       1  <O>11       0.0596
  41 H10      -2.6505    -1.6357   -11.2171  H       1  <O>11       0.0290
  42 H11      -1.7708    -0.1545   -10.7728  H       1  <O>11       0.0290
  43 H12      -0.9158    -2.8152    -9.8783  H       1  <O>11       0.0267
  44 H13      -0.4961    -1.3296    -8.9928  H       1  <O>11       0.0267
  45 H14      -3.0997    -3.0082    -8.7021  H       1  <O>11       0.0290
  46 H15      -2.3592    -1.9544    -7.4735  H       1  <O>11       0.0290
  47 H16      -4.1580     1.4250    -8.7770  H       1  <O>11       0.0305
  48 H17      -5.7480     1.3130    -9.5710  H       1  <O>11       0.0305
  49 H18      -5.6930     2.8590    -7.6030  H       1  <O>11       0.0465
  50 H19      -6.8910     1.5490    -7.4660  H       1  <O>11       0.0465
  51 H20      -6.7239     3.6312    -6.5055  H       1  <O>11       0.0625
  52 H21      -6.8063     5.9891    -7.0785  H       1  <O>11       0.0618
  53 H22      -4.9287     7.4411    -6.5470  H       1  <O>11       0.0620
  54 H23       2.5855     7.4505    -7.8986  H       1  <O>11       0.0625
  55 H24       3.3153     8.2555    -5.7357  H       1  <O>11       0.0618
  56 H25       1.7387     8.4017    -3.9007  H       1  <O>11       0.0618
  57 H26      -0.5684     7.7441    -4.2309  H       1  <O>11       0.0624
  58 H27      -2.8768     4.1715    -4.8595  H       1  <O>11       0.0628
@<TRIPOS>BOND
     1     1     2    2
     2     2     3    1
     3     3     4   ar
     4     4     5   ar
     5     5     6   ar
     6     6     7   ar
     7     7     8    1
     8     8     9    1
     9     9    10   ar
    10    10    11   ar
    11    11    12   ar
    12    12    13    2
    13    12    14   ar
    14    14    15   ar
    15    15    16   ar
    16    16    17   ar
    17    17    18   ar
    18    18    19   ar
    19     9    19   ar
    20    14    19   ar
    21     7    20   ar
    22     3    20   ar
    23     2    21   am
    24    21    22    1
    25    22    23    1
    26    23    24    1
    27    24    25    1
    28    25    26    1
    29    26    27    1
    30    27    28    1
    31    28    29    1
    32    26    29    1
    33    24    30    1
    34    30    31    1
    35    21    31    1
    36     8    32    1
    37     8    33    1
    38    11    34    1
    39    22    35    1
    40    22    36    1
    41    23    37    1
    42    23    38    1
    43    24    39    1
    44    26    40    1
    45    27    41    1
    46    27    42    1
    47    28    43    1
    48    28    44    1
    49    29    45    1
    50    29    46    1
    51    30    47    1
    52    30    48    1
    53    31    49    1
    54    31    50    1
    55     4    51    1
    56     5    52    1
    57     6    53    1
    58    15    54    1
    59    16    55    1
    60    17    56    1
    61    18    57    1
    62    20    58    1
