@<TRIPOS>MOLECULE
mol92_1_1
 59 63 0 0 0
SMALL
USER_CHARGES
****
VDW energy = -111.76
@<TRIPOS>ATOM
   1 N1        4.8233    -0.0872     3.3214  N.pl3   1  <O>11      -0.2515
   2 C1        4.2396     0.9903     4.0983  C.2     1  <O>11       0.2546
   3 C2        5.0243     2.1387     4.4305  C.2     1  <O>11       0.0151
   4 C3        4.9430     3.1730     5.0070  C.3     1  <O>11      -0.0202
   5 C4        6.1150     2.5820     4.2810  C.3     1  <O>11      -0.0202
   6 N2        2.8690     0.9030     4.5350  N.pl3   1  <O>11      -0.2241
   7 C5        1.7826     0.9140     3.5147  C.3     1  <O>11       0.0818
   8 C6        0.6091    -0.0000     3.8584  C.3     1  <O>11      -0.0009
   9 C7        1.0046    -1.4480     4.1360  C.3     1  <O>11       0.0185
  10 N3        2.0673    -1.5880     5.1684  N.am    1  <O>11      -0.2937
  11 C8        3.0830    -2.4895     5.1132  C.2     1  <O>11       0.2495
  12 O1        3.1676    -3.2584     4.1682  O.2     1  <O>11      -0.2699
  13 C9        4.0724    -2.5384     6.1831  C.ar    1  <O>11       0.0723
  14 C10       5.2372    -1.7566     6.1076  C.ar    1  <O>11      -0.0433
  15 C11       6.1915    -1.8129     7.1288  C.ar    1  <O>11      -0.0406
  16 C12       7.4118    -0.9887     7.0367  C.3     1  <O>11       0.0171
  17 C13       8.4749    -1.7562     6.3370  C.ar    1  <O>11       0.0736
  18 N4        8.1366    -2.8725     5.5632  N.ar    1  <O>11      -0.1750
  19 N5        9.1008    -3.6406     5.0070  N.ar    1  <O>11      -0.2425
  20 C14      10.3997    -3.3079     5.1955  C.ar    1  <O>11       0.2725
  21 O2       11.3529    -4.2026     4.6723  O.2     1  <O>11      -0.2658
  22 C15      10.8199    -2.1513     5.8673  C.ar    1  <O>11       0.0496
  23 C16      12.1722    -1.7710     6.0158  C.ar    1  <O>11      -0.0487
  24 C17      12.5229    -0.6224     6.7254  C.ar    1  <O>11      -0.0610
  25 C18      11.5331     0.1633     7.3049  C.ar    1  <O>11      -0.0611
  26 C19      10.1917    -0.1996     7.1738  C.ar    1  <O>11      -0.0521
  27 C20       9.8169    -1.3558     6.4525  C.ar    1  <O>11       0.0106
  28 C21       5.9920    -2.6455     8.2335  C.ar    1  <O>11      -0.0555
  29 C22       4.8286    -3.4198     8.3107  C.ar    1  <O>11      -0.0254
  30 C23       3.8695    -3.3687     7.2978  C.ar    1  <O>11       0.1355
  31 F1        2.7272    -4.1219     7.3776  F       1  <O>11      -0.2047
  32 C24       1.9432    -0.6367     6.3159  C.3     1  <O>11       0.0510
  33 C25       2.3907     0.7988     5.9472  C.3     1  <O>11       0.0960
  34 H1        4.2635    -0.9063     3.0844  H       1  <O>11       0.2881
  35 H2        5.7933    -0.0256     3.0122  H       1  <O>11       0.2881
  36 H3        4.3825     4.0115     4.5936  H       1  <O>11       0.0316
  37 H4        4.9117     3.2158     6.0957  H       1  <O>11       0.0316
  38 H5        6.4425     2.9727     3.3176  H       1  <O>11       0.0316
  39 H6        6.9717     2.1770     4.8196  H       1  <O>11       0.0316
  40 H7        1.4084     1.9329     3.4225  H       1  <O>11       0.0726
  41 H8        2.2019     0.5912     2.5619  H       1  <O>11       0.0726
  42 H9        0.1162     0.3951     4.7464  H       1  <O>11       0.0317
  43 H10      -0.0882     0.0098     3.0212  H       1  <O>11       0.0317
  44 H11       0.1208    -1.9870     4.4760  H       1  <O>11       0.0466
  45 H12       1.3653    -1.8900     3.2075  H       1  <O>11       0.0466
  46 H13       7.7510    -0.7283     8.0394  H       1  <O>11       0.0377
  47 H14       7.1934    -0.0778     6.4782  H       1  <O>11       0.0377
  48 H15       8.8548    -4.4526     4.4585  H       1  <O>11       0.1921
  49 H16       0.9018    -0.6064     6.6338  H       1  <O>11       0.0502
  50 H17       2.5644    -0.9956     7.1365  H       1  <O>11       0.0502
  51 H18       1.5458     1.4733     6.0813  H       1  <O>11       0.0742
  52 H19       3.2014     1.0937     6.6137  H       1  <O>11       0.0742
  53 H20       5.3894    -1.1384     5.2954  H       1  <O>11       0.0629
  54 H21      12.9125    -2.3522     5.5926  H       1  <O>11       0.0625
  55 H22      13.5155    -0.3563     6.8201  H       1  <O>11       0.0618
  56 H23      11.7897     1.0132     7.8310  H       1  <O>11       0.0618
  57 H24       9.4622     0.3855     7.6103  H       1  <O>11       0.0624
  58 H25       6.6967    -2.6890     8.9861  H       1  <O>11       0.0621
  59 H26       4.6783    -4.0353     9.1254  H       1  <O>11       0.0646
@<TRIPOS>BOND
     1     1     2    1
     2     2     3    2
     3     3     4    1
     4     4     5    1
     5     3     5    1
     6     2     6    1
     7     6     7    1
     8     7     8    1
     9     8     9    1
    10     9    10    1
    11    10    11   am
    12    11    12    2
    13    11    13    1
    14    13    14   ar
    15    14    15   ar
    16    15    16    1
    17    16    17    1
    18    17    18   ar
    19    18    19   ar
    20    19    20   ar
    21    20    21    2
    22    20    22   ar
    23    22    23   ar
    24    23    24   ar
    25    24    25   ar
    26    25    26   ar
    27    26    27   ar
    28    17    27   ar
    29    22    27   ar
    30    15    28   ar
    31    28    29   ar
    32    29    30   ar
    33    13    30   ar
    34    30    31    1
    35    10    32    1
    36    32    33    1
    37     6    33    1
    38     1    34    1
    39     1    35    1
    40     4    36    1
    41     4    37    1
    42     5    38    1
    43     5    39    1
    44     7    40    1
    45     7    41    1
    46     8    42    1
    47     8    43    1
    48     9    44    1
    49     9    45    1
    50    16    46    1
    51    16    47    1
    52    19    48    1
    53    32    49    1
    54    32    50    1
    55    33    51    1
    56    33    52    1
    57    14    53    1
    58    23    54    1
    59    24    55    1
    60    25    56    1
    61    26    57    1
    62    28    58    1
    63    29    59    1
@<TRIPOS>MOLECULE
mol92_1_2
 59 63 0 0 0
SMALL
USER_CHARGES
****
VDW energy = -109.05
@<TRIPOS>ATOM
   1 N1        4.8233    -0.0872     3.3214  N.pl3   1  <O>11      -0.2515
   2 C1        4.2396     0.9903     4.0983  C.2     1  <O>11       0.2546
   3 C2        5.0243     2.1387     4.4305  C.2     1  <O>11       0.0151
   4 C3        4.9430     3.1730     5.0070  C.3     1  <O>11      -0.0202
   5 C4        6.1150     2.5820     4.2810  C.3     1  <O>11      -0.0202
   6 N2        2.8690     0.9030     4.5350  N.pl3   1  <O>11      -0.2241
   7 C5        1.7826     0.9140     3.5147  C.3     1  <O>11       0.0818
   8 C6        0.6091    -0.0000     3.8584  C.3     1  <O>11      -0.0009
   9 C7        1.0046    -1.4480     4.1360  C.3     1  <O>11       0.0185
  10 N3        2.0673    -1.5880     5.1684  N.am    1  <O>11      -0.2937
  11 C8        3.0830    -2.4895     5.1132  C.2     1  <O>11       0.2495
  12 O1        3.1676    -3.2584     4.1682  O.2     1  <O>11      -0.2699
  13 C9        4.0724    -2.5384     6.1831  C.ar    1  <O>11       0.0723
  14 C10       5.2372    -1.7566     6.1076  C.ar    1  <O>11      -0.0433
  15 C11       6.1915    -1.8129     7.1288  C.ar    1  <O>11      -0.0406
  16 C12       7.4118    -0.9887     7.0367  C.3     1  <O>11       0.0171
  17 C13       8.4749    -1.7562     6.3370  C.ar    1  <O>11       0.0736
  18 N4        8.5970    -1.6711     4.9451  N.ar    1  <O>11      -0.1750
  19 N5        9.4905    -2.4428     4.2855  N.ar    1  <O>11      -0.2425
  20 C14      10.2777    -3.2897     4.9901  C.ar    1  <O>11       0.2725
  21 O2       11.1157    -4.1329     4.2354  O.2     1  <O>11      -0.2658
  22 C15      10.2914    -3.3603     6.3903  C.ar    1  <O>11       0.0496
  23 C16      11.1520    -4.2009     7.1307  C.ar    1  <O>11      -0.0487
  24 C17      11.0908    -4.2458     8.5235  C.ar    1  <O>11      -0.0610
  25 C18      10.1669    -3.4595     9.2023  C.ar    1  <O>11      -0.0611
  26 C19       9.3042    -2.6269     8.4875  C.ar    1  <O>11      -0.0521
  27 C20       9.3565    -2.5627     7.0766  C.ar    1  <O>11       0.0106
  28 C21       5.9920    -2.6455     8.2335  C.ar    1  <O>11      -0.0555
  29 C22       4.8286    -3.4198     8.3107  C.ar    1  <O>11      -0.0254
  30 C23       3.8695    -3.3687     7.2978  C.ar    1  <O>11       0.1355
  31 F1        2.7272    -4.1219     7.3776  F       1  <O>11      -0.2047
  32 C24       1.9432    -0.6367     6.3159  C.3     1  <O>11       0.0510
  33 C25       2.3907     0.7988     5.9472  C.3     1  <O>11       0.0960
  34 H1        4.2635    -0.9063     3.0844  H       1  <O>11       0.2881
  35 H2        5.7933    -0.0256     3.0122  H       1  <O>11       0.2881
  36 H3        4.3825     4.0115     4.5936  H       1  <O>11       0.0316
  37 H4        4.9117     3.2158     6.0957  H       1  <O>11       0.0316
  38 H5        6.4425     2.9727     3.3176  H       1  <O>11       0.0316
  39 H6        6.9717     2.1770     4.8196  H       1  <O>11       0.0316
  40 H7        1.4084     1.9329     3.4225  H       1  <O>11       0.0726
  41 H8        2.2019     0.5912     2.5619  H       1  <O>11       0.0726
  42 H9        0.1162     0.3951     4.7464  H       1  <O>11       0.0317
  43 H10      -0.0882     0.0098     3.0212  H       1  <O>11       0.0317
  44 H11       0.1208    -1.9870     4.4760  H       1  <O>11       0.0466
  45 H12       1.3653    -1.8900     3.2075  H       1  <O>11       0.0466
  46 H13       7.7510    -0.7283     8.0394  H       1  <O>11       0.0377
  47 H14       7.1934    -0.0778     6.4782  H       1  <O>11       0.0377
  48 H15       9.5690    -2.3883     3.2797  H       1  <O>11       0.1921
  49 H16       0.9018    -0.6064     6.6338  H       1  <O>11       0.0502
  50 H17       2.5644    -0.9956     7.1365  H       1  <O>11       0.0502
  51 H18       1.5458     1.4733     6.0813  H       1  <O>11       0.0742
  52 H19       3.2014     1.0937     6.6137  H       1  <O>11       0.0742
  53 H20       5.3894    -1.1384     5.2954  H       1  <O>11       0.0629
  54 H21      11.8369    -4.7911     6.6333  H       1  <O>11       0.0625
  55 H22      11.7303    -4.8619     9.0493  H       1  <O>11       0.0618
  56 H23      10.1189    -3.4912    10.2327  H       1  <O>11       0.0618
  57 H24       8.6176    -2.0491     8.9972  H       1  <O>11       0.0624
  58 H25       6.6967    -2.6890     8.9861  H       1  <O>11       0.0621
  59 H26       4.6783    -4.0353     9.1254  H       1  <O>11       0.0646
@<TRIPOS>BOND
     1     1     2    1
     2     2     3    2
     3     3     4    1
     4     4     5    1
     5     3     5    1
     6     2     6    1
     7     6     7    1
     8     7     8    1
     9     8     9    1
    10     9    10    1
    11    10    11   am
    12    11    12    2
    13    11    13    1
    14    13    14   ar
    15    14    15   ar
    16    15    16    1
    17    16    17    1
    18    17    18   ar
    19    18    19   ar
    20    19    20   ar
    21    20    21    2
    22    20    22   ar
    23    22    23   ar
    24    23    24   ar
    25    24    25   ar
    26    25    26   ar
    27    26    27   ar
    28    17    27   ar
    29    22    27   ar
    30    15    28   ar
    31    28    29   ar
    32    29    30   ar
    33    13    30   ar
    34    30    31    1
    35    10    32    1
    36    32    33    1
    37     6    33    1
    38     1    34    1
    39     1    35    1
    40     4    36    1
    41     4    37    1
    42     5    38    1
    43     5    39    1
    44     7    40    1
    45     7    41    1
    46     8    42    1
    47     8    43    1
    48     9    44    1
    49     9    45    1
    50    16    46    1
    51    16    47    1
    52    19    48    1
    53    32    49    1
    54    32    50    1
    55    33    51    1
    56    33    52    1
    57    14    53    1
    58    23    54    1
    59    24    55    1
    60    25    56    1
    61    26    57    1
    62    28    58    1
    63    29    59    1
@<TRIPOS>MOLECULE
mol92_1_3
 59 63 0 0 0
SMALL
USER_CHARGES
****
VDW energy = -107.38
@<TRIPOS>ATOM
   1 N1        4.8233    -0.0872     3.3214  N.pl3   1  <O>11      -0.2515
   2 C1        4.2396     0.9903     4.0983  C.2     1  <O>11       0.2546
   3 C2        5.0243     2.1387     4.4305  C.2     1  <O>11       0.0151
   4 C3        4.9430     3.1730     5.0070  C.3     1  <O>11      -0.0202
   5 C4        6.1150     2.5820     4.2810  C.3     1  <O>11      -0.0202
   6 N2        2.8690     0.9030     4.5350  N.pl3   1  <O>11      -0.2241
   7 C5        1.7826     0.9140     3.5147  C.3     1  <O>11       0.0818
   8 C6        0.6091    -0.0000     3.8584  C.3     1  <O>11      -0.0009
   9 C7        1.0046    -1.4480     4.1360  C.3     1  <O>11       0.0185
  10 N3        2.0673    -1.5880     5.1684  N.am    1  <O>11      -0.2937
  11 C8        3.0830    -2.4895     5.1132  C.2     1  <O>11       0.2495
  12 O1        3.1676    -3.2584     4.1682  O.2     1  <O>11      -0.2699
  13 C9        4.0724    -2.5384     6.1831  C.ar    1  <O>11       0.0723
  14 C10       5.2372    -1.7566     6.1076  C.ar    1  <O>11      -0.0433
  15 C11       6.1915    -1.8129     7.1288  C.ar    1  <O>11      -0.0406
  16 C12       7.4118    -0.9887     7.0367  C.3     1  <O>11       0.0171
  17 C13       8.1679    -1.3602     5.8123  C.ar    1  <O>11       0.0736
  18 N4        7.5291    -2.0604     4.7822  N.ar    1  <O>11      -0.1750
  19 N5        8.2296    -2.4955     3.7102  N.ar    1  <O>11      -0.2425
  20 C14       9.5558    -2.2324     3.6378  C.ar    1  <O>11       0.2725
  21 O2       10.2428    -2.7966     2.5457  O.2     1  <O>11      -0.2658
  22 C15      10.2488    -1.4504     4.5726  C.ar    1  <O>11       0.0496
  23 C16      11.6197    -1.1258     4.4697  C.ar    1  <O>11      -0.0487
  24 C17      12.2558    -0.3691     5.4538  C.ar    1  <O>11      -0.0610
  25 C18      11.5390     0.0714     6.5605  C.ar    1  <O>11      -0.0611
  26 C19      10.1849    -0.2443     6.6825  C.ar    1  <O>11      -0.0521
  27 C20       9.5218    -1.0038     5.6920  C.ar    1  <O>11       0.0106
  28 C21       5.9920    -2.6455     8.2335  C.ar    1  <O>11      -0.0555
  29 C22       4.8286    -3.4198     8.3107  C.ar    1  <O>11      -0.0254
  30 C23       3.8695    -3.3687     7.2978  C.ar    1  <O>11       0.1355
  31 F1        2.7272    -4.1219     7.3776  F       1  <O>11      -0.2047
  32 C24       1.9432    -0.6367     6.3159  C.3     1  <O>11       0.0510
  33 C25       2.3907     0.7988     5.9472  C.3     1  <O>11       0.0960
  34 H1        4.2635    -0.9063     3.0844  H       1  <O>11       0.2881
  35 H2        5.7933    -0.0256     3.0122  H       1  <O>11       0.2881
  36 H3        4.3825     4.0115     4.5936  H       1  <O>11       0.0316
  37 H4        4.9117     3.2158     6.0957  H       1  <O>11       0.0316
  38 H5        6.4425     2.9727     3.3176  H       1  <O>11       0.0316
  39 H6        6.9717     2.1770     4.8196  H       1  <O>11       0.0316
  40 H7        1.4084     1.9329     3.4225  H       1  <O>11       0.0726
  41 H8        2.2019     0.5912     2.5619  H       1  <O>11       0.0726
  42 H9        0.1162     0.3951     4.7464  H       1  <O>11       0.0317
  43 H10      -0.0882     0.0098     3.0212  H       1  <O>11       0.0317
  44 H11       0.1208    -1.9870     4.4760  H       1  <O>11       0.0466
  45 H12       1.3653    -1.8900     3.2075  H       1  <O>11       0.0466
  46 H13       8.0340    -1.1613     7.9150  H       1  <O>11       0.0377
  47 H14       7.1353     0.0651     6.9877  H       1  <O>11       0.0377
  48 H15       7.7689    -3.0108     2.9733  H       1  <O>11       0.1921
  49 H16       0.9018    -0.6064     6.6338  H       1  <O>11       0.0502
  50 H17       2.5644    -0.9956     7.1365  H       1  <O>11       0.0502
  51 H18       1.5458     1.4733     6.0813  H       1  <O>11       0.0742
  52 H19       3.2014     1.0937     6.6137  H       1  <O>11       0.0742
  53 H20       5.3894    -1.1384     5.2954  H       1  <O>11       0.0629
  54 H21      12.1594    -1.4537     3.6534  H       1  <O>11       0.0625
  55 H22      13.2570    -0.1367     5.3606  H       1  <O>11       0.0618
  56 H23      12.0072     0.6309     7.2905  H       1  <O>11       0.0618
  57 H24       9.6596     0.0819     7.5087  H       1  <O>11       0.0624
  58 H25       6.6967    -2.6890     8.9861  H       1  <O>11       0.0621
  59 H26       4.6783    -4.0353     9.1254  H       1  <O>11       0.0646
@<TRIPOS>BOND
     1     1     2    1
     2     2     3    2
     3     3     4    1
     4     4     5    1
     5     3     5    1
     6     2     6    1
     7     6     7    1
     8     7     8    1
     9     8     9    1
    10     9    10    1
    11    10    11   am
    12    11    12    2
    13    11    13    1
    14    13    14   ar
    15    14    15   ar
    16    15    16    1
    17    16    17    1
    18    17    18   ar
    19    18    19   ar
    20    19    20   ar
    21    20    21    2
    22    20    22   ar
    23    22    23   ar
    24    23    24   ar
    25    24    25   ar
    26    25    26   ar
    27    26    27   ar
    28    17    27   ar
    29    22    27   ar
    30    15    28   ar
    31    28    29   ar
    32    29    30   ar
    33    13    30   ar
    34    30    31    1
    35    10    32    1
    36    32    33    1
    37     6    33    1
    38     1    34    1
    39     1    35    1
    40     4    36    1
    41     4    37    1
    42     5    38    1
    43     5    39    1
    44     7    40    1
    45     7    41    1
    46     8    42    1
    47     8    43    1
    48     9    44    1
    49     9    45    1
    50    16    46    1
    51    16    47    1
    52    19    48    1
    53    32    49    1
    54    32    50    1
    55    33    51    1
    56    33    52    1
    57    14    53    1
    58    23    54    1
    59    24    55    1
    60    25    56    1
    61    26    57    1
    62    28    58    1
    63    29    59    1
@<TRIPOS>MOLECULE
mol92_1_4
 59 63 0 0 0
SMALL
USER_CHARGES
****
VDW energy = -104.01
@<TRIPOS>ATOM
   1 N1        4.8233    -0.0872     3.3214  N.pl3   1  <O>11      -0.2515
   2 C1        4.2396     0.9903     4.0983  C.2     1  <O>11       0.2546
   3 C2        5.0243     2.1387     4.4305  C.2     1  <O>11       0.0151
   4 C3        4.9430     3.1730     5.0070  C.3     1  <O>11      -0.0202
   5 C4        6.1150     2.5820     4.2810  C.3     1  <O>11      -0.0202
   6 N2        2.8690     0.9030     4.5350  N.pl3   1  <O>11      -0.2241
   7 C5        1.7826     0.9140     3.5147  C.3     1  <O>11       0.0818
   8 C6        0.6091    -0.0000     3.8584  C.3     1  <O>11      -0.0009
   9 C7        1.0046    -1.4480     4.1360  C.3     1  <O>11       0.0185
  10 N3        2.0673    -1.5880     5.1684  N.am    1  <O>11      -0.2937
  11 C8        3.0830    -2.4895     5.1132  C.2     1  <O>11       0.2495
  12 O1        3.1676    -3.2584     4.1682  O.2     1  <O>11      -0.2699
  13 C9        4.0724    -2.5384     6.1831  C.ar    1  <O>11       0.0723
  14 C10       5.2372    -1.7566     6.1076  C.ar    1  <O>11      -0.0433
  15 C11       6.1915    -1.8129     7.1288  C.ar    1  <O>11      -0.0406
  16 C12       7.4118    -0.9887     7.0367  C.3     1  <O>11       0.0171
  17 C13       8.4949    -1.6182     7.8365  C.ar    1  <O>11       0.0736
  18 N4        9.3586    -2.5427     7.2376  N.ar    1  <O>11      -0.1750
  19 N5       10.2806    -3.2002     7.9768  N.ar    1  <O>11      -0.2425
  20 C14      10.3686    -2.9424     9.3031  C.ar    1  <O>11       0.2725
  21 O2       11.2812    -3.7304    10.0305  O.2     1  <O>11      -0.2658
  22 C15       9.6145    -1.9593     9.9591  C.ar    1  <O>11       0.0496
  23 C16       9.7447    -1.6479    11.3308  C.ar    1  <O>11      -0.0487
  24 C17       8.9386    -0.6788    11.9283  C.ar    1  <O>11      -0.0610
  25 C18       7.9846    -0.0083    11.1714  C.ar    1  <O>11      -0.0611
  26 C19       7.8373    -0.3065     9.8158  C.ar    1  <O>11      -0.0521
  27 C20       8.6498    -1.2800     9.1916  C.ar    1  <O>11       0.0106
  28 C21       5.9920    -2.6455     8.2335  C.ar    1  <O>11      -0.0555
  29 C22       4.8286    -3.4198     8.3107  C.ar    1  <O>11      -0.0254
  30 C23       3.8695    -3.3687     7.2978  C.ar    1  <O>11       0.1355
  31 F1        2.7272    -4.1219     7.3776  F       1  <O>11      -0.2047
  32 C24       1.9432    -0.6367     6.3159  C.3     1  <O>11       0.0510
  33 C25       2.3907     0.7988     5.9472  C.3     1  <O>11       0.0960
  34 H1        4.2635    -0.9063     3.0844  H       1  <O>11       0.2881
  35 H2        5.7933    -0.0256     3.0122  H       1  <O>11       0.2881
  36 H3        4.3825     4.0115     4.5936  H       1  <O>11       0.0316
  37 H4        4.9117     3.2158     6.0957  H       1  <O>11       0.0316
  38 H5        6.4425     2.9727     3.3176  H       1  <O>11       0.0316
  39 H6        6.9717     2.1770     4.8196  H       1  <O>11       0.0316
  40 H7        1.4084     1.9329     3.4225  H       1  <O>11       0.0726
  41 H8        2.2019     0.5912     2.5619  H       1  <O>11       0.0726
  42 H9        0.1162     0.3951     4.7464  H       1  <O>11       0.0317
  43 H10      -0.0882     0.0098     3.0212  H       1  <O>11       0.0317
  44 H11       0.1208    -1.9870     4.4760  H       1  <O>11       0.0466
  45 H12       1.3653    -1.8900     3.2075  H       1  <O>11       0.0466
  46 H13       7.2064     0.0092     7.4241  H       1  <O>11       0.0377
  47 H14       7.7240    -0.9175     5.9942  H       1  <O>11       0.0377
  48 H15      10.8954    -3.8756     7.5448  H       1  <O>11       0.1921
  49 H16       0.9018    -0.6064     6.6338  H       1  <O>11       0.0502
  50 H17       2.5644    -0.9956     7.1365  H       1  <O>11       0.0502
  51 H18       1.5458     1.4733     6.0813  H       1  <O>11       0.0742
  52 H19       3.2014     1.0937     6.6137  H       1  <O>11       0.0742
  53 H20       5.3894    -1.1384     5.2954  H       1  <O>11       0.0629
  54 H21      10.4473    -2.1452    11.9000  H       1  <O>11       0.0625
  55 H22       9.0503    -0.4600    12.9306  H       1  <O>11       0.0618
  56 H23       7.3864     0.7086    11.6110  H       1  <O>11       0.0618
  57 H24       7.1241     0.1916     9.2606  H       1  <O>11       0.0624
  58 H25       6.6967    -2.6890     8.9861  H       1  <O>11       0.0621
  59 H26       4.6783    -4.0353     9.1254  H       1  <O>11       0.0646
@<TRIPOS>BOND
     1     1     2    1
     2     2     3    2
     3     3     4    1
     4     4     5    1
     5     3     5    1
     6     2     6    1
     7     6     7    1
     8     7     8    1
     9     8     9    1
    10     9    10    1
    11    10    11   am
    12    11    12    2
    13    11    13    1
    14    13    14   ar
    15    14    15   ar
    16    15    16    1
    17    16    17    1
    18    17    18   ar
    19    18    19   ar
    20    19    20   ar
    21    20    21    2
    22    20    22   ar
    23    22    23   ar
    24    23    24   ar
    25    24    25   ar
    26    25    26   ar
    27    26    27   ar
    28    17    27   ar
    29    22    27   ar
    30    15    28   ar
    31    28    29   ar
    32    29    30   ar
    33    13    30   ar
    34    30    31    1
    35    10    32    1
    36    32    33    1
    37     6    33    1
    38     1    34    1
    39     1    35    1
    40     4    36    1
    41     4    37    1
    42     5    38    1
    43     5    39    1
    44     7    40    1
    45     7    41    1
    46     8    42    1
    47     8    43    1
    48     9    44    1
    49     9    45    1
    50    16    46    1
    51    16    47    1
    52    19    48    1
    53    32    49    1
    54    32    50    1
    55    33    51    1
    56    33    52    1
    57    14    53    1
    58    23    54    1
    59    24    55    1
    60    25    56    1
    61    26    57    1
    62    28    58    1
    63    29    59    1
@<TRIPOS>MOLECULE
mol92_1_5
 59 63 0 0 0
SMALL
USER_CHARGES
****
VDW energy = -102.62
@<TRIPOS>ATOM
   1 N1        4.8233    -0.0872     3.3214  N.pl3   1  <O>11      -0.2515
   2 C1        4.2396     0.9903     4.0983  C.2     1  <O>11       0.2546
   3 C2        5.0243     2.1387     4.4305  C.2     1  <O>11       0.0151
   4 C3        4.9430     3.1730     5.0070  C.3     1  <O>11      -0.0202
   5 C4        6.1150     2.5820     4.2810  C.3     1  <O>11      -0.0202
   6 N2        2.8690     0.9030     4.5350  N.pl3   1  <O>11      -0.2241
   7 C5        1.7826     0.9140     3.5147  C.3     1  <O>11       0.0818
   8 C6        0.6091    -0.0000     3.8584  C.3     1  <O>11      -0.0009
   9 C7        1.0046    -1.4480     4.1360  C.3     1  <O>11       0.0185
  10 N3        2.0673    -1.5880     5.1684  N.am    1  <O>11      -0.2937
  11 C8        3.0830    -2.4895     5.1132  C.2     1  <O>11       0.2495
  12 O1        3.1676    -3.2584     4.1682  O.2     1  <O>11      -0.2699
  13 C9        4.0724    -2.5384     6.1831  C.ar    1  <O>11       0.0723
  14 C10       5.2372    -1.7566     6.1076  C.ar    1  <O>11      -0.0433
  15 C11       6.1915    -1.8129     7.1288  C.ar    1  <O>11      -0.0406
  16 C12       7.4118    -0.9887     7.0367  C.3     1  <O>11       0.0171
  17 C13       8.4949    -1.6182     7.8365  C.ar    1  <O>11       0.0736
  18 N4        9.0726    -0.9192     8.9028  N.ar    1  <O>11      -0.1750
  19 N5       10.1279    -1.4365     9.5719  N.ar    1  <O>11      -0.2425
  20 C14      10.6107    -2.6478     9.2072  C.ar    1  <O>11       0.2725
  21 O2       11.7688    -3.0835     9.8793  O.2     1  <O>11      -0.2658
  22 C15      10.0268    -3.4567     8.2222  C.ar    1  <O>11       0.0496
  23 C16      10.4931    -4.7452     7.8792  C.ar    1  <O>11      -0.0487
  24 C17       9.8843    -5.4845     6.8651  C.ar    1  <O>11      -0.0610
  25 C18       8.8048    -4.9503     6.1707  C.ar    1  <O>11      -0.0611
  26 C19       8.3335    -3.6762     6.4915  C.ar    1  <O>11      -0.0521
  27 C20       8.9331    -2.9154     7.5206  C.ar    1  <O>11       0.0106
  28 C21       5.9920    -2.6455     8.2335  C.ar    1  <O>11      -0.0555
  29 C22       4.8286    -3.4198     8.3107  C.ar    1  <O>11      -0.0254
  30 C23       3.8695    -3.3687     7.2978  C.ar    1  <O>11       0.1355
  31 F1        2.7272    -4.1219     7.3776  F       1  <O>11      -0.2047
  32 C24       1.9432    -0.6367     6.3159  C.3     1  <O>11       0.0510
  33 C25       2.3907     0.7988     5.9472  C.3     1  <O>11       0.0960
  34 H1        4.2635    -0.9063     3.0844  H       1  <O>11       0.2881
  35 H2        5.7933    -0.0256     3.0122  H       1  <O>11       0.2881
  36 H3        4.3825     4.0115     4.5936  H       1  <O>11       0.0316
  37 H4        4.9117     3.2158     6.0957  H       1  <O>11       0.0316
  38 H5        6.4425     2.9727     3.3176  H       1  <O>11       0.0316
  39 H6        6.9717     2.1770     4.8196  H       1  <O>11       0.0316
  40 H7        1.4084     1.9329     3.4225  H       1  <O>11       0.0726
  41 H8        2.2019     0.5912     2.5619  H       1  <O>11       0.0726
  42 H9        0.1162     0.3951     4.7464  H       1  <O>11       0.0317
  43 H10      -0.0882     0.0098     3.0212  H       1  <O>11       0.0317
  44 H11       0.1208    -1.9870     4.4760  H       1  <O>11       0.0466
  45 H12       1.3653    -1.8900     3.2075  H       1  <O>11       0.0466
  46 H13       7.2064     0.0092     7.4241  H       1  <O>11       0.0377
  47 H14       7.7240    -0.9175     5.9942  H       1  <O>11       0.0377
  48 H15      10.5507    -0.9251    10.3338  H       1  <O>11       0.1921
  49 H16       0.9018    -0.6064     6.6338  H       1  <O>11       0.0502
  50 H17       2.5644    -0.9956     7.1365  H       1  <O>11       0.0502
  51 H18       1.5458     1.4733     6.0813  H       1  <O>11       0.0742
  52 H19       3.2014     1.0937     6.6137  H       1  <O>11       0.0742
  53 H20       5.3894    -1.1384     5.2954  H       1  <O>11       0.0629
  54 H21      11.2972    -5.1460     8.3871  H       1  <O>11       0.0625
  55 H22      10.2345    -6.4265     6.6307  H       1  <O>11       0.0618
  56 H23       8.3529    -5.4948     5.4195  H       1  <O>11       0.0618
  57 H24       7.5348    -3.2837     5.9691  H       1  <O>11       0.0624
  58 H25       6.6967    -2.6890     8.9861  H       1  <O>11       0.0621
  59 H26       4.6783    -4.0353     9.1254  H       1  <O>11       0.0646
@<TRIPOS>BOND
     1     1     2    1
     2     2     3    2
     3     3     4    1
     4     4     5    1
     5     3     5    1
     6     2     6    1
     7     6     7    1
     8     7     8    1
     9     8     9    1
    10     9    10    1
    11    10    11   am
    12    11    12    2
    13    11    13    1
    14    13    14   ar
    15    14    15   ar
    16    15    16    1
    17    16    17    1
    18    17    18   ar
    19    18    19   ar
    20    19    20   ar
    21    20    21    2
    22    20    22   ar
    23    22    23   ar
    24    23    24   ar
    25    24    25   ar
    26    25    26   ar
    27    26    27   ar
    28    17    27   ar
    29    22    27   ar
    30    15    28   ar
    31    28    29   ar
    32    29    30   ar
    33    13    30   ar
    34    30    31    1
    35    10    32    1
    36    32    33    1
    37     6    33    1
    38     1    34    1
    39     1    35    1
    40     4    36    1
    41     4    37    1
    42     5    38    1
    43     5    39    1
    44     7    40    1
    45     7    41    1
    46     8    42    1
    47     8    43    1
    48     9    44    1
    49     9    45    1
    50    16    46    1
    51    16    47    1
    52    19    48    1
    53    32    49    1
    54    32    50    1
    55    33    51    1
    56    33    52    1
    57    14    53    1
    58    23    54    1
    59    24    55    1
    60    25    56    1
    61    26    57    1
    62    28    58    1
    63    29    59    1
@<TRIPOS>MOLECULE
mol92_1_6
 59 63 0 0 0
SMALL
USER_CHARGES
****
VDW energy = -98.59
@<TRIPOS>ATOM
   1 N1        4.8233    -0.0872     3.3214  N.pl3   1  <O>11      -0.2515
   2 C1        4.2396     0.9903     4.0983  C.2     1  <O>11       0.2546
   3 C2        5.0243     2.1387     4.4305  C.2     1  <O>11       0.0151
   4 C3        4.9430     3.1730     5.0070  C.3     1  <O>11      -0.0202
   5 C4        6.1150     2.5820     4.2810  C.3     1  <O>11      -0.0202
   6 N2        2.8690     0.9030     4.5350  N.pl3   1  <O>11      -0.2241
   7 C5        2.2910     2.0220     5.3319  C.3     1  <O>11       0.0818
   8 C6        0.8280     2.3140     5.0079  C.3     1  <O>11      -0.0009
   9 C7        0.5550     2.5749     3.5289  C.3     1  <O>11       0.0185
  10 N3        1.0620     1.5018     2.6310  N.am    1  <O>11      -0.2937
  11 C8        1.6380     1.7178     1.4189  C.2     1  <O>11       0.2495
  12 O1        2.0256     0.7730     0.7491  O.2     1  <O>11      -0.2699
  13 C9        1.7932     3.0783     0.9182  C.ar    1  <O>11       0.0723
  14 C10       0.7803     3.6683     0.1438  C.ar    1  <O>11      -0.0433
  15 C11       0.9349     4.9695    -0.3460  C.ar    1  <O>11      -0.0406
  16 C12      -0.1350     5.5772    -1.1601  C.3     1  <O>11       0.0171
  17 C13       0.1023     5.2724    -2.5953  C.ar    1  <O>11       0.0736
  18 N4        0.9617     4.2277    -2.9549  N.ar    1  <O>11      -0.1750
  19 N5        1.2681     4.0064    -4.2534  N.ar    1  <O>11      -0.2425
  20 C14       0.7209     4.7994    -5.2047  C.ar    1  <O>11       0.2725
  21 O2        1.1567     4.5776    -6.5252  O.2     1  <O>11      -0.2658
  22 C15      -0.2269     5.7976    -4.9386  C.ar    1  <O>11       0.0496
  23 C16      -0.8429     6.5879    -5.9343  C.ar    1  <O>11      -0.0487
  24 C17      -1.7553     7.5877    -5.5971  C.ar    1  <O>11      -0.0610
  25 C18      -2.0645     7.8220    -4.2621  C.ar    1  <O>11      -0.0611
  26 C19      -1.4615     7.0551    -3.2638  C.ar    1  <O>11      -0.0521
  27 C20      -0.5403     6.0331    -3.5867  C.ar    1  <O>11       0.0106
  28 C21       2.0973     5.6934    -0.0663  C.ar    1  <O>11      -0.0555
  29 C22       3.1034     5.1069     0.7100  C.ar    1  <O>11      -0.0254
  30 C23       2.9574     3.8100     1.2052  C.ar    1  <O>11       0.1355
  31 F1        3.9400     3.2391     1.9713  F       1  <O>11      -0.2047
  32 C24       0.8920     0.1159     3.1670  C.3     1  <O>11       0.0510
  33 C25       1.9220    -0.2230     4.2721  C.3     1  <O>11       0.0960
  34 H1        4.2635    -0.9063     3.0844  H       1  <O>11       0.2881
  35 H2        5.7933    -0.0256     3.0122  H       1  <O>11       0.2881
  36 H3        4.3825     4.0115     4.5936  H       1  <O>11       0.0316
  37 H4        4.9117     3.2158     6.0957  H       1  <O>11       0.0316
  38 H5        6.4425     2.9727     3.3176  H       1  <O>11       0.0316
  39 H6        6.9717     2.1770     4.8196  H       1  <O>11       0.0316
  40 H7        2.3640     1.7651     6.3879  H       1  <O>11       0.0726
  41 H8        2.8730     2.9220     5.1339  H       1  <O>11       0.0726
  42 H9        0.2310     1.4570     5.3190  H       1  <O>11       0.0317
  43 H10       0.5219     3.1940     5.5728  H       1  <O>11       0.0317
  44 H11      -0.5220     2.6619     3.3879  H       1  <O>11       0.0466
  45 H12       1.0350     3.5129     3.2508  H       1  <O>11       0.0466
  46 H13      -0.1350     6.6572    -1.0126  H       1  <O>11       0.0377
  47 H14      -1.0993     5.1682    -0.8561  H       1  <O>11       0.0377
  48 H15       1.8978     3.2591    -4.5100  H       1  <O>11       0.1921
  49 H16      -0.1100     0.0229     3.5840  H       1  <O>11       0.0502
  50 H17       1.0130    -0.5932     2.3481  H       1  <O>11       0.0502
  51 H18       1.3850    -0.4510     5.1921  H       1  <O>11       0.0742
  52 H19       2.4950    -1.0960     3.9591  H       1  <O>11       0.0742
  53 H20      -0.0812     3.1397    -0.0645  H       1  <O>11       0.0629
  54 H21      -0.6143     6.4230    -6.9270  H       1  <O>11       0.0625
  55 H22      -2.2000     8.1527    -6.3374  H       1  <O>11       0.0618
  56 H23      -2.7386     8.5615    -4.0097  H       1  <O>11       0.0618
  57 H24      -1.6920     7.2372    -2.2745  H       1  <O>11       0.0624
  58 H25       2.2127     6.6525    -0.4293  H       1  <O>11       0.0621
  59 H26       3.9627     5.6391     0.9185  H       1  <O>11       0.0646
@<TRIPOS>BOND
     1     1     2    1
     2     2     3    2
     3     3     4    1
     4     4     5    1
     5     3     5    1
     6     2     6    1
     7     6     7    1
     8     7     8    1
     9     8     9    1
    10     9    10    1
    11    10    11   am
    12    11    12    2
    13    11    13    1
    14    13    14   ar
    15    14    15   ar
    16    15    16    1
    17    16    17    1
    18    17    18   ar
    19    18    19   ar
    20    19    20   ar
    21    20    21    2
    22    20    22   ar
    23    22    23   ar
    24    23    24   ar
    25    24    25   ar
    26    25    26   ar
    27    26    27   ar
    28    17    27   ar
    29    22    27   ar
    30    15    28   ar
    31    28    29   ar
    32    29    30   ar
    33    13    30   ar
    34    30    31    1
    35    10    32    1
    36    32    33    1
    37     6    33    1
    38     1    34    1
    39     1    35    1
    40     4    36    1
    41     4    37    1
    42     5    38    1
    43     5    39    1
    44     7    40    1
    45     7    41    1
    46     8    42    1
    47     8    43    1
    48     9    44    1
    49     9    45    1
    50    16    46    1
    51    16    47    1
    52    19    48    1
    53    32    49    1
    54    32    50    1
    55    33    51    1
    56    33    52    1
    57    14    53    1
    58    23    54    1
    59    24    55    1
    60    25    56    1
    61    26    57    1
    62    28    58    1
    63    29    59    1
@<TRIPOS>MOLECULE
mol92_1_7
 59 63 0 0 0
SMALL
USER_CHARGES
****
VDW energy = -98.57
@<TRIPOS>ATOM
   1 N1        4.8233    -0.0872     3.3214  N.pl3   1  <O>11      -0.2515
   2 C1        4.2396     0.9903     4.0983  C.2     1  <O>11       0.2546
   3 C2        5.0243     2.1387     4.4305  C.2     1  <O>11       0.0151
   4 C3        4.9430     3.1730     5.0070  C.3     1  <O>11      -0.0202
   5 C4        6.1150     2.5820     4.2810  C.3     1  <O>11      -0.0202
   6 N2        2.8690     0.9030     4.5350  N.pl3   1  <O>11      -0.2241
   7 C5        2.2910     2.0220     5.3319  C.3     1  <O>11       0.0818
   8 C6        0.8280     2.3140     5.0079  C.3     1  <O>11      -0.0009
   9 C7        0.5550     2.5749     3.5289  C.3     1  <O>11       0.0185
  10 N3        1.0620     1.5018     2.6310  N.am    1  <O>11      -0.2937
  11 C8        1.6380     1.7178     1.4189  C.2     1  <O>11       0.2495
  12 O1        2.0256     0.7730     0.7491  O.2     1  <O>11      -0.2699
  13 C9        1.7932     3.0783     0.9182  C.ar    1  <O>11       0.0723
  14 C10       0.7803     3.6683     0.1438  C.ar    1  <O>11      -0.0433
  15 C11       0.9349     4.9695    -0.3460  C.ar    1  <O>11      -0.0406
  16 C12      -0.1350     5.5772    -1.1601  C.3     1  <O>11       0.0171
  17 C13      -1.0892     6.2891    -0.2704  C.ar    1  <O>11       0.0736
  18 N4       -0.7084     6.6294     1.0329  N.ar    1  <O>11      -0.1750
  19 N5       -1.5996     7.1829     1.8865  N.ar    1  <O>11      -0.2425
  20 C14      -2.8629     7.4182     1.4601  C.ar    1  <O>11       0.2725
  21 O2       -3.7647     7.9046     2.4261  O.2     1  <O>11      -0.2658
  22 C15      -3.2953     7.2040     0.1438  C.ar    1  <O>11       0.0496
  23 C16      -4.5962     7.5024    -0.3191  C.ar    1  <O>11      -0.0487
  24 C17      -4.9708     7.2336    -1.6355  C.ar    1  <O>11      -0.0610
  25 C18      -4.0584     6.6567    -2.5116  C.ar    1  <O>11      -0.0611
  26 C19      -2.7701     6.3494    -2.0708  C.ar    1  <O>11      -0.0521
  27 C20      -2.3704     6.6211    -0.7427  C.ar    1  <O>11       0.0106
  28 C21       2.0973     5.6934    -0.0663  C.ar    1  <O>11      -0.0555
  29 C22       3.1034     5.1069     0.7100  C.ar    1  <O>11      -0.0254
  30 C23       2.9574     3.8100     1.2052  C.ar    1  <O>11       0.1355
  31 F1        3.9400     3.2391     1.9713  F       1  <O>11      -0.2047
  32 C24       0.8920     0.1159     3.1670  C.3     1  <O>11       0.0510
  33 C25       1.9220    -0.2230     4.2721  C.3     1  <O>11       0.0960
  34 H1        4.2635    -0.9063     3.0844  H       1  <O>11       0.2881
  35 H2        5.7933    -0.0256     3.0122  H       1  <O>11       0.2881
  36 H3        4.3825     4.0115     4.5936  H       1  <O>11       0.0316
  37 H4        4.9117     3.2158     6.0957  H       1  <O>11       0.0316
  38 H5        6.4425     2.9727     3.3176  H       1  <O>11       0.0316
  39 H6        6.9717     2.1770     4.8196  H       1  <O>11       0.0316
  40 H7        2.3640     1.7651     6.3879  H       1  <O>11       0.0726
  41 H8        2.8730     2.9220     5.1339  H       1  <O>11       0.0726
  42 H9        0.2310     1.4570     5.3190  H       1  <O>11       0.0317
  43 H10       0.5219     3.1940     5.5728  H       1  <O>11       0.0317
  44 H11      -0.5220     2.6619     3.3879  H       1  <O>11       0.0466
  45 H12       1.0350     3.5129     3.2508  H       1  <O>11       0.0466
  46 H13      -0.6622     4.7965    -1.7087  H       1  <O>11       0.0377
  47 H14       0.3027     6.2853    -1.8648  H       1  <O>11       0.0377
  48 H15      -1.3259     7.4171     2.8304  H       1  <O>11       0.1921
  49 H16      -0.1100     0.0229     3.5840  H       1  <O>11       0.0502
  50 H17       1.0130    -0.5932     2.3481  H       1  <O>11       0.0502
  51 H18       1.3850    -0.4510     5.1921  H       1  <O>11       0.0742
  52 H19       2.4950    -1.0960     3.9591  H       1  <O>11       0.0742
  53 H20      -0.0812     3.1397    -0.0645  H       1  <O>11       0.0629
  54 H21      -5.2803     7.9261     0.3271  H       1  <O>11       0.0625
  55 H22      -5.9238     7.4625    -1.9587  H       1  <O>11       0.0618
  56 H23      -4.3330     6.4561    -3.4859  H       1  <O>11       0.0618
  57 H24      -2.0991     5.9171    -2.7249  H       1  <O>11       0.0624
  58 H25       2.2127     6.6525    -0.4293  H       1  <O>11       0.0621
  59 H26       3.9627     5.6391     0.9185  H       1  <O>11       0.0646
@<TRIPOS>BOND
     1     1     2    1
     2     2     3    2
     3     3     4    1
     4     4     5    1
     5     3     5    1
     6     2     6    1
     7     6     7    1
     8     7     8    1
     9     8     9    1
    10     9    10    1
    11    10    11   am
    12    11    12    2
    13    11    13    1
    14    13    14   ar
    15    14    15   ar
    16    15    16    1
    17    16    17    1
    18    17    18   ar
    19    18    19   ar
    20    19    20   ar
    21    20    21    2
    22    20    22   ar
    23    22    23   ar
    24    23    24   ar
    25    24    25   ar
    26    25    26   ar
    27    26    27   ar
    28    17    27   ar
    29    22    27   ar
    30    15    28   ar
    31    28    29   ar
    32    29    30   ar
    33    13    30   ar
    34    30    31    1
    35    10    32    1
    36    32    33    1
    37     6    33    1
    38     1    34    1
    39     1    35    1
    40     4    36    1
    41     4    37    1
    42     5    38    1
    43     5    39    1
    44     7    40    1
    45     7    41    1
    46     8    42    1
    47     8    43    1
    48     9    44    1
    49     9    45    1
    50    16    46    1
    51    16    47    1
    52    19    48    1
    53    32    49    1
    54    32    50    1
    55    33    51    1
    56    33    52    1
    57    14    53    1
    58    23    54    1
    59    24    55    1
    60    25    56    1
    61    26    57    1
    62    28    58    1
    63    29    59    1
@<TRIPOS>MOLECULE
mol92_1_8
 59 63 0 0 0
SMALL
USER_CHARGES
****
VDW energy = -94.27
@<TRIPOS>ATOM
   1 N1        4.8233    -0.0872     3.3214  N.pl3   1  <O>11      -0.2515
   2 C1        4.2396     0.9903     4.0983  C.2     1  <O>11       0.2546
   3 C2        5.0243     2.1387     4.4305  C.2     1  <O>11       0.0151
   4 C3        4.9430     3.1730     5.0070  C.3     1  <O>11      -0.0202
   5 C4        6.1150     2.5820     4.2810  C.3     1  <O>11      -0.0202
   6 N2        2.8690     0.9030     4.5350  N.pl3   1  <O>11      -0.2241
   7 C5        2.2910     2.0220     5.3319  C.3     1  <O>11       0.0818
   8 C6        0.8280     2.3140     5.0079  C.3     1  <O>11      -0.0009
   9 C7        0.5550     2.5749     3.5289  C.3     1  <O>11       0.0185
  10 N3        1.0620     1.5018     2.6310  N.am    1  <O>11      -0.2937
  11 C8        1.6380     1.7178     1.4189  C.2     1  <O>11       0.2495
  12 O1        2.0256     0.7730     0.7491  O.2     1  <O>11      -0.2699
  13 C9        1.7932     3.0783     0.9182  C.ar    1  <O>11       0.0723
  14 C10       0.7803     3.6683     0.1438  C.ar    1  <O>11      -0.0433
  15 C11       0.9349     4.9695    -0.3460  C.ar    1  <O>11      -0.0406
  16 C12      -0.1350     5.5772    -1.1601  C.3     1  <O>11       0.0171
  17 C13      -1.0892     6.2891    -0.2704  C.ar    1  <O>11       0.0736
  18 N4       -2.1932     5.6091     0.2571  N.ar    1  <O>11      -0.1750
  19 N5       -3.1247     6.2694     0.9817  N.ar    1  <O>11      -0.2425
  20 C14      -2.9690     7.5959     1.2041  C.ar    1  <O>11       0.2725
  21 O2       -4.0220     8.2406     1.8813  O.2     1  <O>11      -0.2658
  22 C15      -1.8434     8.3283     0.8012  C.ar    1  <O>11       0.0496
  23 C16      -1.6509     9.6993     1.0817  C.ar    1  <O>11      -0.0487
  24 C17      -0.5210    10.3760     0.6223  C.ar    1  <O>11      -0.0610
  25 C18       0.4331     9.7004    -0.1300  C.ar    1  <O>11      -0.0611
  26 C19       0.2574     8.3469    -0.4223  C.ar    1  <O>11      -0.0521
  27 C20      -0.8774     7.6430     0.0407  C.ar    1  <O>11       0.0106
  28 C21       2.0973     5.6934    -0.0663  C.ar    1  <O>11      -0.0555
  29 C22       3.1034     5.1069     0.7100  C.ar    1  <O>11      -0.0254
  30 C23       2.9574     3.8100     1.2052  C.ar    1  <O>11       0.1355
  31 F1        3.9400     3.2391     1.9713  F       1  <O>11      -0.2047
  32 C24       0.8920     0.1159     3.1670  C.3     1  <O>11       0.0510
  33 C25       1.9220    -0.2230     4.2721  C.3     1  <O>11       0.0960
  34 H1        4.2635    -0.9063     3.0844  H       1  <O>11       0.2881
  35 H2        5.7933    -0.0256     3.0122  H       1  <O>11       0.2881
  36 H3        4.3825     4.0115     4.5936  H       1  <O>11       0.0316
  37 H4        4.9117     3.2158     6.0957  H       1  <O>11       0.0316
  38 H5        6.4425     2.9727     3.3176  H       1  <O>11       0.0316
  39 H6        6.9717     2.1770     4.8196  H       1  <O>11       0.0316
  40 H7        2.3640     1.7651     6.3879  H       1  <O>11       0.0726
  41 H8        2.8730     2.9220     5.1339  H       1  <O>11       0.0726
  42 H9        0.2310     1.4570     5.3190  H       1  <O>11       0.0317
  43 H10       0.5219     3.1940     5.5728  H       1  <O>11       0.0317
  44 H11      -0.5220     2.6619     3.3879  H       1  <O>11       0.0466
  45 H12       1.0350     3.5129     3.2508  H       1  <O>11       0.0466
  46 H13      -0.6622     4.7965    -1.7087  H       1  <O>11       0.0377
  47 H14       0.3027     6.2853    -1.8648  H       1  <O>11       0.0377
  48 H15      -3.9268     5.7790     1.3518  H       1  <O>11       0.1921
  49 H16      -0.1100     0.0229     3.5840  H       1  <O>11       0.0502
  50 H17       1.0130    -0.5932     2.3481  H       1  <O>11       0.0502
  51 H18       1.3850    -0.4510     5.1921  H       1  <O>11       0.0742
  52 H19       2.4950    -1.0960     3.9591  H       1  <O>11       0.0742
  53 H20      -0.0812     3.1397    -0.0645  H       1  <O>11       0.0629
  54 H21      -2.3575    10.2084     1.6354  H       1  <O>11       0.0625
  55 H22      -0.3934    11.3765     0.8405  H       1  <O>11       0.0618
  56 H23       1.2697    10.1987    -0.4718  H       1  <O>11       0.0618
  57 H24       0.9671     7.8524    -0.9851  H       1  <O>11       0.0624
  58 H25       2.2127     6.6525    -0.4293  H       1  <O>11       0.0621
  59 H26       3.9627     5.6391     0.9185  H       1  <O>11       0.0646
@<TRIPOS>BOND
     1     1     2    1
     2     2     3    2
     3     3     4    1
     4     4     5    1
     5     3     5    1
     6     2     6    1
     7     6     7    1
     8     7     8    1
     9     8     9    1
    10     9    10    1
    11    10    11   am
    12    11    12    2
    13    11    13    1
    14    13    14   ar
    15    14    15   ar
    16    15    16    1
    17    16    17    1
    18    17    18   ar
    19    18    19   ar
    20    19    20   ar
    21    20    21    2
    22    20    22   ar
    23    22    23   ar
    24    23    24   ar
    25    24    25   ar
    26    25    26   ar
    27    26    27   ar
    28    17    27   ar
    29    22    27   ar
    30    15    28   ar
    31    28    29   ar
    32    29    30   ar
    33    13    30   ar
    34    30    31    1
    35    10    32    1
    36    32    33    1
    37     6    33    1
    38     1    34    1
    39     1    35    1
    40     4    36    1
    41     4    37    1
    42     5    38    1
    43     5    39    1
    44     7    40    1
    45     7    41    1
    46     8    42    1
    47     8    43    1
    48     9    44    1
    49     9    45    1
    50    16    46    1
    51    16    47    1
    52    19    48    1
    53    32    49    1
    54    32    50    1
    55    33    51    1
    56    33    52    1
    57    14    53    1
    58    23    54    1
    59    24    55    1
    60    25    56    1
    61    26    57    1
    62    28    58    1
    63    29    59    1
@<TRIPOS>MOLECULE
mol92_1_9
 59 63 0 0 0
SMALL
USER_CHARGES
****
VDW energy = -93.15
@<TRIPOS>ATOM
   1 N1        4.8233    -0.0872     3.3214  N.pl3   1  <O>11      -0.2515
   2 C1        4.2396     0.9903     4.0983  C.2     1  <O>11       0.2546
   3 C2        5.0243     2.1387     4.4305  C.2     1  <O>11       0.0151
   4 C3        4.9430     3.1730     5.0070  C.3     1  <O>11      -0.0202
   5 C4        6.1150     2.5820     4.2810  C.3     1  <O>11      -0.0202
   6 N2        2.8690     0.9030     4.5350  N.pl3   1  <O>11      -0.2241
   7 C5        2.2910     2.0220     5.3319  C.3     1  <O>11       0.0818
   8 C6        0.8280     2.3140     5.0079  C.3     1  <O>11      -0.0009
   9 C7        0.5550     2.5749     3.5289  C.3     1  <O>11       0.0185
  10 N3        1.0620     1.5018     2.6310  N.am    1  <O>11      -0.2937
  11 C8        1.6380     1.7178     1.4189  C.2     1  <O>11       0.2495
  12 O1        2.0256     0.7730     0.7491  O.2     1  <O>11      -0.2699
  13 C9        1.7932     3.0783     0.9182  C.ar    1  <O>11       0.0723
  14 C10       0.7803     3.6683     0.1438  C.ar    1  <O>11      -0.0433
  15 C11       0.9349     4.9695    -0.3460  C.ar    1  <O>11      -0.0406
  16 C12      -0.1350     5.5772    -1.1601  C.3     1  <O>11       0.0171
  17 C13      -0.3572     4.7547    -2.3779  C.ar    1  <O>11       0.0736
  18 N4        0.1079     3.4352    -2.4243  N.ar    1  <O>11      -0.1750
  19 N5        0.0056     2.7105    -3.5615  N.ar    1  <O>11      -0.2425
  20 C14      -0.5667     3.2721    -4.6525  C.ar    1  <O>11       0.2725
  21 O2       -0.5536     2.4988    -5.8292  O.2     1  <O>11      -0.2658
  22 C15      -1.1498     4.5471    -4.6591  C.ar    1  <O>11       0.0496
  23 C16      -1.7987     5.1134    -5.7788  C.ar    1  <O>11      -0.0487
  24 C17      -2.3297     6.4022    -5.7270  C.ar    1  <O>11      -0.0610
  25 C18      -2.2176     7.1515    -4.5614  C.ar    1  <O>11      -0.0611
  26 C19      -1.5747     6.6111    -3.4466  C.ar    1  <O>11      -0.0521
  27 C20      -1.0369     5.3045    -3.4781  C.ar    1  <O>11       0.0106
  28 C21       2.0973     5.6934    -0.0663  C.ar    1  <O>11      -0.0555
  29 C22       3.1034     5.1069     0.7100  C.ar    1  <O>11      -0.0254
  30 C23       2.9574     3.8100     1.2052  C.ar    1  <O>11       0.1355
  31 F1        3.9400     3.2391     1.9713  F       1  <O>11      -0.2047
  32 C24       0.8920     0.1159     3.1670  C.3     1  <O>11       0.0510
  33 C25       1.9220    -0.2230     4.2721  C.3     1  <O>11       0.0960
  34 H1        4.2635    -0.9063     3.0844  H       1  <O>11       0.2881
  35 H2        5.7933    -0.0256     3.0122  H       1  <O>11       0.2881
  36 H3        4.3825     4.0115     4.5936  H       1  <O>11       0.0316
  37 H4        4.9117     3.2158     6.0957  H       1  <O>11       0.0316
  38 H5        6.4425     2.9727     3.3176  H       1  <O>11       0.0316
  39 H6        6.9717     2.1770     4.8196  H       1  <O>11       0.0316
  40 H7        2.3640     1.7651     6.3879  H       1  <O>11       0.0726
  41 H8        2.8730     2.9220     5.1339  H       1  <O>11       0.0726
  42 H9        0.2310     1.4570     5.3190  H       1  <O>11       0.0317
  43 H10       0.5219     3.1940     5.5728  H       1  <O>11       0.0317
  44 H11      -0.5220     2.6619     3.3879  H       1  <O>11       0.0466
  45 H12       1.0350     3.5129     3.2508  H       1  <O>11       0.0466
  46 H13       0.1581     6.5860    -1.4508  H       1  <O>11       0.0377
  47 H14      -1.0556     5.6193    -0.5768  H       1  <O>11       0.0377
  48 H15       0.3524     1.7621    -3.5964  H       1  <O>11       0.1921
  49 H16      -0.1100     0.0229     3.5840  H       1  <O>11       0.0502
  50 H17       1.0130    -0.5932     2.3481  H       1  <O>11       0.0502
  51 H18       1.3850    -0.4510     5.1921  H       1  <O>11       0.0742
  52 H19       2.4950    -1.0960     3.9591  H       1  <O>11       0.0742
  53 H20      -0.0812     3.1397    -0.0645  H       1  <O>11       0.0629
  54 H21      -1.8812     4.5649    -6.6491  H       1  <O>11       0.0625
  55 H22      -2.8051     6.7989    -6.5527  H       1  <O>11       0.0618
  56 H23      -2.6089     8.1056    -4.5205  H       1  <O>11       0.0618
  57 H24      -1.4908     7.1743    -2.5859  H       1  <O>11       0.0624
  58 H25       2.2127     6.6525    -0.4293  H       1  <O>11       0.0621
  59 H26       3.9627     5.6391     0.9185  H       1  <O>11       0.0646
@<TRIPOS>BOND
     1     1     2    1
     2     2     3    2
     3     3     4    1
     4     4     5    1
     5     3     5    1
     6     2     6    1
     7     6     7    1
     8     7     8    1
     9     8     9    1
    10     9    10    1
    11    10    11   am
    12    11    12    2
    13    11    13    1
    14    13    14   ar
    15    14    15   ar
    16    15    16    1
    17    16    17    1
    18    17    18   ar
    19    18    19   ar
    20    19    20   ar
    21    20    21    2
    22    20    22   ar
    23    22    23   ar
    24    23    24   ar
    25    24    25   ar
    26    25    26   ar
    27    26    27   ar
    28    17    27   ar
    29    22    27   ar
    30    15    28   ar
    31    28    29   ar
    32    29    30   ar
    33    13    30   ar
    34    30    31    1
    35    10    32    1
    36    32    33    1
    37     6    33    1
    38     1    34    1
    39     1    35    1
    40     4    36    1
    41     4    37    1
    42     5    38    1
    43     5    39    1
    44     7    40    1
    45     7    41    1
    46     8    42    1
    47     8    43    1
    48     9    44    1
    49     9    45    1
    50    16    46    1
    51    16    47    1
    52    19    48    1
    53    32    49    1
    54    32    50    1
    55    33    51    1
    56    33    52    1
    57    14    53    1
    58    23    54    1
    59    24    55    1
    60    25    56    1
    61    26    57    1
    62    28    58    1
    63    29    59    1
@<TRIPOS>MOLECULE
mol92_1_10
 59 63 0 0 0
SMALL
USER_CHARGES
****
VDW energy = -91.89
@<TRIPOS>ATOM
   1 N1        4.8233    -0.0872     3.3214  N.pl3   1  <O>11      -0.2515
   2 C1        4.2396     0.9903     4.0983  C.2     1  <O>11       0.2546
   3 C2        5.0243     2.1387     4.4305  C.2     1  <O>11       0.0151
   4 C3        4.9430     3.1730     5.0070  C.3     1  <O>11      -0.0202
   5 C4        6.1150     2.5820     4.2810  C.3     1  <O>11      -0.0202
   6 N2        2.8690     0.9030     4.5350  N.pl3   1  <O>11      -0.2241
   7 C5        1.7826     0.9140     3.5147  C.3     1  <O>11       0.0818
   8 C6        0.6091    -0.0000     3.8584  C.3     1  <O>11      -0.0009
   9 C7        1.0046    -1.4480     4.1360  C.3     1  <O>11       0.0185
  10 N3        2.0673    -1.5880     5.1684  N.am    1  <O>11      -0.2937
  11 C8        3.0830    -2.4895     5.1132  C.2     1  <O>11       0.2495
  12 O1        3.1676    -3.2584     4.1682  O.2     1  <O>11      -0.2699
  13 C9        4.0724    -2.5384     6.1831  C.ar    1  <O>11       0.0723
  14 C10       3.8694    -3.3678     7.2987  C.ar    1  <O>11      -0.0433
  15 C11       4.8134    -3.4055     8.3303  C.ar    1  <O>11      -0.0406
  16 C12       4.5876    -4.2789     9.4978  C.3     1  <O>11       0.0171
  17 C13       5.1823    -5.6158     9.2373  C.ar    1  <O>11       0.0736
  18 N4        6.1370    -5.7708     8.2254  N.ar    1  <O>11      -0.1750
  19 N5        6.6087    -6.9979     7.9082  N.ar    1  <O>11      -0.2425
  20 C14       6.1569    -8.0754     8.5923  C.ar    1  <O>11       0.2725
  21 O2        6.6142    -9.3308     8.1476  O.2     1  <O>11      -0.2658
  22 C15       5.2825    -7.9959     9.6853  C.ar    1  <O>11       0.0496
  23 C16       4.8544    -9.1122    10.4376  C.ar    1  <O>11      -0.0487
  24 C17       3.9562    -8.9658    11.4948  C.ar    1  <O>11      -0.0610
  25 C18       3.4639    -7.7061    11.8164  C.ar    1  <O>11      -0.0611
  26 C19       3.8709    -6.5919    11.0807  C.ar    1  <O>11      -0.0521
  27 C20       4.7857    -6.7198    10.0110  C.ar    1  <O>11       0.0106
  28 C21       5.9672    -2.6201     8.2576  C.ar    1  <O>11      -0.0555
  29 C22       6.1714    -1.7983     7.1431  C.ar    1  <O>11      -0.0254
  30 C23       5.2363    -1.7557     6.1076  C.ar    1  <O>11       0.1355
  31 F1        5.4405    -0.9561     5.0134  F       1  <O>11      -0.2047
  32 C24       1.9432    -0.6367     6.3159  C.3     1  <O>11       0.0510
  33 C25       2.3907     0.7988     5.9472  C.3     1  <O>11       0.0960
  34 H1        4.2635    -0.9063     3.0844  H       1  <O>11       0.2881
  35 H2        5.7933    -0.0256     3.0122  H       1  <O>11       0.2881
  36 H3        4.3825     4.0115     4.5936  H       1  <O>11       0.0316
  37 H4        4.9117     3.2158     6.0957  H       1  <O>11       0.0316
  38 H5        6.4425     2.9727     3.3176  H       1  <O>11       0.0316
  39 H6        6.9717     2.1770     4.8196  H       1  <O>11       0.0316
  40 H7        1.4084     1.9329     3.4225  H       1  <O>11       0.0726
  41 H8        2.2019     0.5912     2.5619  H       1  <O>11       0.0726
  42 H9        0.1162     0.3951     4.7464  H       1  <O>11       0.0317
  43 H10      -0.0882     0.0098     3.0212  H       1  <O>11       0.0317
  44 H11       0.1208    -1.9870     4.4760  H       1  <O>11       0.0466
  45 H12       1.3653    -1.8900     3.2075  H       1  <O>11       0.0466
  46 H13       3.5166    -4.3845     9.6709  H       1  <O>11       0.0377
  47 H14       5.0569    -3.8373    10.3777  H       1  <O>11       0.0377
  48 H15       7.2891    -7.1089     7.1696  H       1  <O>11       0.1921
  49 H16       0.9018    -0.6064     6.6338  H       1  <O>11       0.0502
  50 H17       2.5644    -0.9956     7.1365  H       1  <O>11       0.0502
  51 H18       1.5458     1.4733     6.0813  H       1  <O>11       0.0742
  52 H19       3.2014     1.0937     6.6137  H       1  <O>11       0.0742
  53 H20       3.0204    -3.9516     7.3574  H       1  <O>11       0.0629
  54 H21       5.2118   -10.0511    10.2013  H       1  <O>11       0.0625
  55 H22       3.6576    -9.7914    12.0373  H       1  <O>11       0.0618
  56 H23       2.7988    -7.5950    12.5976  H       1  <O>11       0.0618
  57 H24       3.4982    -5.6603    11.3217  H       1  <O>11       0.0624
  58 H25       6.6629    -2.6459     9.0193  H       1  <O>11       0.0621
  59 H26       7.0226    -1.2175     7.0864  H       1  <O>11       0.0646
@<TRIPOS>BOND
     1     1     2    1
     2     2     3    2
     3     3     4    1
     4     4     5    1
     5     3     5    1
     6     2     6    1
     7     6     7    1
     8     7     8    1
     9     8     9    1
    10     9    10    1
    11    10    11   am
    12    11    12    2
    13    11    13    1
    14    13    14   ar
    15    14    15   ar
    16    15    16    1
    17    16    17    1
    18    17    18   ar
    19    18    19   ar
    20    19    20   ar
    21    20    21    2
    22    20    22   ar
    23    22    23   ar
    24    23    24   ar
    25    24    25   ar
    26    25    26   ar
    27    26    27   ar
    28    17    27   ar
    29    22    27   ar
    30    15    28   ar
    31    28    29   ar
    32    29    30   ar
    33    13    30   ar
    34    30    31    1
    35    10    32    1
    36    32    33    1
    37     6    33    1
    38     1    34    1
    39     1    35    1
    40     4    36    1
    41     4    37    1
    42     5    38    1
    43     5    39    1
    44     7    40    1
    45     7    41    1
    46     8    42    1
    47     8    43    1
    48     9    44    1
    49     9    45    1
    50    16    46    1
    51    16    47    1
    52    19    48    1
    53    32    49    1
    54    32    50    1
    55    33    51    1
    56    33    52    1
    57    14    53    1
    58    23    54    1
    59    24    55    1
    60    25    56    1
    61    26    57    1
    62    28    58    1
    63    29    59    1
@<TRIPOS>MOLECULE
mol92_1_11
 59 63 0 0 0
SMALL
USER_CHARGES
****
VDW energy = -91.26
@<TRIPOS>ATOM
   1 N1        4.8233    -0.0872     3.3214  N.pl3   1  <O>11      -0.2515
   2 C1        4.2396     0.9903     4.0983  C.2     1  <O>11       0.2546
   3 C2        5.0243     2.1387     4.4305  C.2     1  <O>11       0.0151
   4 C3        4.9430     3.1730     5.0070  C.3     1  <O>11      -0.0202
   5 C4        6.1150     2.5820     4.2810  C.3     1  <O>11      -0.0202
   6 N2        2.8690     0.9030     4.5350  N.pl3   1  <O>11      -0.2241
   7 C5        2.2910     2.0220     5.3319  C.3     1  <O>11       0.0818
   8 C6        0.8280     2.3140     5.0079  C.3     1  <O>11      -0.0009
   9 C7        0.5550     2.5749     3.5289  C.3     1  <O>11       0.0185
  10 N3        1.0620     1.5018     2.6310  N.am    1  <O>11      -0.2937
  11 C8        1.6380     1.7178     1.4189  C.2     1  <O>11       0.2495
  12 O1        2.0256     0.7730     0.7491  O.2     1  <O>11      -0.2699
  13 C9        1.7932     3.0783     0.9182  C.ar    1  <O>11       0.0723
  14 C10       0.7803     3.6683     0.1438  C.ar    1  <O>11      -0.0433
  15 C11       0.9349     4.9695    -0.3460  C.ar    1  <O>11      -0.0406
  16 C12      -0.1350     5.5772    -1.1601  C.3     1  <O>11       0.0171
  17 C13       0.4465     6.6277    -2.0360  C.ar    1  <O>11       0.0736
  18 N4        0.9064     6.2947    -3.3155  N.ar    1  <O>11      -0.1750
  19 N5        1.5320     7.2167    -4.0820  N.ar    1  <O>11      -0.2425
  20 C14       1.6953     8.4723    -3.6023  C.ar    1  <O>11       0.2725
  21 O2        2.4392     9.3544    -4.4094  O.2     1  <O>11      -0.2658
  22 C15       1.1741     8.9143    -2.3781  C.ar    1  <O>11       0.0496
  23 C16       1.2928    10.2385    -1.9008  C.ar    1  <O>11      -0.0487
  24 C17       0.7781    10.6038    -0.6569  C.ar    1  <O>11      -0.0610
  25 C18       0.1424     9.6550     0.1358  C.ar    1  <O>11      -0.0611
  26 C19       0.0207     8.3401    -0.3165  C.ar    1  <O>11      -0.0521
  27 C20       0.5296     7.9532    -1.5769  C.ar    1  <O>11       0.0106
  28 C21       2.0973     5.6934    -0.0663  C.ar    1  <O>11      -0.0555
  29 C22       3.1034     5.1069     0.7100  C.ar    1  <O>11      -0.0254
  30 C23       2.9574     3.8100     1.2052  C.ar    1  <O>11       0.1355
  31 F1        3.9400     3.2391     1.9713  F       1  <O>11      -0.2047
  32 C24       0.8920     0.1159     3.1670  C.3     1  <O>11       0.0510
  33 C25       1.9220    -0.2230     4.2721  C.3     1  <O>11       0.0960
  34 H1        4.2635    -0.9063     3.0844  H       1  <O>11       0.2881
  35 H2        5.7933    -0.0256     3.0122  H       1  <O>11       0.2881
  36 H3        4.3825     4.0115     4.5936  H       1  <O>11       0.0316
  37 H4        4.9117     3.2158     6.0957  H       1  <O>11       0.0316
  38 H5        6.4425     2.9727     3.3176  H       1  <O>11       0.0316
  39 H6        6.9717     2.1770     4.8196  H       1  <O>11       0.0316
  40 H7        2.3640     1.7651     6.3879  H       1  <O>11       0.0726
  41 H8        2.8730     2.9220     5.1339  H       1  <O>11       0.0726
  42 H9        0.2310     1.4570     5.3190  H       1  <O>11       0.0317
  43 H10       0.5219     3.1940     5.5728  H       1  <O>11       0.0317
  44 H11      -0.5220     2.6619     3.3879  H       1  <O>11       0.0466
  45 H12       1.0350     3.5129     3.2508  H       1  <O>11       0.0466
  46 H13      -0.8822     6.0233    -0.5037  H       1  <O>11       0.0377
  47 H14      -0.6036     4.8087    -1.7759  H       1  <O>11       0.0377
  48 H15       1.8735     6.9713    -5.0007  H       1  <O>11       0.1921
  49 H16      -0.1100     0.0229     3.5840  H       1  <O>11       0.0502
  50 H17       1.0130    -0.5932     2.3481  H       1  <O>11       0.0502
  51 H18       1.3850    -0.4510     5.1921  H       1  <O>11       0.0742
  52 H19       2.4950    -1.0960     3.9591  H       1  <O>11       0.0742
  53 H20      -0.0812     3.1397    -0.0645  H       1  <O>11       0.0629
  54 H21       1.7678    10.9470    -2.4817  H       1  <O>11       0.0625
  55 H22       0.8690    11.5769    -0.3255  H       1  <O>11       0.0618
  56 H23      -0.2387     9.9223     1.0568  H       1  <O>11       0.0618
  57 H24      -0.4482     7.6395     0.2788  H       1  <O>11       0.0624
  58 H25       2.2127     6.6525    -0.4293  H       1  <O>11       0.0621
  59 H26       3.9627     5.6391     0.9185  H       1  <O>11       0.0646
@<TRIPOS>BOND
     1     1     2    1
     2     2     3    2
     3     3     4    1
     4     4     5    1
     5     3     5    1
     6     2     6    1
     7     6     7    1
     8     7     8    1
     9     8     9    1
    10     9    10    1
    11    10    11   am
    12    11    12    2
    13    11    13    1
    14    13    14   ar
    15    14    15   ar
    16    15    16    1
    17    16    17    1
    18    17    18   ar
    19    18    19   ar
    20    19    20   ar
    21    20    21    2
    22    20    22   ar
    23    22    23   ar
    24    23    24   ar
    25    24    25   ar
    26    25    26   ar
    27    26    27   ar
    28    17    27   ar
    29    22    27   ar
    30    15    28   ar
    31    28    29   ar
    32    29    30   ar
    33    13    30   ar
    34    30    31    1
    35    10    32    1
    36    32    33    1
    37     6    33    1
    38     1    34    1
    39     1    35    1
    40     4    36    1
    41     4    37    1
    42     5    38    1
    43     5    39    1
    44     7    40    1
    45     7    41    1
    46     8    42    1
    47     8    43    1
    48     9    44    1
    49     9    45    1
    50    16    46    1
    51    16    47    1
    52    19    48    1
    53    32    49    1
    54    32    50    1
    55    33    51    1
    56    33    52    1
    57    14    53    1
    58    23    54    1
    59    24    55    1
    60    25    56    1
    61    26    57    1
    62    28    58    1
    63    29    59    1
@<TRIPOS>MOLECULE
mol92_1_12
 59 63 0 0 0
SMALL
USER_CHARGES
****
VDW energy = -90.72
@<TRIPOS>ATOM
   1 N1        4.8233    -0.0872     3.3214  N.pl3   1  <O>11      -0.2515
   2 C1        4.2396     0.9903     4.0983  C.2     1  <O>11       0.2546
   3 C2        5.0243     2.1387     4.4305  C.2     1  <O>11       0.0151
   4 C3        4.9430     3.1730     5.0070  C.3     1  <O>11      -0.0202
   5 C4        6.1150     2.5820     4.2810  C.3     1  <O>11      -0.0202
   6 N2        2.8690     0.9030     4.5350  N.pl3   1  <O>11      -0.2241
   7 C5        1.7936     1.4419     3.6549  C.3     1  <O>11       0.0818
   8 C6        0.5117     0.6132     3.6752  C.3     1  <O>11      -0.0009
   9 C7        0.7165    -0.8638     3.3486  C.3     1  <O>11       0.0185
  10 N3        1.7517    -1.5224     4.1909  N.am    1  <O>11      -0.2937
  11 C8        2.6424    -2.4443     3.7392  C.2     1  <O>11       0.2495
  12 O1        3.4585    -2.9328     4.5053  O.2     1  <O>11      -0.2699
  13 C9        2.6235    -2.8503     2.3390  C.ar    1  <O>11       0.0723
  14 C10       3.3959    -2.1597     1.3903  C.ar    1  <O>11      -0.0433
  15 C11       3.3683    -2.5425     0.0451  C.ar    1  <O>11      -0.0406
  16 C12       4.1822    -1.8077    -0.9420  C.3     1  <O>11       0.0171
  17 C13       3.5736    -1.9523    -2.2902  C.ar    1  <O>11       0.0736
  18 N4        2.6251    -1.0225    -2.7320  N.ar    1  <O>11      -0.1750
  19 N5        1.9873    -1.1994    -3.9114  N.ar    1  <O>11      -0.2425
  20 C14       2.2884    -2.2809    -4.6684  C.ar    1  <O>11       0.2725
  21 O2        1.5200    -2.4566    -5.8352  O.2     1  <O>11      -0.2658
  22 C15       3.2970    -3.2010    -4.3492  C.ar    1  <O>11       0.0496
  23 C16       3.6529    -4.2978    -5.1651  C.ar    1  <O>11      -0.0487
  24 C17       4.6457    -5.1952    -4.7714  C.ar    1  <O>11      -0.0610
  25 C18       5.2960    -5.0193    -3.5553  C.ar    1  <O>11      -0.0611
  26 C19       4.9538    -3.9447    -2.7329  C.ar    1  <O>11      -0.0521
  27 C20       3.9557    -3.0213    -3.1184  C.ar    1  <O>11       0.0106
  28 C21       2.5738    -3.6168    -0.3648  C.ar    1  <O>11      -0.0555
  29 C22       1.8089    -4.3079     0.5819  C.ar    1  <O>11      -0.0254
  30 C23       1.8317    -3.9349     1.9269  C.ar    1  <O>11       0.1355
  31 F1        1.0879    -4.6167     2.8544  F       1  <O>11      -0.2047
  32 C24       1.7511    -1.0888     5.6224  C.3     1  <O>11       0.0510
  33 C25       2.3805     0.3121     5.8180  C.3     1  <O>11       0.0960
  34 H1        4.2635    -0.9063     3.0844  H       1  <O>11       0.2881
  35 H2        5.7933    -0.0256     3.0122  H       1  <O>11       0.2881
  36 H3        4.3825     4.0115     4.5936  H       1  <O>11       0.0316
  37 H4        4.9117     3.2158     6.0957  H       1  <O>11       0.0316
  38 H5        6.4425     2.9727     3.3176  H       1  <O>11       0.0316
  39 H6        6.9717     2.1770     4.8196  H       1  <O>11       0.0316
  40 H7        1.5544     2.4523     3.9844  H       1  <O>11       0.0726
  41 H8        2.1682     1.4704     2.6318  H       1  <O>11       0.0726
  42 H9        0.0735     0.6849     4.6704  H       1  <O>11       0.0317
  43 H10      -0.1781     1.0330     2.9436  H       1  <O>11       0.0317
  44 H11      -0.2298    -1.3834     3.4965  H       1  <O>11       0.0466
  45 H12       1.0175    -0.9466     2.3045  H       1  <O>11       0.0466
  46 H13       5.1936    -2.2141    -0.9538  H       1  <O>11       0.0377
  47 H14       4.2171    -0.7521    -0.6701  H       1  <O>11       0.0377
  48 H15       1.2946    -0.5333    -4.2231  H       1  <O>11       0.1921
  49 H16       0.7222    -1.0615     5.9789  H       1  <O>11       0.0502
  50 H17       2.3202    -1.8115     6.2071  H       1  <O>11       0.0502
  51 H18       1.6299     0.9757     6.2457  H       1  <O>11       0.0742
  52 H19       3.2222     0.2237     6.5051  H       1  <O>11       0.0742
  53 H20       3.9861    -1.3668     1.6870  H       1  <O>11       0.0629
  54 H21       3.1709    -4.4375    -6.0668  H       1  <O>11       0.0625
  55 H22       4.8969    -5.9884    -5.3819  H       1  <O>11       0.0618
  56 H23       6.0304    -5.6821    -3.2612  H       1  <O>11       0.0618
  57 H24       5.4372    -3.8224    -1.8294  H       1  <O>11       0.0624
  58 H25       2.5514    -3.8982    -1.3574  H       1  <O>11       0.0621
  59 H26       1.2216    -5.1019     0.2823  H       1  <O>11       0.0646
@<TRIPOS>BOND
     1     1     2    1
     2     2     3    2
     3     3     4    1
     4     4     5    1
     5     3     5    1
     6     2     6    1
     7     6     7    1
     8     7     8    1
     9     8     9    1
    10     9    10    1
    11    10    11   am
    12    11    12    2
    13    11    13    1
    14    13    14   ar
    15    14    15   ar
    16    15    16    1
    17    16    17    1
    18    17    18   ar
    19    18    19   ar
    20    19    20   ar
    21    20    21    2
    22    20    22   ar
    23    22    23   ar
    24    23    24   ar
    25    24    25   ar
    26    25    26   ar
    27    26    27   ar
    28    17    27   ar
    29    22    27   ar
    30    15    28   ar
    31    28    29   ar
    32    29    30   ar
    33    13    30   ar
    34    30    31    1
    35    10    32    1
    36    32    33    1
    37     6    33    1
    38     1    34    1
    39     1    35    1
    40     4    36    1
    41     4    37    1
    42     5    38    1
    43     5    39    1
    44     7    40    1
    45     7    41    1
    46     8    42    1
    47     8    43    1
    48     9    44    1
    49     9    45    1
    50    16    46    1
    51    16    47    1
    52    19    48    1
    53    32    49    1
    54    32    50    1
    55    33    51    1
    56    33    52    1
    57    14    53    1
    58    23    54    1
    59    24    55    1
    60    25    56    1
    61    26    57    1
    62    28    58    1
    63    29    59    1
@<TRIPOS>MOLECULE
mol92_1_13
 59 63 0 0 0
SMALL
USER_CHARGES
****
VDW energy = -90.19
@<TRIPOS>ATOM
   1 N1        4.8233    -0.0872     3.3214  N.pl3   1  <O>11      -0.2515
   2 C1        4.2396     0.9903     4.0983  C.2     1  <O>11       0.2546
   3 C2        5.0243     2.1387     4.4305  C.2     1  <O>11       0.0151
   4 C3        4.9430     3.1730     5.0070  C.3     1  <O>11      -0.0202
   5 C4        6.1150     2.5820     4.2810  C.3     1  <O>11      -0.0202
   6 N2        2.8690     0.9030     4.5350  N.pl3   1  <O>11      -0.2241
   7 C5        2.2910     2.0220     5.3319  C.3     1  <O>11       0.0818
   8 C6        0.8280     2.3140     5.0079  C.3     1  <O>11      -0.0009
   9 C7        0.5550     2.5749     3.5289  C.3     1  <O>11       0.0185
  10 N3        1.0620     1.5018     2.6310  N.am    1  <O>11      -0.2937
  11 C8        1.6380     1.7178     1.4189  C.2     1  <O>11       0.2495
  12 O1        1.7680     2.8567     0.9979  O.2     1  <O>11      -0.2699
  13 C9        2.1010     0.5887     0.6210  C.ar    1  <O>11       0.0723
  14 C10       3.4151     0.1124     0.7625  C.ar    1  <O>11      -0.0433
  15 C11       3.8623    -0.9634    -0.0118  C.ar    1  <O>11      -0.0406
  16 C12       5.2453    -1.4529     0.1444  C.3     1  <O>11       0.0171
  17 C13       5.2808    -2.5091     1.1894  C.ar    1  <O>11       0.0736
  18 N4        4.0980    -3.1509     1.5746  N.ar    1  <O>11      -0.1750
  19 N5        4.0989    -4.0379     2.5955  N.ar    1  <O>11      -0.2425
  20 C14       5.2625    -4.3097     3.2322  C.ar    1  <O>11       0.2725
  21 O2        5.1762    -5.1664     4.3464  O.2     1  <O>11      -0.2658
  22 C15       6.5053    -3.7908     2.8426  C.ar    1  <O>11       0.0496
  23 C16       7.7290    -4.1172     3.4683  C.ar    1  <O>11      -0.0487
  24 C17       8.9275    -3.5387     3.0504  C.ar    1  <O>11      -0.0610
  25 C18       8.9268    -2.6203     2.0068  C.ar    1  <O>11      -0.0611
  26 C19       7.7266    -2.2809     1.3801  C.ar    1  <O>11      -0.0521
  27 C20       6.5036    -2.8620     1.7851  C.ar    1  <O>11       0.0106
  28 C21       3.0040    -1.5743    -0.9302  C.ar    1  <O>11      -0.0555
  29 C22       1.6933    -1.1028    -1.0665  C.ar    1  <O>11      -0.0254
  30 C23       1.2372    -0.0314    -0.2967  C.ar    1  <O>11       0.1355
  31 F1       -0.0487     0.4250    -0.4257  F       1  <O>11      -0.2047
  32 C24       0.8920     0.1159     3.1670  C.3     1  <O>11       0.0510
  33 C25       1.9220    -0.2230     4.2721  C.3     1  <O>11       0.0960
  34 H1        4.2635    -0.9063     3.0844  H       1  <O>11       0.2881
  35 H2        5.7933    -0.0256     3.0122  H       1  <O>11       0.2881
  36 H3        4.3825     4.0115     4.5936  H       1  <O>11       0.0316
  37 H4        4.9117     3.2158     6.0957  H       1  <O>11       0.0316
  38 H5        6.4425     2.9727     3.3176  H       1  <O>11       0.0316
  39 H6        6.9717     2.1770     4.8196  H       1  <O>11       0.0316
  40 H7        2.3640     1.7651     6.3879  H       1  <O>11       0.0726
  41 H8        2.8730     2.9220     5.1339  H       1  <O>11       0.0726
  42 H9        0.2310     1.4570     5.3190  H       1  <O>11       0.0317
  43 H10       0.5219     3.1940     5.5728  H       1  <O>11       0.0317
  44 H11      -0.5220     2.6619     3.3879  H       1  <O>11       0.0466
  45 H12       1.0350     3.5129     3.2508  H       1  <O>11       0.0466
  46 H13       5.8920    -0.6267     0.4400  H       1  <O>11       0.0377
  47 H14       5.5932    -1.8667    -0.8028  H       1  <O>11       0.0377
  48 H15       3.2419    -4.4914     2.8796  H       1  <O>11       0.1921
  49 H16      -0.1100     0.0229     3.5840  H       1  <O>11       0.0502
  50 H17       1.0130    -0.5932     2.3481  H       1  <O>11       0.0502
  51 H18       1.3850    -0.4510     5.1921  H       1  <O>11       0.0742
  52 H19       2.4950    -1.0960     3.9591  H       1  <O>11       0.0742
  53 H20       4.0531     0.5580     1.4403  H       1  <O>11       0.0629
  54 H21       7.7365    -4.7944     4.2469  H       1  <O>11       0.0625
  55 H22       9.8134    -3.7922     3.5152  H       1  <O>11       0.0618
  56 H23       9.8120    -2.1902     1.6960  H       1  <O>11       0.0618
  57 H24       7.7324    -1.5949     0.6091  H       1  <O>11       0.0624
  58 H25       3.3341    -2.3666    -1.5032  H       1  <O>11       0.0621
  59 H26       1.0570    -1.5522    -1.7436  H       1  <O>11       0.0646
@<TRIPOS>BOND
     1     1     2    1
     2     2     3    2
     3     3     4    1
     4     4     5    1
     5     3     5    1
     6     2     6    1
     7     6     7    1
     8     7     8    1
     9     8     9    1
    10     9    10    1
    11    10    11   am
    12    11    12    2
    13    11    13    1
    14    13    14   ar
    15    14    15   ar
    16    15    16    1
    17    16    17    1
    18    17    18   ar
    19    18    19   ar
    20    19    20   ar
    21    20    21    2
    22    20    22   ar
    23    22    23   ar
    24    23    24   ar
    25    24    25   ar
    26    25    26   ar
    27    26    27   ar
    28    17    27   ar
    29    22    27   ar
    30    15    28   ar
    31    28    29   ar
    32    29    30   ar
    33    13    30   ar
    34    30    31    1
    35    10    32    1
    36    32    33    1
    37     6    33    1
    38     1    34    1
    39     1    35    1
    40     4    36    1
    41     4    37    1
    42     5    38    1
    43     5    39    1
    44     7    40    1
    45     7    41    1
    46     8    42    1
    47     8    43    1
    48     9    44    1
    49     9    45    1
    50    16    46    1
    51    16    47    1
    52    19    48    1
    53    32    49    1
    54    32    50    1
    55    33    51    1
    56    33    52    1
    57    14    53    1
    58    23    54    1
    59    24    55    1
    60    25    56    1
    61    26    57    1
    62    28    58    1
    63    29    59    1
@<TRIPOS>MOLECULE
mol92_1_14
 59 63 0 0 0
SMALL
USER_CHARGES
****
VDW energy = -89.87
@<TRIPOS>ATOM
   1 N1        4.8233    -0.0872     3.3214  N.pl3   1  <O>11      -0.2515
   2 C1        4.2396     0.9903     4.0983  C.2     1  <O>11       0.2546
   3 C2        5.0243     2.1387     4.4305  C.2     1  <O>11       0.0151
   4 C3        4.9430     3.1730     5.0070  C.3     1  <O>11      -0.0202
   5 C4        6.1150     2.5820     4.2810  C.3     1  <O>11      -0.0202
   6 N2        2.8690     0.9030     4.5350  N.pl3   1  <O>11      -0.2241
   7 C5        2.2910     2.0220     5.3319  C.3     1  <O>11       0.0818
   8 C6        0.8280     2.3140     5.0079  C.3     1  <O>11      -0.0009
   9 C7        0.5550     2.5749     3.5289  C.3     1  <O>11       0.0185
  10 N3        1.0620     1.5018     2.6310  N.am    1  <O>11      -0.2937
  11 C8        1.6380     1.7178     1.4189  C.2     1  <O>11       0.2495
  12 O1        2.0256     0.7730     0.7491  O.2     1  <O>11      -0.2699
  13 C9        1.7932     3.0783     0.9182  C.ar    1  <O>11       0.0723
  14 C10       0.7803     3.6683     0.1438  C.ar    1  <O>11      -0.0433
  15 C11       0.9349     4.9695    -0.3460  C.ar    1  <O>11      -0.0406
  16 C12      -0.1350     5.5772    -1.1601  C.3     1  <O>11       0.0171
  17 C13       0.4465     6.6277    -2.0360  C.ar    1  <O>11       0.0736
  18 N4        0.0081     7.9523    -1.9240  N.ar    1  <O>11      -0.1750
  19 N5        0.4516     8.8976    -2.7836  N.ar    1  <O>11      -0.2425
  20 C14       1.3378     8.5501    -3.7464  C.ar    1  <O>11       0.2725
  21 O2        1.6833     9.5583    -4.6667  O.2     1  <O>11      -0.2658
  22 C15       1.9045     7.2729    -3.8618  C.ar    1  <O>11       0.0496
  23 C16       2.8725     6.9224    -4.8290  C.ar    1  <O>11      -0.0487
  24 C17       3.3717     5.6223    -4.9091  C.ar    1  <O>11      -0.0610
  25 C18       2.9103     4.6476    -4.0318  C.ar    1  <O>11      -0.0611
  26 C19       1.9497     4.9737    -3.0730  C.ar    1  <O>11      -0.0521
  27 C20       1.4376     6.2871    -2.9722  C.ar    1  <O>11       0.0106
  28 C21       2.0973     5.6934    -0.0663  C.ar    1  <O>11      -0.0555
  29 C22       3.1034     5.1069     0.7100  C.ar    1  <O>11      -0.0254
  30 C23       2.9574     3.8100     1.2052  C.ar    1  <O>11       0.1355
  31 F1        3.9400     3.2391     1.9713  F       1  <O>11      -0.2047
  32 C24       0.8920     0.1159     3.1670  C.3     1  <O>11       0.0510
  33 C25       1.9220    -0.2230     4.2721  C.3     1  <O>11       0.0960
  34 H1        4.2635    -0.9063     3.0844  H       1  <O>11       0.2881
  35 H2        5.7933    -0.0256     3.0122  H       1  <O>11       0.2881
  36 H3        4.3825     4.0115     4.5936  H       1  <O>11       0.0316
  37 H4        4.9117     3.2158     6.0957  H       1  <O>11       0.0316
  38 H5        6.4425     2.9727     3.3176  H       1  <O>11       0.0316
  39 H6        6.9717     2.1770     4.8196  H       1  <O>11       0.0316
  40 H7        2.3640     1.7651     6.3879  H       1  <O>11       0.0726
  41 H8        2.8730     2.9220     5.1339  H       1  <O>11       0.0726
  42 H9        0.2310     1.4570     5.3190  H       1  <O>11       0.0317
  43 H10       0.5219     3.1940     5.5728  H       1  <O>11       0.0317
  44 H11      -0.5220     2.6619     3.3879  H       1  <O>11       0.0466
  45 H12       1.0350     3.5129     3.2508  H       1  <O>11       0.0466
  46 H13      -0.8822     6.0233    -0.5037  H       1  <O>11       0.0377
  47 H14      -0.6036     4.8087    -1.7759  H       1  <O>11       0.0377
  48 H15       0.1250     9.8507    -2.7083  H       1  <O>11       0.1921
  49 H16      -0.1100     0.0229     3.5840  H       1  <O>11       0.0502
  50 H17       1.0130    -0.5932     2.3481  H       1  <O>11       0.0502
  51 H18       1.3850    -0.4510     5.1921  H       1  <O>11       0.0742
  52 H19       2.4950    -1.0960     3.9591  H       1  <O>11       0.0742
  53 H20      -0.0812     3.1397    -0.0645  H       1  <O>11       0.0629
  54 H21       3.2158     7.6395    -5.4869  H       1  <O>11       0.0625
  55 H22       4.0823     5.3844    -5.6186  H       1  <O>11       0.0618
  56 H23       3.2774     3.6848    -4.0892  H       1  <O>11       0.0618
  57 H24       1.6081     4.2444    -2.4277  H       1  <O>11       0.0624
  58 H25       2.2127     6.6525    -0.4293  H       1  <O>11       0.0621
  59 H26       3.9627     5.6391     0.9185  H       1  <O>11       0.0646
@<TRIPOS>BOND
     1     1     2    1
     2     2     3    2
     3     3     4    1
     4     4     5    1
     5     3     5    1
     6     2     6    1
     7     6     7    1
     8     7     8    1
     9     8     9    1
    10     9    10    1
    11    10    11   am
    12    11    12    2
    13    11    13    1
    14    13    14   ar
    15    14    15   ar
    16    15    16    1
    17    16    17    1
    18    17    18   ar
    19    18    19   ar
    20    19    20   ar
    21    20    21    2
    22    20    22   ar
    23    22    23   ar
    24    23    24   ar
    25    24    25   ar
    26    25    26   ar
    27    26    27   ar
    28    17    27   ar
    29    22    27   ar
    30    15    28   ar
    31    28    29   ar
    32    29    30   ar
    33    13    30   ar
    34    30    31    1
    35    10    32    1
    36    32    33    1
    37     6    33    1
    38     1    34    1
    39     1    35    1
    40     4    36    1
    41     4    37    1
    42     5    38    1
    43     5    39    1
    44     7    40    1
    45     7    41    1
    46     8    42    1
    47     8    43    1
    48     9    44    1
    49     9    45    1
    50    16    46    1
    51    16    47    1
    52    19    48    1
    53    32    49    1
    54    32    50    1
    55    33    51    1
    56    33    52    1
    57    14    53    1
    58    23    54    1
    59    24    55    1
    60    25    56    1
    61    26    57    1
    62    28    58    1
    63    29    59    1
@<TRIPOS>MOLECULE
mol92_1_15
 59 63 0 0 0
SMALL
USER_CHARGES
****
VDW energy = -89.30
@<TRIPOS>ATOM
   1 N1        4.8233    -0.0872     3.3214  N.pl3   1  <O>11      -0.2515
   2 C1        4.2396     0.9903     4.0983  C.2     1  <O>11       0.2546
   3 C2        5.0243     2.1387     4.4305  C.2     1  <O>11       0.0151
   4 C3        4.9430     3.1730     5.0070  C.3     1  <O>11      -0.0202
   5 C4        6.1150     2.5820     4.2810  C.3     1  <O>11      -0.0202
   6 N2        2.8690     0.9030     4.5350  N.pl3   1  <O>11      -0.2241
   7 C5        2.2910     2.0220     5.3319  C.3     1  <O>11       0.0818
   8 C6        0.8280     2.3140     5.0079  C.3     1  <O>11      -0.0009
   9 C7        0.5550     2.5749     3.5289  C.3     1  <O>11       0.0185
  10 N3        1.0620     1.5018     2.6310  N.am    1  <O>11      -0.2937
  11 C8        1.6380     1.7178     1.4189  C.2     1  <O>11       0.2495
  12 O1        1.7680     2.8567     0.9979  O.2     1  <O>11      -0.2699
  13 C9        2.1010     0.5887     0.6210  C.ar    1  <O>11       0.0723
  14 C10       3.4151     0.1124     0.7625  C.ar    1  <O>11      -0.0433
  15 C11       3.8623    -0.9634    -0.0118  C.ar    1  <O>11      -0.0406
  16 C12       5.2453    -1.4529     0.1444  C.3     1  <O>11       0.0171
  17 C13       6.1365    -0.7246    -0.7960  C.ar    1  <O>11       0.0736
  18 N4        5.7162     0.4845    -1.3622  N.ar    1  <O>11      -0.1750
  19 N5        6.4712     1.1041    -2.2977  N.ar    1  <O>11      -0.2425
  20 C14       7.6480     0.5476    -2.6701  C.ar    1  <O>11       0.2725
  21 O2        8.3366     1.1911    -3.7164  O.2     1  <O>11      -0.2658
  22 C15       8.1894    -0.6027    -2.0791  C.ar    1  <O>11       0.0496
  23 C16       9.4434    -1.1532    -2.4249  C.ar    1  <O>11      -0.0487
  24 C17       9.9086    -2.3205    -1.8192  C.ar    1  <O>11      -0.0610
  25 C18       9.1296    -2.9630    -0.8636  C.ar    1  <O>11      -0.0611
  26 C19       7.8851    -2.4373    -0.5130  C.ar    1  <O>11      -0.0521
  27 C20       7.4005    -1.2518    -1.1108  C.ar    1  <O>11       0.0106
  28 C21       3.0040    -1.5743    -0.9302  C.ar    1  <O>11      -0.0555
  29 C22       1.6933    -1.1028    -1.0665  C.ar    1  <O>11      -0.0254
  30 C23       1.2372    -0.0314    -0.2967  C.ar    1  <O>11       0.1355
  31 F1       -0.0487     0.4250    -0.4257  F       1  <O>11      -0.2047
  32 C24       0.8920     0.1159     3.1670  C.3     1  <O>11       0.0510
  33 C25       1.9220    -0.2230     4.2721  C.3     1  <O>11       0.0960
  34 H1        4.2635    -0.9063     3.0844  H       1  <O>11       0.2881
  35 H2        5.7933    -0.0256     3.0122  H       1  <O>11       0.2881
  36 H3        4.3825     4.0115     4.5936  H       1  <O>11       0.0316
  37 H4        4.9117     3.2158     6.0957  H       1  <O>11       0.0316
  38 H5        6.4425     2.9727     3.3176  H       1  <O>11       0.0316
  39 H6        6.9717     2.1770     4.8196  H       1  <O>11       0.0316
  40 H7        2.3640     1.7651     6.3879  H       1  <O>11       0.0726
  41 H8        2.8730     2.9220     5.1339  H       1  <O>11       0.0726
  42 H9        0.2310     1.4570     5.3190  H       1  <O>11       0.0317
  43 H10       0.5219     3.1940     5.5728  H       1  <O>11       0.0317
  44 H11      -0.5220     2.6619     3.3879  H       1  <O>11       0.0466
  45 H12       1.0350     3.5129     3.2508  H       1  <O>11       0.0466
  46 H13       5.2800    -2.5202    -0.0742  H       1  <O>11       0.0377
  47 H14       5.5782    -1.2800     1.1685  H       1  <O>11       0.0377
  48 H15       6.1604     1.9708    -2.7137  H       1  <O>11       0.1921
  49 H16      -0.1100     0.0229     3.5840  H       1  <O>11       0.0502
  50 H17       1.0130    -0.5932     2.3481  H       1  <O>11       0.0502
  51 H18       1.3850    -0.4510     5.1921  H       1  <O>11       0.0742
  52 H19       2.4950    -1.0960     3.9591  H       1  <O>11       0.0742
  53 H20       4.0531     0.5580     1.4403  H       1  <O>11       0.0629
  54 H21      10.0248    -0.6844    -3.1371  H       1  <O>11       0.0625
  55 H22      10.8294    -2.7065    -2.0799  H       1  <O>11       0.0618
  56 H23       9.4709    -3.8271    -0.4143  H       1  <O>11       0.0618
  57 H24       7.3098    -2.9216     0.1937  H       1  <O>11       0.0624
  58 H25       3.3341    -2.3666    -1.5032  H       1  <O>11       0.0621
  59 H26       1.0570    -1.5522    -1.7436  H       1  <O>11       0.0646
@<TRIPOS>BOND
     1     1     2    1
     2     2     3    2
     3     3     4    1
     4     4     5    1
     5     3     5    1
     6     2     6    1
     7     6     7    1
     8     7     8    1
     9     8     9    1
    10     9    10    1
    11    10    11   am
    12    11    12    2
    13    11    13    1
    14    13    14   ar
    15    14    15   ar
    16    15    16    1
    17    16    17    1
    18    17    18   ar
    19    18    19   ar
    20    19    20   ar
    21    20    21    2
    22    20    22   ar
    23    22    23   ar
    24    23    24   ar
    25    24    25   ar
    26    25    26   ar
    27    26    27   ar
    28    17    27   ar
    29    22    27   ar
    30    15    28   ar
    31    28    29   ar
    32    29    30   ar
    33    13    30   ar
    34    30    31    1
    35    10    32    1
    36    32    33    1
    37     6    33    1
    38     1    34    1
    39     1    35    1
    40     4    36    1
    41     4    37    1
    42     5    38    1
    43     5    39    1
    44     7    40    1
    45     7    41    1
    46     8    42    1
    47     8    43    1
    48     9    44    1
    49     9    45    1
    50    16    46    1
    51    16    47    1
    52    19    48    1
    53    32    49    1
    54    32    50    1
    55    33    51    1
    56    33    52    1
    57    14    53    1
    58    23    54    1
    59    24    55    1
    60    25    56    1
    61    26    57    1
    62    28    58    1
    63    29    59    1
@<TRIPOS>MOLECULE
mol92_1_16
 59 63 0 0 0
SMALL
USER_CHARGES
****
VDW energy = -87.86
@<TRIPOS>ATOM
   1 N1        4.8233    -0.0872     3.3214  N.pl3   1  <O>11      -0.2515
   2 C1        4.2396     0.9903     4.0983  C.2     1  <O>11       0.2546
   3 C2        5.0243     2.1387     4.4305  C.2     1  <O>11       0.0151
   4 C3        4.9430     3.1730     5.0070  C.3     1  <O>11      -0.0202
   5 C4        6.1150     2.5820     4.2810  C.3     1  <O>11      -0.0202
   6 N2        2.8690     0.9030     4.5350  N.pl3   1  <O>11      -0.2241
   7 C5        1.7826     0.9140     3.5147  C.3     1  <O>11       0.0818
   8 C6        0.6091    -0.0000     3.8584  C.3     1  <O>11      -0.0009
   9 C7        1.0046    -1.4480     4.1360  C.3     1  <O>11       0.0185
  10 N3        2.0673    -1.5880     5.1684  N.am    1  <O>11      -0.2937
  11 C8        3.0830    -2.4895     5.1132  C.2     1  <O>11       0.2495
  12 O1        3.1676    -3.2584     4.1682  O.2     1  <O>11      -0.2699
  13 C9        4.0724    -2.5384     6.1831  C.ar    1  <O>11       0.0723
  14 C10       3.8694    -3.3678     7.2987  C.ar    1  <O>11      -0.0433
  15 C11       4.8134    -3.4055     8.3303  C.ar    1  <O>11      -0.0406
  16 C12       4.5876    -4.2789     9.4978  C.3     1  <O>11       0.0171
  17 C13       5.3270    -3.7396    10.6689  C.ar    1  <O>11       0.0736
  18 N4        6.6448    -4.1451    10.9103  N.ar    1  <O>11      -0.1750
  19 N5        7.2930    -3.7444    12.0276  N.ar    1  <O>11      -0.2425
  20 C14       6.6563    -2.9326    12.9043  C.ar    1  <O>11       0.2725
  21 O2        7.3514    -2.6326    14.0916  O.2     1  <O>11      -0.2658
  22 C15       5.3783    -2.3985    12.6873  C.ar    1  <O>11       0.0496
  23 C16       4.7343    -1.5055    13.5724  C.ar    1  <O>11      -0.0487
  24 C17       3.4468    -1.0368    13.3111  C.ar    1  <O>11      -0.0610
  25 C18       2.7761    -1.4547    12.1674  C.ar    1  <O>11      -0.0611
  26 C19       3.3939    -2.3413    11.2839  C.ar    1  <O>11      -0.0521
  27 C20       4.7005    -2.8213    11.5284  C.ar    1  <O>11       0.0106
  28 C21       5.9672    -2.6201     8.2576  C.ar    1  <O>11      -0.0555
  29 C22       6.1714    -1.7983     7.1431  C.ar    1  <O>11      -0.0254
  30 C23       5.2363    -1.7557     6.1076  C.ar    1  <O>11       0.1355
  31 F1        5.4405    -0.9561     5.0134  F       1  <O>11      -0.2047
  32 C24       1.9432    -0.6367     6.3159  C.3     1  <O>11       0.0510
  33 C25       2.3907     0.7988     5.9472  C.3     1  <O>11       0.0960
  34 H1        4.2635    -0.9063     3.0844  H       1  <O>11       0.2881
  35 H2        5.7933    -0.0256     3.0122  H       1  <O>11       0.2881
  36 H3        4.3825     4.0115     4.5936  H       1  <O>11       0.0316
  37 H4        4.9117     3.2158     6.0957  H       1  <O>11       0.0316
  38 H5        6.4425     2.9727     3.3176  H       1  <O>11       0.0316
  39 H6        6.9717     2.1770     4.8196  H       1  <O>11       0.0316
  40 H7        1.4084     1.9329     3.4225  H       1  <O>11       0.0726
  41 H8        2.2019     0.5912     2.5619  H       1  <O>11       0.0726
  42 H9        0.1162     0.3951     4.7464  H       1  <O>11       0.0317
  43 H10      -0.0882     0.0098     3.0212  H       1  <O>11       0.0317
  44 H11       0.1208    -1.9870     4.4760  H       1  <O>11       0.0466
  45 H12       1.3653    -1.8900     3.2075  H       1  <O>11       0.0466
  46 H13       4.9442    -5.2843     9.2739  H       1  <O>11       0.0377
  47 H14       3.5215    -4.3128     9.7251  H       1  <O>11       0.0377
  48 H15       8.2402    -4.0476    12.2057  H       1  <O>11       0.1921
  49 H16       0.9018    -0.6064     6.6338  H       1  <O>11       0.0502
  50 H17       2.5644    -0.9956     7.1365  H       1  <O>11       0.0502
  51 H18       1.5458     1.4733     6.0813  H       1  <O>11       0.0742
  52 H19       3.2014     1.0937     6.6137  H       1  <O>11       0.0742
  53 H20       3.0204    -3.9516     7.3574  H       1  <O>11       0.0629
  54 H21       5.2242    -1.1950    14.4260  H       1  <O>11       0.0625
  55 H22       2.9928    -0.3808    13.9658  H       1  <O>11       0.0618
  56 H23       1.8232    -1.1100    11.9719  H       1  <O>11       0.0618
  57 H24       2.8887    -2.6512    10.4391  H       1  <O>11       0.0624
  58 H25       6.6629    -2.6459     9.0193  H       1  <O>11       0.0621
  59 H26       7.0226    -1.2175     7.0864  H       1  <O>11       0.0646
@<TRIPOS>BOND
     1     1     2    1
     2     2     3    2
     3     3     4    1
     4     4     5    1
     5     3     5    1
     6     2     6    1
     7     6     7    1
     8     7     8    1
     9     8     9    1
    10     9    10    1
    11    10    11   am
    12    11    12    2
    13    11    13    1
    14    13    14   ar
    15    14    15   ar
    16    15    16    1
    17    16    17    1
    18    17    18   ar
    19    18    19   ar
    20    19    20   ar
    21    20    21    2
    22    20    22   ar
    23    22    23   ar
    24    23    24   ar
    25    24    25   ar
    26    25    26   ar
    27    26    27   ar
    28    17    27   ar
    29    22    27   ar
    30    15    28   ar
    31    28    29   ar
    32    29    30   ar
    33    13    30   ar
    34    30    31    1
    35    10    32    1
    36    32    33    1
    37     6    33    1
    38     1    34    1
    39     1    35    1
    40     4    36    1
    41     4    37    1
    42     5    38    1
    43     5    39    1
    44     7    40    1
    45     7    41    1
    46     8    42    1
    47     8    43    1
    48     9    44    1
    49     9    45    1
    50    16    46    1
    51    16    47    1
    52    19    48    1
    53    32    49    1
    54    32    50    1
    55    33    51    1
    56    33    52    1
    57    14    53    1
    58    23    54    1
    59    24    55    1
    60    25    56    1
    61    26    57    1
    62    28    58    1
    63    29    59    1
@<TRIPOS>MOLECULE
mol92_1_17
 59 63 0 0 0
SMALL
USER_CHARGES
****
VDW energy = -87.42
@<TRIPOS>ATOM
   1 N1        4.8233    -0.0872     3.3214  N.pl3   1  <O>11      -0.2515
   2 C1        4.2396     0.9903     4.0983  C.2     1  <O>11       0.2546
   3 C2        5.0243     2.1387     4.4305  C.2     1  <O>11       0.0151
   4 C3        4.9430     3.1730     5.0070  C.3     1  <O>11      -0.0202
   5 C4        6.1150     2.5820     4.2810  C.3     1  <O>11      -0.0202
   6 N2        2.8690     0.9030     4.5350  N.pl3   1  <O>11      -0.2241
   7 C5        1.7826     0.9140     3.5147  C.3     1  <O>11       0.0818
   8 C6        0.6091    -0.0000     3.8584  C.3     1  <O>11      -0.0009
   9 C7        1.0046    -1.4480     4.1360  C.3     1  <O>11       0.0185
  10 N3        2.0673    -1.5880     5.1684  N.am    1  <O>11      -0.2937
  11 C8        3.0830    -2.4895     5.1132  C.2     1  <O>11       0.2495
  12 O1        3.1676    -3.2584     4.1682  O.2     1  <O>11      -0.2699
  13 C9        4.0724    -2.5384     6.1831  C.ar    1  <O>11       0.0723
  14 C10       5.2372    -1.7566     6.1076  C.ar    1  <O>11      -0.0433
  15 C11       6.1915    -1.8129     7.1288  C.ar    1  <O>11      -0.0406
  16 C12       7.4118    -0.9887     7.0367  C.3     1  <O>11       0.0171
  17 C13       8.4949    -1.6182     7.8365  C.ar    1  <O>11       0.0736
  18 N4        8.3985    -2.9650     8.2055  N.ar    1  <O>11      -0.1750
  19 N5        9.3236    -3.5220     9.0197  N.ar    1  <O>11      -0.2425
  20 C14      10.3545    -2.7642     9.4625  C.ar    1  <O>11       0.2725
  21 O2       11.2264    -3.3771    10.3829  O.2     1  <O>11      -0.2658
  22 C15      10.5810    -1.4410     9.0581  C.ar    1  <O>11       0.0496
  23 C16      11.6870    -0.6663     9.4728  C.ar    1  <O>11      -0.0487
  24 C17      11.8347     0.6571     9.0575  C.ar    1  <O>11      -0.0610
  25 C18      10.8799     1.2336     8.2276  C.ar    1  <O>11      -0.0611
  26 C19       9.7771     0.4856     7.8120  C.ar    1  <O>11      -0.0521
  27 C20       9.6144    -0.8587     8.2168  C.ar    1  <O>11       0.0106
  28 C21       5.9920    -2.6455     8.2335  C.ar    1  <O>11      -0.0555
  29 C22       4.8286    -3.4198     8.3107  C.ar    1  <O>11      -0.0254
  30 C23       3.8695    -3.3687     7.2978  C.ar    1  <O>11       0.1355
  31 F1        2.7272    -4.1219     7.3776  F       1  <O>11      -0.2047
  32 C24       1.9432    -0.6367     6.3159  C.3     1  <O>11       0.0510
  33 C25       2.3907     0.7988     5.9472  C.3     1  <O>11       0.0960
  34 H1        4.2635    -0.9063     3.0844  H       1  <O>11       0.2881
  35 H2        5.7933    -0.0256     3.0122  H       1  <O>11       0.2881
  36 H3        4.3825     4.0115     4.5936  H       1  <O>11       0.0316
  37 H4        4.9117     3.2158     6.0957  H       1  <O>11       0.0316
  38 H5        6.4425     2.9727     3.3176  H       1  <O>11       0.0316
  39 H6        6.9717     2.1770     4.8196  H       1  <O>11       0.0316
  40 H7        1.4084     1.9329     3.4225  H       1  <O>11       0.0726
  41 H8        2.2019     0.5912     2.5619  H       1  <O>11       0.0726
  42 H9        0.1162     0.3951     4.7464  H       1  <O>11       0.0317
  43 H10      -0.0882     0.0098     3.0212  H       1  <O>11       0.0317
  44 H11       0.1208    -1.9870     4.4760  H       1  <O>11       0.0466
  45 H12       1.3653    -1.8900     3.2075  H       1  <O>11       0.0466
  46 H13       7.2064     0.0092     7.4241  H       1  <O>11       0.0377
  47 H14       7.7240    -0.9175     5.9942  H       1  <O>11       0.0377
  48 H15       9.2458    -4.4913     9.2942  H       1  <O>11       0.1921
  49 H16       0.9018    -0.6064     6.6338  H       1  <O>11       0.0502
  50 H17       2.5644    -0.9956     7.1365  H       1  <O>11       0.0502
  51 H18       1.5458     1.4733     6.0813  H       1  <O>11       0.0742
  52 H19       3.2014     1.0937     6.6137  H       1  <O>11       0.0742
  53 H20       5.3894    -1.1384     5.2954  H       1  <O>11       0.0629
  54 H21      12.3970    -1.0861    10.0929  H       1  <O>11       0.0625
  55 H22      12.6514     1.2074     9.3658  H       1  <O>11       0.0618
  56 H23      10.9863     2.2127     7.9193  H       1  <O>11       0.0618
  57 H24       9.0696     0.9209     7.1997  H       1  <O>11       0.0624
  58 H25       6.6967    -2.6890     8.9861  H       1  <O>11       0.0621
  59 H26       4.6783    -4.0353     9.1254  H       1  <O>11       0.0646
@<TRIPOS>BOND
     1     1     2    1
     2     2     3    2
     3     3     4    1
     4     4     5    1
     5     3     5    1
     6     2     6    1
     7     6     7    1
     8     7     8    1
     9     8     9    1
    10     9    10    1
    11    10    11   am
    12    11    12    2
    13    11    13    1
    14    13    14   ar
    15    14    15   ar
    16    15    16    1
    17    16    17    1
    18    17    18   ar
    19    18    19   ar
    20    19    20   ar
    21    20    21    2
    22    20    22   ar
    23    22    23   ar
    24    23    24   ar
    25    24    25   ar
    26    25    26   ar
    27    26    27   ar
    28    17    27   ar
    29    22    27   ar
    30    15    28   ar
    31    28    29   ar
    32    29    30   ar
    33    13    30   ar
    34    30    31    1
    35    10    32    1
    36    32    33    1
    37     6    33    1
    38     1    34    1
    39     1    35    1
    40     4    36    1
    41     4    37    1
    42     5    38    1
    43     5    39    1
    44     7    40    1
    45     7    41    1
    46     8    42    1
    47     8    43    1
    48     9    44    1
    49     9    45    1
    50    16    46    1
    51    16    47    1
    52    19    48    1
    53    32    49    1
    54    32    50    1
    55    33    51    1
    56    33    52    1
    57    14    53    1
    58    23    54    1
    59    24    55    1
    60    25    56    1
    61    26    57    1
    62    28    58    1
    63    29    59    1
@<TRIPOS>MOLECULE
mol92_1_18
 59 63 0 0 0
SMALL
USER_CHARGES
****
VDW energy = -87.10
@<TRIPOS>ATOM
   1 N1        4.8233    -0.0872     3.3214  N.pl3   1  <O>11      -0.2515
   2 C1        4.2396     0.9903     4.0983  C.2     1  <O>11       0.2546
   3 C2        5.0243     2.1387     4.4305  C.2     1  <O>11       0.0151
   4 C3        4.9430     3.1730     5.0070  C.3     1  <O>11      -0.0202
   5 C4        6.1150     2.5820     4.2810  C.3     1  <O>11      -0.0202
   6 N2        2.8690     0.9030     4.5350  N.pl3   1  <O>11      -0.2241
   7 C5        1.7936     1.4419     3.6549  C.3     1  <O>11       0.0818
   8 C6        0.5117     0.6132     3.6752  C.3     1  <O>11      -0.0009
   9 C7        0.7165    -0.8638     3.3486  C.3     1  <O>11       0.0185
  10 N3        1.7517    -1.5224     4.1909  N.am    1  <O>11      -0.2937
  11 C8        2.6424    -2.4443     3.7392  C.2     1  <O>11       0.2495
  12 O1        2.6273    -2.7860     2.5668  O.2     1  <O>11      -0.2699
  13 C9        3.6166    -3.0257     4.6551  C.ar    1  <O>11       0.0723
  14 C10       4.8727    -2.4216     4.8307  C.ar    1  <O>11      -0.0433
  15 C11       5.8113    -2.9864     5.7007  C.ar    1  <O>11      -0.0406
  16 C12       7.1279    -2.3438     5.8748  C.3     1  <O>11       0.0171
  17 C13       7.0547    -1.3602     6.9866  C.ar    1  <O>11       0.0736
  18 N4        6.0079    -1.4298     7.9133  N.ar    1  <O>11      -0.1750
  19 N5        5.8704    -0.4806     8.8667  N.ar    1  <O>11      -0.2425
  20 C14       6.7675     0.5319     8.9238  C.ar    1  <O>11       0.2725
  21 O2        6.5111     1.5369     9.8762  O.2     1  <O>11      -0.2658
  22 C15       7.9002     0.6187     8.1022  C.ar    1  <O>11       0.0496
  23 C16       8.8690     1.6423     8.1975  C.ar    1  <O>11      -0.0487
  24 C17       9.9568     1.6869     7.3255  C.ar    1  <O>11      -0.0610
  25 C18      10.0947     0.7167     6.3395  C.ar    1  <O>11      -0.0611
  26 C19       9.1445    -0.2994     6.2261  C.ar    1  <O>11      -0.0521
  27 C20       8.0396    -0.3649     7.1050  C.ar    1  <O>11       0.0106
  28 C21       5.5052    -4.1548     6.4040  C.ar    1  <O>11      -0.0555
  29 C22       4.2515    -4.7529     6.2327  C.ar    1  <O>11      -0.0254
  30 C23       3.3075    -4.1955     5.3686  C.ar    1  <O>11       0.1355
  31 F1        2.0774    -4.7778     5.2069  F       1  <O>11      -0.2047
  32 C24       1.7511    -1.0888     5.6224  C.3     1  <O>11       0.0510
  33 C25       2.3805     0.3121     5.8180  C.3     1  <O>11       0.0960
  34 H1        4.2635    -0.9063     3.0844  H       1  <O>11       0.2881
  35 H2        5.7933    -0.0256     3.0122  H       1  <O>11       0.2881
  36 H3        4.3825     4.0115     4.5936  H       1  <O>11       0.0316
  37 H4        4.9117     3.2158     6.0957  H       1  <O>11       0.0316
  38 H5        6.4425     2.9727     3.3176  H       1  <O>11       0.0316
  39 H6        6.9717     2.1770     4.8196  H       1  <O>11       0.0316
  40 H7        1.5544     2.4523     3.9844  H       1  <O>11       0.0726
  41 H8        2.1682     1.4704     2.6318  H       1  <O>11       0.0726
  42 H9        0.0735     0.6849     4.6704  H       1  <O>11       0.0317
  43 H10      -0.1781     1.0330     2.9436  H       1  <O>11       0.0317
  44 H11      -0.2298    -1.3834     3.4965  H       1  <O>11       0.0466
  45 H12       1.0175    -0.9466     2.3045  H       1  <O>11       0.0466
  46 H13       7.4070    -1.8318     4.9538  H       1  <O>11       0.0377
  47 H14       7.8744    -3.1033     6.1098  H       1  <O>11       0.0377
  48 H15       5.1074    -0.5263     9.5275  H       1  <O>11       0.1921
  49 H16       0.7222    -1.0615     5.9789  H       1  <O>11       0.0502
  50 H17       2.3202    -1.8115     6.2071  H       1  <O>11       0.0502
  51 H18       1.6299     0.9757     6.2457  H       1  <O>11       0.0742
  52 H19       3.2222     0.2237     6.5051  H       1  <O>11       0.0742
  53 H20       5.1040    -1.5576     4.3157  H       1  <O>11       0.0629
  54 H21       8.7703     2.3688     8.9238  H       1  <O>11       0.0625
  55 H22      10.6582     2.4390     7.4122  H       1  <O>11       0.0618
  56 H23      10.8982     0.7476     5.6926  H       1  <O>11       0.0618
  57 H24       9.2502    -1.0139     5.4890  H       1  <O>11       0.0624
  58 H25       6.1980    -4.5731     7.0443  H       1  <O>11       0.0621
  59 H26       4.0224    -5.6155     6.7510  H       1  <O>11       0.0646
@<TRIPOS>BOND
     1     1     2    1
     2     2     3    2
     3     3     4    1
     4     4     5    1
     5     3     5    1
     6     2     6    1
     7     6     7    1
     8     7     8    1
     9     8     9    1
    10     9    10    1
    11    10    11   am
    12    11    12    2
    13    11    13    1
    14    13    14   ar
    15    14    15   ar
    16    15    16    1
    17    16    17    1
    18    17    18   ar
    19    18    19   ar
    20    19    20   ar
    21    20    21    2
    22    20    22   ar
    23    22    23   ar
    24    23    24   ar
    25    24    25   ar
    26    25    26   ar
    27    26    27   ar
    28    17    27   ar
    29    22    27   ar
    30    15    28   ar
    31    28    29   ar
    32    29    30   ar
    33    13    30   ar
    34    30    31    1
    35    10    32    1
    36    32    33    1
    37     6    33    1
    38     1    34    1
    39     1    35    1
    40     4    36    1
    41     4    37    1
    42     5    38    1
    43     5    39    1
    44     7    40    1
    45     7    41    1
    46     8    42    1
    47     8    43    1
    48     9    44    1
    49     9    45    1
    50    16    46    1
    51    16    47    1
    52    19    48    1
    53    32    49    1
    54    32    50    1
    55    33    51    1
    56    33    52    1
    57    14    53    1
    58    23    54    1
    59    24    55    1
    60    25    56    1
    61    26    57    1
    62    28    58    1
    63    29    59    1
@<TRIPOS>MOLECULE
mol92_1_19
 59 63 0 0 0
SMALL
USER_CHARGES
****
VDW energy = -86.55
@<TRIPOS>ATOM
   1 N1        4.8233    -0.0872     3.3214  N.pl3   1  <O>11      -0.2515
   2 C1        4.2396     0.9903     4.0983  C.2     1  <O>11       0.2546
   3 C2        5.0243     2.1387     4.4305  C.2     1  <O>11       0.0151
   4 C3        4.9430     3.1730     5.0070  C.3     1  <O>11      -0.0202
   5 C4        6.1150     2.5820     4.2810  C.3     1  <O>11      -0.0202
   6 N2        2.8690     0.9030     4.5350  N.pl3   1  <O>11      -0.2241
   7 C5        2.2910     2.0220     5.3319  C.3     1  <O>11       0.0818
   8 C6        0.8280     2.3140     5.0079  C.3     1  <O>11      -0.0009
   9 C7        0.5550     2.5749     3.5289  C.3     1  <O>11       0.0185
  10 N3        1.0620     1.5018     2.6310  N.am    1  <O>11      -0.2937
  11 C8        1.6380     1.7178     1.4189  C.2     1  <O>11       0.2495
  12 O1        1.7680     2.8567     0.9979  O.2     1  <O>11      -0.2699
  13 C9        2.1010     0.5887     0.6210  C.ar    1  <O>11       0.0723
  14 C10       3.4151     0.1124     0.7625  C.ar    1  <O>11      -0.0433
  15 C11       3.8623    -0.9634    -0.0118  C.ar    1  <O>11      -0.0406
  16 C12       5.2453    -1.4529     0.1444  C.3     1  <O>11       0.0171
  17 C13       6.1365    -0.7246    -0.7960  C.ar    1  <O>11       0.0736
  18 N4        6.7613     0.4606    -0.3903  N.ar    1  <O>11      -0.1750
  19 N5        7.4900     1.1878    -1.2673  N.ar    1  <O>11      -0.2425
  20 C14       7.6210     0.7475    -2.5409  C.ar    1  <O>11       0.2725
  21 O2        8.3096     1.5995    -3.4257  O.2     1  <O>11      -0.2658
  22 C15       7.1161    -0.4775    -2.9993  C.ar    1  <O>11       0.0496
  23 C16       7.3002    -0.9667    -4.3117  C.ar    1  <O>11      -0.0487
  24 C17       6.7422    -2.1808    -4.7119  C.ar    1  <O>11      -0.0610
  25 C18       5.9856    -2.9251    -3.8140  C.ar    1  <O>11      -0.0611
  26 C19       5.7878    -2.4552    -2.5147  C.ar    1  <O>11      -0.0521
  27 C20       6.3513    -1.2310    -2.0891  C.ar    1  <O>11       0.0106
  28 C21       3.0040    -1.5743    -0.9302  C.ar    1  <O>11      -0.0555
  29 C22       1.6933    -1.1028    -1.0665  C.ar    1  <O>11      -0.0254
  30 C23       1.2372    -0.0314    -0.2967  C.ar    1  <O>11       0.1355
  31 F1       -0.0487     0.4250    -0.4257  F       1  <O>11      -0.2047
  32 C24       0.8920     0.1159     3.1670  C.3     1  <O>11       0.0510
  33 C25       1.9220    -0.2230     4.2721  C.3     1  <O>11       0.0960
  34 H1        4.2635    -0.9063     3.0844  H       1  <O>11       0.2881
  35 H2        5.7933    -0.0256     3.0122  H       1  <O>11       0.2881
  36 H3        4.3825     4.0115     4.5936  H       1  <O>11       0.0316
  37 H4        4.9117     3.2158     6.0957  H       1  <O>11       0.0316
  38 H5        6.4425     2.9727     3.3176  H       1  <O>11       0.0316
  39 H6        6.9717     2.1770     4.8196  H       1  <O>11       0.0316
  40 H7        2.3640     1.7651     6.3879  H       1  <O>11       0.0726
  41 H8        2.8730     2.9220     5.1339  H       1  <O>11       0.0726
  42 H9        0.2310     1.4570     5.3190  H       1  <O>11       0.0317
  43 H10       0.5219     3.1940     5.5728  H       1  <O>11       0.0317
  44 H11      -0.5220     2.6619     3.3879  H       1  <O>11       0.0466
  45 H12       1.0350     3.5129     3.2508  H       1  <O>11       0.0466
  46 H13       5.2800    -2.5202    -0.0742  H       1  <O>11       0.0377
  47 H14       5.5782    -1.2800     1.1685  H       1  <O>11       0.0377
  48 H15       7.9306     2.0490    -0.9755  H       1  <O>11       0.1921
  49 H16      -0.1100     0.0229     3.5840  H       1  <O>11       0.0502
  50 H17       1.0130    -0.5932     2.3481  H       1  <O>11       0.0502
  51 H18       1.3850    -0.4510     5.1921  H       1  <O>11       0.0742
  52 H19       2.4950    -1.0960     3.9591  H       1  <O>11       0.0742
  53 H20       4.0531     0.5580     1.4403  H       1  <O>11       0.0629
  54 H21       7.8565    -0.4170    -4.9851  H       1  <O>11       0.0625
  55 H22       6.8907    -2.5260    -5.6731  H       1  <O>11       0.0618
  56 H23       5.5710    -3.8234    -4.1076  H       1  <O>11       0.0618
  57 H24       5.2213    -3.0104    -1.8544  H       1  <O>11       0.0624
  58 H25       3.3341    -2.3666    -1.5032  H       1  <O>11       0.0621
  59 H26       1.0570    -1.5522    -1.7436  H       1  <O>11       0.0646
@<TRIPOS>BOND
     1     1     2    1
     2     2     3    2
     3     3     4    1
     4     4     5    1
     5     3     5    1
     6     2     6    1
     7     6     7    1
     8     7     8    1
     9     8     9    1
    10     9    10    1
    11    10    11   am
    12    11    12    2
    13    11    13    1
    14    13    14   ar
    15    14    15   ar
    16    15    16    1
    17    16    17    1
    18    17    18   ar
    19    18    19   ar
    20    19    20   ar
    21    20    21    2
    22    20    22   ar
    23    22    23   ar
    24    23    24   ar
    25    24    25   ar
    26    25    26   ar
    27    26    27   ar
    28    17    27   ar
    29    22    27   ar
    30    15    28   ar
    31    28    29   ar
    32    29    30   ar
    33    13    30   ar
    34    30    31    1
    35    10    32    1
    36    32    33    1
    37     6    33    1
    38     1    34    1
    39     1    35    1
    40     4    36    1
    41     4    37    1
    42     5    38    1
    43     5    39    1
    44     7    40    1
    45     7    41    1
    46     8    42    1
    47     8    43    1
    48     9    44    1
    49     9    45    1
    50    16    46    1
    51    16    47    1
    52    19    48    1
    53    32    49    1
    54    32    50    1
    55    33    51    1
    56    33    52    1
    57    14    53    1
    58    23    54    1
    59    24    55    1
    60    25    56    1
    61    26    57    1
    62    28    58    1
    63    29    59    1
@<TRIPOS>MOLECULE
mol92_1_20
 59 63 0 0 0
SMALL
USER_CHARGES
****
VDW energy = -85.48
@<TRIPOS>ATOM
   1 N1        4.8233    -0.0872     3.3214  N.pl3   1  <O>11      -0.2515
   2 C1        4.2396     0.9903     4.0983  C.2     1  <O>11       0.2546
   3 C2        5.0243     2.1387     4.4305  C.2     1  <O>11       0.0151
   4 C3        4.9430     3.1730     5.0070  C.3     1  <O>11      -0.0202
   5 C4        6.1150     2.5820     4.2810  C.3     1  <O>11      -0.0202
   6 N2        2.8690     0.9030     4.5350  N.pl3   1  <O>11      -0.2241
   7 C5        2.2910     2.0220     5.3319  C.3     1  <O>11       0.0818
   8 C6        0.8280     2.3140     5.0079  C.3     1  <O>11      -0.0009
   9 C7        0.5550     2.5749     3.5289  C.3     1  <O>11       0.0185
  10 N3        1.0620     1.5018     2.6310  N.am    1  <O>11      -0.2937
  11 C8        1.6380     1.7178     1.4189  C.2     1  <O>11       0.2495
  12 O1        1.7680     2.8567     0.9979  O.2     1  <O>11      -0.2699
  13 C9        2.1010     0.5887     0.6210  C.ar    1  <O>11       0.0723
  14 C10       3.4151     0.1124     0.7625  C.ar    1  <O>11      -0.0433
  15 C11       3.8623    -0.9634    -0.0118  C.ar    1  <O>11      -0.0406
  16 C12       5.2453    -1.4529     0.1444  C.3     1  <O>11       0.0171
  17 C13       6.1967    -0.3562    -0.1738  C.ar    1  <O>11       0.0736
  18 N4        5.7551     0.9721    -0.1793  N.ar    1  <O>11      -0.1750
  19 N5        6.5820     1.9691    -0.5682  N.ar    1  <O>11      -0.2425
  20 C14       7.8492     1.6686    -0.9386  C.ar    1  <O>11       0.2725
  21 O2        8.6253     2.7384    -1.4243  O.2     1  <O>11      -0.2658
  22 C15       8.4004     0.3817    -0.8626  C.ar    1  <O>11       0.0496
  23 C16       9.7389     0.0747    -1.1934  C.ar    1  <O>11      -0.0487
  24 C17      10.2145    -1.2350    -1.1261  C.ar    1  <O>11      -0.0610
  25 C18       9.3632    -2.2620    -0.7349  C.ar    1  <O>11      -0.0611
  26 C19       8.0356    -1.9789    -0.4097  C.ar    1  <O>11      -0.0521
  27 C20       7.5380    -0.6573    -0.4651  C.ar    1  <O>11       0.0106
  28 C21       3.0040    -1.5743    -0.9302  C.ar    1  <O>11      -0.0555
  29 C22       1.6933    -1.1028    -1.0665  C.ar    1  <O>11      -0.0254
  30 C23       1.2372    -0.0314    -0.2967  C.ar    1  <O>11       0.1355
  31 F1       -0.0487     0.4250    -0.4257  F       1  <O>11      -0.2047
  32 C24       0.8920     0.1159     3.1670  C.3     1  <O>11       0.0510
  33 C25       1.9220    -0.2230     4.2721  C.3     1  <O>11       0.0960
  34 H1        4.2635    -0.9063     3.0844  H       1  <O>11       0.2881
  35 H2        5.7933    -0.0256     3.0122  H       1  <O>11       0.2881
  36 H3        4.3825     4.0115     4.5936  H       1  <O>11       0.0316
  37 H4        4.9117     3.2158     6.0957  H       1  <O>11       0.0316
  38 H5        6.4425     2.9727     3.3176  H       1  <O>11       0.0316
  39 H6        6.9717     2.1770     4.8196  H       1  <O>11       0.0316
  40 H7        2.3640     1.7651     6.3879  H       1  <O>11       0.0726
  41 H8        2.8730     2.9220     5.1339  H       1  <O>11       0.0726
  42 H9        0.2310     1.4570     5.3190  H       1  <O>11       0.0317
  43 H10       0.5219     3.1940     5.5728  H       1  <O>11       0.0317
  44 H11      -0.5220     2.6619     3.3879  H       1  <O>11       0.0466
  45 H12       1.0350     3.5129     3.2508  H       1  <O>11       0.0466
  46 H13       5.4137    -2.2891    -0.5343  H       1  <O>11       0.0377
  47 H14       5.4002    -1.7816     1.1727  H       1  <O>11       0.0377
  48 H15       6.2578     2.9259    -0.5825  H       1  <O>11       0.1921
  49 H16      -0.1100     0.0229     3.5840  H       1  <O>11       0.0502
  50 H17       1.0130    -0.5932     2.3481  H       1  <O>11       0.0502
  51 H18       1.3850    -0.4510     5.1921  H       1  <O>11       0.0742
  52 H19       2.4950    -1.0960     3.9591  H       1  <O>11       0.0742
  53 H20       4.0531     0.5580     1.4403  H       1  <O>11       0.0629
  54 H21      10.3752     0.8313    -1.4895  H       1  <O>11       0.0625
  55 H22      11.1967    -1.4411    -1.3664  H       1  <O>11       0.0618
  56 H23       9.7121    -3.2320    -0.6849  H       1  <O>11       0.0618
  57 H24       7.4077    -2.7466    -0.1245  H       1  <O>11       0.0624
  58 H25       3.3341    -2.3666    -1.5032  H       1  <O>11       0.0621
  59 H26       1.0570    -1.5522    -1.7436  H       1  <O>11       0.0646
@<TRIPOS>BOND
     1     1     2    1
     2     2     3    2
     3     3     4    1
     4     4     5    1
     5     3     5    1
     6     2     6    1
     7     6     7    1
     8     7     8    1
     9     8     9    1
    10     9    10    1
    11    10    11   am
    12    11    12    2
    13    11    13    1
    14    13    14   ar
    15    14    15   ar
    16    15    16    1
    17    16    17    1
    18    17    18   ar
    19    18    19   ar
    20    19    20   ar
    21    20    21    2
    22    20    22   ar
    23    22    23   ar
    24    23    24   ar
    25    24    25   ar
    26    25    26   ar
    27    26    27   ar
    28    17    27   ar
    29    22    27   ar
    30    15    28   ar
    31    28    29   ar
    32    29    30   ar
    33    13    30   ar
    34    30    31    1
    35    10    32    1
    36    32    33    1
    37     6    33    1
    38     1    34    1
    39     1    35    1
    40     4    36    1
    41     4    37    1
    42     5    38    1
    43     5    39    1
    44     7    40    1
    45     7    41    1
    46     8    42    1
    47     8    43    1
    48     9    44    1
    49     9    45    1
    50    16    46    1
    51    16    47    1
    52    19    48    1
    53    32    49    1
    54    32    50    1
    55    33    51    1
    56    33    52    1
    57    14    53    1
    58    23    54    1
    59    24    55    1
    60    25    56    1
    61    26    57    1
    62    28    58    1
    63    29    59    1
@<TRIPOS>MOLECULE
mol92_1_21
 59 63 0 0 0
SMALL
USER_CHARGES
****
VDW energy = -85.09
@<TRIPOS>ATOM
   1 N1        4.8233    -0.0872     3.3214  N.pl3   1  <O>11      -0.2515
   2 C1        4.2396     0.9903     4.0983  C.2     1  <O>11       0.2546
   3 C2        5.0243     2.1387     4.4305  C.2     1  <O>11       0.0151
   4 C3        4.9430     3.1730     5.0070  C.3     1  <O>11      -0.0202
   5 C4        6.1150     2.5820     4.2810  C.3     1  <O>11      -0.0202
   6 N2        2.8690     0.9030     4.5350  N.pl3   1  <O>11      -0.2241
   7 C5        2.2910     2.0220     5.3319  C.3     1  <O>11       0.0818
   8 C6        0.8280     2.3140     5.0079  C.3     1  <O>11      -0.0009
   9 C7        0.5550     2.5749     3.5289  C.3     1  <O>11       0.0185
  10 N3        1.0620     1.5018     2.6310  N.am    1  <O>11      -0.2937
  11 C8        1.6380     1.7178     1.4189  C.2     1  <O>11       0.2495
  12 O1        1.7680     2.8567     0.9979  O.2     1  <O>11      -0.2699
  13 C9        2.1010     0.5887     0.6210  C.ar    1  <O>11       0.0723
  14 C10       3.4151     0.1124     0.7625  C.ar    1  <O>11      -0.0433
  15 C11       3.8623    -0.9634    -0.0118  C.ar    1  <O>11      -0.0406
  16 C12       5.2453    -1.4529     0.1444  C.3     1  <O>11       0.0171
  17 C13       5.6767    -2.1239    -1.1096  C.ar    1  <O>11       0.0736
  18 N4        5.4552    -3.4956    -1.2799  N.ar    1  <O>11      -0.1750
  19 N5        5.9348    -4.1388    -2.3686  N.ar    1  <O>11      -0.2425
  20 C14       6.6202    -3.4362    -3.3012  C.ar    1  <O>11       0.2725
  21 O2        7.1747    -4.1826    -4.3587  O.2     1  <O>11      -0.2658
  22 C15       6.7956    -2.0459    -3.2584  C.ar    1  <O>11       0.0496
  23 C16       7.4602    -1.3021    -4.2587  C.ar    1  <O>11      -0.0487
  24 C17       7.6283     0.0773    -4.1375  C.ar    1  <O>11      -0.0610
  25 C18       7.1434     0.7384    -3.0147  C.ar    1  <O>11      -0.0611
  26 C19       6.4892     0.0195    -2.0130  C.ar    1  <O>11      -0.0521
  27 C20       6.3032    -1.3773    -2.1219  C.ar    1  <O>11       0.0106
  28 C21       3.0040    -1.5743    -0.9302  C.ar    1  <O>11      -0.0555
  29 C22       1.6933    -1.1028    -1.0665  C.ar    1  <O>11      -0.0254
  30 C23       1.2372    -0.0314    -0.2967  C.ar    1  <O>11       0.1355
  31 F1       -0.0487     0.4250    -0.4257  F       1  <O>11      -0.2047
  32 C24       0.8920     0.1159     3.1670  C.3     1  <O>11       0.0510
  33 C25       1.9220    -0.2230     4.2721  C.3     1  <O>11       0.0960
  34 H1        4.2635    -0.9063     3.0844  H       1  <O>11       0.2881
  35 H2        5.7933    -0.0256     3.0122  H       1  <O>11       0.2881
  36 H3        4.3825     4.0115     4.5936  H       1  <O>11       0.0316
  37 H4        4.9117     3.2158     6.0957  H       1  <O>11       0.0316
  38 H5        6.4425     2.9727     3.3176  H       1  <O>11       0.0316
  39 H6        6.9717     2.1770     4.8196  H       1  <O>11       0.0316
  40 H7        2.3640     1.7651     6.3879  H       1  <O>11       0.0726
  41 H8        2.8730     2.9220     5.1339  H       1  <O>11       0.0726
  42 H9        0.2310     1.4570     5.3190  H       1  <O>11       0.0317
  43 H10       0.5219     3.1940     5.5728  H       1  <O>11       0.0317
  44 H11      -0.5220     2.6619     3.3879  H       1  <O>11       0.0466
  45 H12       1.0350     3.5129     3.2508  H       1  <O>11       0.0466
  46 H13       5.2885    -2.1628     0.9705  H       1  <O>11       0.0377
  47 H14       5.9070    -0.6112     0.3526  H       1  <O>11       0.0377
  48 H15       5.7838    -5.1311    -2.4840  H       1  <O>11       0.1921
  49 H16      -0.1100     0.0229     3.5840  H       1  <O>11       0.0502
  50 H17       1.0130    -0.5932     2.3481  H       1  <O>11       0.0502
  51 H18       1.3850    -0.4510     5.1921  H       1  <O>11       0.0742
  52 H19       2.4950    -1.0960     3.9591  H       1  <O>11       0.0742
  53 H20       4.0531     0.5580     1.4403  H       1  <O>11       0.0629
  54 H21       7.8271    -1.7870    -5.0925  H       1  <O>11       0.0625
  55 H22       8.1119     0.6062    -4.8800  H       1  <O>11       0.0618
  56 H23       7.2670     1.7588    -2.9221  H       1  <O>11       0.0618
  57 H24       6.1357     0.5156    -1.1800  H       1  <O>11       0.0624
  58 H25       3.3341    -2.3666    -1.5032  H       1  <O>11       0.0621
  59 H26       1.0570    -1.5522    -1.7436  H       1  <O>11       0.0646
@<TRIPOS>BOND
     1     1     2    1
     2     2     3    2
     3     3     4    1
     4     4     5    1
     5     3     5    1
     6     2     6    1
     7     6     7    1
     8     7     8    1
     9     8     9    1
    10     9    10    1
    11    10    11   am
    12    11    12    2
    13    11    13    1
    14    13    14   ar
    15    14    15   ar
    16    15    16    1
    17    16    17    1
    18    17    18   ar
    19    18    19   ar
    20    19    20   ar
    21    20    21    2
    22    20    22   ar
    23    22    23   ar
    24    23    24   ar
    25    24    25   ar
    26    25    26   ar
    27    26    27   ar
    28    17    27   ar
    29    22    27   ar
    30    15    28   ar
    31    28    29   ar
    32    29    30   ar
    33    13    30   ar
    34    30    31    1
    35    10    32    1
    36    32    33    1
    37     6    33    1
    38     1    34    1
    39     1    35    1
    40     4    36    1
    41     4    37    1
    42     5    38    1
    43     5    39    1
    44     7    40    1
    45     7    41    1
    46     8    42    1
    47     8    43    1
    48     9    44    1
    49     9    45    1
    50    16    46    1
    51    16    47    1
    52    19    48    1
    53    32    49    1
    54    32    50    1
    55    33    51    1
    56    33    52    1
    57    14    53    1
    58    23    54    1
    59    24    55    1
    60    25    56    1
    61    26    57    1
    62    28    58    1
    63    29    59    1
@<TRIPOS>MOLECULE
mol92_1_22
 59 63 0 0 0
SMALL
USER_CHARGES
****
VDW energy = -84.60
@<TRIPOS>ATOM
   1 N1        4.8233    -0.0872     3.3214  N.pl3   1  <O>11      -0.2515
   2 C1        4.2396     0.9903     4.0983  C.2     1  <O>11       0.2546
   3 C2        5.0243     2.1387     4.4305  C.2     1  <O>11       0.0151
   4 C3        4.9430     3.1730     5.0070  C.3     1  <O>11      -0.0202
   5 C4        6.1150     2.5820     4.2810  C.3     1  <O>11      -0.0202
   6 N2        2.8690     0.9030     4.5350  N.pl3   1  <O>11      -0.2241
   7 C5        1.7826     0.9140     3.5147  C.3     1  <O>11       0.0818
   8 C6        0.6091    -0.0000     3.8584  C.3     1  <O>11      -0.0009
   9 C7        1.0046    -1.4480     4.1360  C.3     1  <O>11       0.0185
  10 N3        2.0673    -1.5880     5.1684  N.am    1  <O>11      -0.2937
  11 C8        3.0830    -2.4895     5.1132  C.2     1  <O>11       0.2495
  12 O1        3.1676    -3.2584     4.1682  O.2     1  <O>11      -0.2699
  13 C9        4.0724    -2.5384     6.1831  C.ar    1  <O>11       0.0723
  14 C10       3.8694    -3.3678     7.2987  C.ar    1  <O>11      -0.0433
  15 C11       4.8134    -3.4055     8.3303  C.ar    1  <O>11      -0.0406
  16 C12       4.5876    -4.2789     9.4978  C.3     1  <O>11       0.0171
  17 C13       5.3270    -3.7396    10.6689  C.ar    1  <O>11       0.0736
  18 N4        4.7044    -2.8271    11.5285  N.ar    1  <O>11      -0.1750
  19 N5        5.3976    -2.2494    12.5359  N.ar    1  <O>11      -0.2425
  20 C14       6.6996    -2.5760    12.7128  C.ar    1  <O>11       0.2725
  21 O2        7.3877    -1.8672    13.7163  O.2     1  <O>11      -0.2658
  22 C15       7.3677    -3.5549    11.9638  C.ar    1  <O>11       0.0496
  23 C16       8.7092    -3.9392    12.1835  C.ar    1  <O>11      -0.0487
  24 C17       9.3238    -4.8987    11.3790  C.ar    1  <O>11      -0.0610
  25 C18       8.6150    -5.4870    10.3377  C.ar    1  <O>11      -0.0611
  26 C19       7.2903    -5.1159    10.1015  C.ar    1  <O>11      -0.0521
  27 C20       6.6488    -4.1509    10.9106  C.ar    1  <O>11       0.0106
  28 C21       5.9672    -2.6201     8.2576  C.ar    1  <O>11      -0.0555
  29 C22       6.1714    -1.7983     7.1431  C.ar    1  <O>11      -0.0254
  30 C23       5.2363    -1.7557     6.1076  C.ar    1  <O>11       0.1355
  31 F1        5.4405    -0.9561     5.0134  F       1  <O>11      -0.2047
  32 C24       1.9432    -0.6367     6.3159  C.3     1  <O>11       0.0510
  33 C25       2.3907     0.7988     5.9472  C.3     1  <O>11       0.0960
  34 H1        4.2635    -0.9063     3.0844  H       1  <O>11       0.2881
  35 H2        5.7933    -0.0256     3.0122  H       1  <O>11       0.2881
  36 H3        4.3825     4.0115     4.5936  H       1  <O>11       0.0316
  37 H4        4.9117     3.2158     6.0957  H       1  <O>11       0.0316
  38 H5        6.4425     2.9727     3.3176  H       1  <O>11       0.0316
  39 H6        6.9717     2.1770     4.8196  H       1  <O>11       0.0316
  40 H7        1.4084     1.9329     3.4225  H       1  <O>11       0.0726
  41 H8        2.2019     0.5912     2.5619  H       1  <O>11       0.0726
  42 H9        0.1162     0.3951     4.7464  H       1  <O>11       0.0317
  43 H10      -0.0882     0.0098     3.0212  H       1  <O>11       0.0317
  44 H11       0.1208    -1.9870     4.4760  H       1  <O>11       0.0466
  45 H12       1.3653    -1.8900     3.2075  H       1  <O>11       0.0466
  46 H13       4.9442    -5.2843     9.2739  H       1  <O>11       0.0377
  47 H14       3.5215    -4.3128     9.7251  H       1  <O>11       0.0377
  48 H15       4.9494    -1.5823    13.1481  H       1  <O>11       0.1921
  49 H16       0.9018    -0.6064     6.6338  H       1  <O>11       0.0502
  50 H17       2.5644    -0.9956     7.1365  H       1  <O>11       0.0502
  51 H18       1.5458     1.4733     6.0813  H       1  <O>11       0.0742
  52 H19       3.2014     1.0937     6.6137  H       1  <O>11       0.0742
  53 H20       3.0204    -3.9516     7.3574  H       1  <O>11       0.0629
  54 H21       9.2430    -3.5030    12.9514  H       1  <O>11       0.0625
  55 H22      10.3031    -5.1715    11.5564  H       1  <O>11       0.0618
  56 H23       9.0674    -6.1967     9.7405  H       1  <O>11       0.0618
  57 H24       6.7712    -5.5531     9.3241  H       1  <O>11       0.0624
  58 H25       6.6629    -2.6459     9.0193  H       1  <O>11       0.0621
  59 H26       7.0226    -1.2175     7.0864  H       1  <O>11       0.0646
@<TRIPOS>BOND
     1     1     2    1
     2     2     3    2
     3     3     4    1
     4     4     5    1
     5     3     5    1
     6     2     6    1
     7     6     7    1
     8     7     8    1
     9     8     9    1
    10     9    10    1
    11    10    11   am
    12    11    12    2
    13    11    13    1
    14    13    14   ar
    15    14    15   ar
    16    15    16    1
    17    16    17    1
    18    17    18   ar
    19    18    19   ar
    20    19    20   ar
    21    20    21    2
    22    20    22   ar
    23    22    23   ar
    24    23    24   ar
    25    24    25   ar
    26    25    26   ar
    27    26    27   ar
    28    17    27   ar
    29    22    27   ar
    30    15    28   ar
    31    28    29   ar
    32    29    30   ar
    33    13    30   ar
    34    30    31    1
    35    10    32    1
    36    32    33    1
    37     6    33    1
    38     1    34    1
    39     1    35    1
    40     4    36    1
    41     4    37    1
    42     5    38    1
    43     5    39    1
    44     7    40    1
    45     7    41    1
    46     8    42    1
    47     8    43    1
    48     9    44    1
    49     9    45    1
    50    16    46    1
    51    16    47    1
    52    19    48    1
    53    32    49    1
    54    32    50    1
    55    33    51    1
    56    33    52    1
    57    14    53    1
    58    23    54    1
    59    24    55    1
    60    25    56    1
    61    26    57    1
    62    28    58    1
    63    29    59    1
@<TRIPOS>MOLECULE
mol92_1_23
 59 63 0 0 0
SMALL
USER_CHARGES
****
VDW energy = -83.36
@<TRIPOS>ATOM
   1 N1        4.8233    -0.0872     3.3214  N.pl3   1  <O>11      -0.2515
   2 C1        4.2396     0.9903     4.0983  C.2     1  <O>11       0.2546
   3 C2        5.0243     2.1387     4.4305  C.2     1  <O>11       0.0151
   4 C3        4.9430     3.1730     5.0070  C.3     1  <O>11      -0.0202
   5 C4        6.1150     2.5820     4.2810  C.3     1  <O>11      -0.0202
   6 N2        2.8690     0.9030     4.5350  N.pl3   1  <O>11      -0.2241
   7 C5        2.2910     2.0220     5.3319  C.3     1  <O>11       0.0818
   8 C6        0.8280     2.3140     5.0079  C.3     1  <O>11      -0.0009
   9 C7        0.5550     2.5749     3.5289  C.3     1  <O>11       0.0185
  10 N3        1.0620     1.5018     2.6310  N.am    1  <O>11      -0.2937
  11 C8        1.6380     1.7178     1.4189  C.2     1  <O>11       0.2495
  12 O1        1.7680     2.8567     0.9979  O.2     1  <O>11      -0.2699
  13 C9        2.1010     0.5887     0.6210  C.ar    1  <O>11       0.0723
  14 C10       3.4151     0.1124     0.7625  C.ar    1  <O>11      -0.0433
  15 C11       3.8623    -0.9634    -0.0118  C.ar    1  <O>11      -0.0406
  16 C12       5.2453    -1.4529     0.1444  C.3     1  <O>11       0.0171
  17 C13       6.1967    -0.3562    -0.1738  C.ar    1  <O>11       0.0736
  18 N4        7.1041     0.0851     0.7964  N.ar    1  <O>11      -0.1750
  19 N5        7.9027     1.1497     0.5562  N.ar    1  <O>11      -0.2425
  20 C14       7.8248     1.7758    -0.6417  C.ar    1  <O>11       0.2725
  21 O2        8.6120     2.9339    -0.7904  O.2     1  <O>11      -0.2658
  22 C15       7.0204     1.3353    -1.7021  C.ar    1  <O>11       0.0496
  23 C16       6.9798     1.9520    -2.9723  C.ar    1  <O>11      -0.0487
  24 C17       6.1311     1.4810    -3.9741  C.ar    1  <O>11      -0.0610
  25 C18       5.3033     0.3921    -3.7256  C.ar    1  <O>11      -0.0611
  26 C19       5.3251    -0.2267    -2.4747  C.ar    1  <O>11      -0.0521
  27 C20       6.1836     0.2319    -1.4499  C.ar    1  <O>11       0.0106
  28 C21       3.0040    -1.5743    -0.9302  C.ar    1  <O>11      -0.0555
  29 C22       1.6933    -1.1028    -1.0665  C.ar    1  <O>11      -0.0254
  30 C23       1.2372    -0.0314    -0.2967  C.ar    1  <O>11       0.1355
  31 F1       -0.0487     0.4250    -0.4257  F       1  <O>11      -0.2047
  32 C24       0.8920     0.1159     3.1670  C.3     1  <O>11       0.0510
  33 C25       1.9220    -0.2230     4.2721  C.3     1  <O>11       0.0960
  34 H1        4.2635    -0.9063     3.0844  H       1  <O>11       0.2881
  35 H2        5.7933    -0.0256     3.0122  H       1  <O>11       0.2881
  36 H3        4.3825     4.0115     4.5936  H       1  <O>11       0.0316
  37 H4        4.9117     3.2158     6.0957  H       1  <O>11       0.0316
  38 H5        6.4425     2.9727     3.3176  H       1  <O>11       0.0316
  39 H6        6.9717     2.1770     4.8196  H       1  <O>11       0.0316
  40 H7        2.3640     1.7651     6.3879  H       1  <O>11       0.0726
  41 H8        2.8730     2.9220     5.1339  H       1  <O>11       0.0726
  42 H9        0.2310     1.4570     5.3190  H       1  <O>11       0.0317
  43 H10       0.5219     3.1940     5.5728  H       1  <O>11       0.0317
  44 H11      -0.5220     2.6619     3.3879  H       1  <O>11       0.0466
  45 H12       1.0350     3.5129     3.2508  H       1  <O>11       0.0466
  46 H13       5.4137    -2.2891    -0.5343  H       1  <O>11       0.0377
  47 H14       5.4002    -1.7816     1.1727  H       1  <O>11       0.0377
  48 H15       8.5488     1.4738     1.2621  H       1  <O>11       0.1921
  49 H16      -0.1100     0.0229     3.5840  H       1  <O>11       0.0502
  50 H17       1.0130    -0.5932     2.3481  H       1  <O>11       0.0502
  51 H18       1.3850    -0.4510     5.1921  H       1  <O>11       0.0742
  52 H19       2.4950    -1.0960     3.9591  H       1  <O>11       0.0742
  53 H20       4.0531     0.5580     1.4403  H       1  <O>11       0.0629
  54 H21       7.5879     2.7639    -3.1622  H       1  <O>11       0.0625
  55 H22       6.1177     1.9402    -4.8982  H       1  <O>11       0.0618
  56 H23       4.6739     0.0419    -4.4647  H       1  <O>11       0.0618
  57 H24       4.7048    -1.0317    -2.2953  H       1  <O>11       0.0624
  58 H25       3.3341    -2.3666    -1.5032  H       1  <O>11       0.0621
  59 H26       1.0570    -1.5522    -1.7436  H       1  <O>11       0.0646
@<TRIPOS>BOND
     1     1     2    1
     2     2     3    2
     3     3     4    1
     4     4     5    1
     5     3     5    1
     6     2     6    1
     7     6     7    1
     8     7     8    1
     9     8     9    1
    10     9    10    1
    11    10    11   am
    12    11    12    2
    13    11    13    1
    14    13    14   ar
    15    14    15   ar
    16    15    16    1
    17    16    17    1
    18    17    18   ar
    19    18    19   ar
    20    19    20   ar
    21    20    21    2
    22    20    22   ar
    23    22    23   ar
    24    23    24   ar
    25    24    25   ar
    26    25    26   ar
    27    26    27   ar
    28    17    27   ar
    29    22    27   ar
    30    15    28   ar
    31    28    29   ar
    32    29    30   ar
    33    13    30   ar
    34    30    31    1
    35    10    32    1
    36    32    33    1
    37     6    33    1
    38     1    34    1
    39     1    35    1
    40     4    36    1
    41     4    37    1
    42     5    38    1
    43     5    39    1
    44     7    40    1
    45     7    41    1
    46     8    42    1
    47     8    43    1
    48     9    44    1
    49     9    45    1
    50    16    46    1
    51    16    47    1
    52    19    48    1
    53    32    49    1
    54    32    50    1
    55    33    51    1
    56    33    52    1
    57    14    53    1
    58    23    54    1
    59    24    55    1
    60    25    56    1
    61    26    57    1
    62    28    58    1
    63    29    59    1
@<TRIPOS>MOLECULE
mol92_1_24
 59 63 0 0 0
SMALL
USER_CHARGES
****
VDW energy = -81.24
@<TRIPOS>ATOM
   1 N1        4.8233    -0.0872     3.3214  N.pl3   1  <O>11      -0.2515
   2 C1        4.2396     0.9903     4.0983  C.2     1  <O>11       0.2546
   3 C2        5.0243     2.1387     4.4305  C.2     1  <O>11       0.0151
   4 C3        4.9430     3.1730     5.0070  C.3     1  <O>11      -0.0202
   5 C4        6.1150     2.5820     4.2810  C.3     1  <O>11      -0.0202
   6 N2        2.8690     0.9030     4.5350  N.pl3   1  <O>11      -0.2241
   7 C5        2.2910     2.0220     5.3319  C.3     1  <O>11       0.0818
   8 C6        0.8280     2.3140     5.0079  C.3     1  <O>11      -0.0009
   9 C7        0.5550     2.5749     3.5289  C.3     1  <O>11       0.0185
  10 N3        1.0620     1.5018     2.6310  N.am    1  <O>11      -0.2937
  11 C8        1.6380     1.7178     1.4189  C.2     1  <O>11       0.2495
  12 O1        1.7680     2.8567     0.9979  O.2     1  <O>11      -0.2699
  13 C9        2.1010     0.5887     0.6210  C.ar    1  <O>11       0.0723
  14 C10       3.4151     0.1124     0.7625  C.ar    1  <O>11      -0.0433
  15 C11       3.8623    -0.9634    -0.0118  C.ar    1  <O>11      -0.0406
  16 C12       5.2453    -1.4529     0.1444  C.3     1  <O>11       0.0171
  17 C13       5.6767    -2.1239    -1.1096  C.ar    1  <O>11       0.0736
  18 N4        6.0523    -3.4722    -1.0870  N.ar    1  <O>11      -0.1750
  19 N5        6.5455    -4.0665    -2.1971  N.ar    1  <O>11      -0.2425
  20 C14       6.6582    -3.3447    -3.3371  C.ar    1  <O>11       0.2725
  21 O2        7.2686    -3.9948    -4.4269  O.2     1  <O>11      -0.2658
  22 C15       6.2094    -2.0234    -3.4721  C.ar    1  <O>11       0.0496
  23 C16       6.2726    -1.2865    -4.6756  C.ar    1  <O>11      -0.0487
  24 C17       5.8374     0.0376    -4.7323  C.ar    1  <O>11      -0.0610
  25 C18       5.3381     0.6524    -3.5898  C.ar    1  <O>11      -0.0611
  26 C19       5.2733    -0.0579    -2.3899  C.ar    1  <O>11      -0.0521
  27 C20       5.7029    -1.4022    -2.3150  C.ar    1  <O>11       0.0106
  28 C21       3.0040    -1.5743    -0.9302  C.ar    1  <O>11      -0.0555
  29 C22       1.6933    -1.1028    -1.0665  C.ar    1  <O>11      -0.0254
  30 C23       1.2372    -0.0314    -0.2967  C.ar    1  <O>11       0.1355
  31 F1       -0.0487     0.4250    -0.4257  F       1  <O>11      -0.2047
  32 C24       0.8920     0.1159     3.1670  C.3     1  <O>11       0.0510
  33 C25       1.9220    -0.2230     4.2721  C.3     1  <O>11       0.0960
  34 H1        4.2635    -0.9063     3.0844  H       1  <O>11       0.2881
  35 H2        5.7933    -0.0256     3.0122  H       1  <O>11       0.2881
  36 H3        4.3825     4.0115     4.5936  H       1  <O>11       0.0316
  37 H4        4.9117     3.2158     6.0957  H       1  <O>11       0.0316
  38 H5        6.4425     2.9727     3.3176  H       1  <O>11       0.0316
  39 H6        6.9717     2.1770     4.8196  H       1  <O>11       0.0316
  40 H7        2.3640     1.7651     6.3879  H       1  <O>11       0.0726
  41 H8        2.8730     2.9220     5.1339  H       1  <O>11       0.0726
  42 H9        0.2310     1.4570     5.3190  H       1  <O>11       0.0317
  43 H10       0.5219     3.1940     5.5728  H       1  <O>11       0.0317
  44 H11      -0.5220     2.6619     3.3879  H       1  <O>11       0.0466
  45 H12       1.0350     3.5129     3.2508  H       1  <O>11       0.0466
  46 H13       5.2885    -2.1628     0.9705  H       1  <O>11       0.0377
  47 H14       5.9070    -0.6112     0.3526  H       1  <O>11       0.0377
  48 H15       6.8269    -5.0367    -2.1756  H       1  <O>11       0.1921
  49 H16      -0.1100     0.0229     3.5840  H       1  <O>11       0.0502
  50 H17       1.0130    -0.5932     2.3481  H       1  <O>11       0.0502
  51 H18       1.3850    -0.4510     5.1921  H       1  <O>11       0.0742
  52 H19       2.4950    -1.0960     3.9591  H       1  <O>11       0.0742
  53 H20       4.0531     0.5580     1.4403  H       1  <O>11       0.0629
  54 H21       6.6467    -1.7348    -5.5265  H       1  <O>11       0.0625
  55 H22       5.8859     0.5599    -5.6210  H       1  <O>11       0.0618
  56 H23       5.0160     1.6320    -3.6286  H       1  <O>11       0.0618
  57 H24       4.9059     0.4058    -1.5443  H       1  <O>11       0.0624
  58 H25       3.3341    -2.3666    -1.5032  H       1  <O>11       0.0621
  59 H26       1.0570    -1.5522    -1.7436  H       1  <O>11       0.0646
@<TRIPOS>BOND
     1     1     2    1
     2     2     3    2
     3     3     4    1
     4     4     5    1
     5     3     5    1
     6     2     6    1
     7     6     7    1
     8     7     8    1
     9     8     9    1
    10     9    10    1
    11    10    11   am
    12    11    12    2
    13    11    13    1
    14    13    14   ar
    15    14    15   ar
    16    15    16    1
    17    16    17    1
    18    17    18   ar
    19    18    19   ar
    20    19    20   ar
    21    20    21    2
    22    20    22   ar
    23    22    23   ar
    24    23    24   ar
    25    24    25   ar
    26    25    26   ar
    27    26    27   ar
    28    17    27   ar
    29    22    27   ar
    30    15    28   ar
    31    28    29   ar
    32    29    30   ar
    33    13    30   ar
    34    30    31    1
    35    10    32    1
    36    32    33    1
    37     6    33    1
    38     1    34    1
    39     1    35    1
    40     4    36    1
    41     4    37    1
    42     5    38    1
    43     5    39    1
    44     7    40    1
    45     7    41    1
    46     8    42    1
    47     8    43    1
    48     9    44    1
    49     9    45    1
    50    16    46    1
    51    16    47    1
    52    19    48    1
    53    32    49    1
    54    32    50    1
    55    33    51    1
    56    33    52    1
    57    14    53    1
    58    23    54    1
    59    24    55    1
    60    25    56    1
    61    26    57    1
    62    28    58    1
    63    29    59    1
@<TRIPOS>MOLECULE
mol92_1_25
 59 63 0 0 0
SMALL
USER_CHARGES
****
VDW energy = -77.88
@<TRIPOS>ATOM
   1 N1        4.8233    -0.0872     3.3214  N.pl3   1  <O>11      -0.2515
   2 C1        4.2396     0.9903     4.0983  C.2     1  <O>11       0.2546
   3 C2        5.0243     2.1387     4.4305  C.2     1  <O>11       0.0151
   4 C3        4.9430     3.1730     5.0070  C.3     1  <O>11      -0.0202
   5 C4        6.1150     2.5820     4.2810  C.3     1  <O>11      -0.0202
   6 N2        2.8690     0.9030     4.5350  N.pl3   1  <O>11      -0.2241
   7 C5        1.7826     0.9140     3.5147  C.3     1  <O>11       0.0818
   8 C6        0.6091    -0.0000     3.8584  C.3     1  <O>11      -0.0009
   9 C7        1.0046    -1.4480     4.1360  C.3     1  <O>11       0.0185
  10 N3        2.0673    -1.5880     5.1684  N.am    1  <O>11      -0.2937
  11 C8        3.0830    -2.4895     5.1132  C.2     1  <O>11       0.2495
  12 O1        3.9121    -2.5322     6.0090  O.2     1  <O>11      -0.2699
  13 C9        3.1829    -3.4060     3.9837  C.ar    1  <O>11       0.0723
  14 C10       3.9142    -3.0443     2.8400  C.ar    1  <O>11      -0.0433
  15 C11       3.9998    -3.9194     1.7520  C.ar    1  <O>11      -0.0406
  16 C12       4.7689    -3.5270     0.5556  C.3     1  <O>11       0.0171
  17 C13       4.2503    -4.2610    -0.6281  C.ar    1  <O>11       0.0736
  18 N4        4.7919    -5.5054    -0.9710  N.ar    1  <O>11      -0.1750
  19 N5        4.4032    -6.1353    -2.1028  N.ar    1  <O>11      -0.2425
  20 C14       3.4712    -5.5540    -2.8945  C.ar    1  <O>11       0.2725
  21 O2        3.1836    -6.2146    -4.1044  O.2     1  <O>11      -0.2658
  22 C15       2.8053    -4.3633    -2.5715  C.ar    1  <O>11       0.0496
  23 C16       1.7915    -3.7842    -3.3666  C.ar    1  <O>11      -0.0487
  24 C17       1.1919    -2.5786    -3.0024  C.ar    1  <O>11      -0.0610
  25 C18       1.5966    -1.9257    -1.8437  C.ar    1  <O>11      -0.0611
  26 C19       2.6009    -2.4795    -1.0483  C.ar    1  <O>11      -0.0521
  27 C20       3.2149    -3.7037    -1.3975  C.ar    1  <O>11       0.0106
  28 C21       3.3606    -5.1615     1.7958  C.ar    1  <O>11      -0.0555
  29 C22       2.6370    -5.5235     2.9378  C.ar    1  <O>11      -0.0254
  30 C23       2.5477    -4.6580     4.0295  C.ar    1  <O>11       0.1355
  31 F1        1.8448    -5.0162     5.1502  F       1  <O>11      -0.2047
  32 C24       1.9432    -0.6367     6.3159  C.3     1  <O>11       0.0510
  33 C25       2.3907     0.7988     5.9472  C.3     1  <O>11       0.0960
  34 H1        4.2635    -0.9063     3.0844  H       1  <O>11       0.2881
  35 H2        5.7933    -0.0256     3.0122  H       1  <O>11       0.2881
  36 H3        4.3825     4.0115     4.5936  H       1  <O>11       0.0316
  37 H4        4.9117     3.2158     6.0957  H       1  <O>11       0.0316
  38 H5        6.4425     2.9727     3.3176  H       1  <O>11       0.0316
  39 H6        6.9717     2.1770     4.8196  H       1  <O>11       0.0316
  40 H7        1.4084     1.9329     3.4225  H       1  <O>11       0.0726
  41 H8        2.2019     0.5912     2.5619  H       1  <O>11       0.0726
  42 H9        0.1162     0.3951     4.7464  H       1  <O>11       0.0317
  43 H10      -0.0882     0.0098     3.0212  H       1  <O>11       0.0317
  44 H11       0.1208    -1.9870     4.4760  H       1  <O>11       0.0466
  45 H12       1.3653    -1.8900     3.2075  H       1  <O>11       0.0466
  46 H13       5.8208    -3.7716     0.7034  H       1  <O>11       0.0377
  47 H14       4.6641    -2.4537     0.3926  H       1  <O>11       0.0377
  48 H15       4.8038    -7.0280    -2.3545  H       1  <O>11       0.1921
  49 H16       0.9018    -0.6064     6.6338  H       1  <O>11       0.0502
  50 H17       2.5644    -0.9956     7.1365  H       1  <O>11       0.0502
  51 H18       1.5458     1.4733     6.0813  H       1  <O>11       0.0742
  52 H19       3.2014     1.0937     6.6137  H       1  <O>11       0.0742
  53 H20       4.3900    -2.1293     2.8023  H       1  <O>11       0.0629
  54 H21       1.4895    -4.2608    -4.2308  H       1  <O>11       0.0625
  55 H22       0.4491    -2.1719    -3.5922  H       1  <O>11       0.0618
  56 H23       1.1552    -1.0332    -1.5722  H       1  <O>11       0.0618
  57 H24       2.8999    -1.9875    -0.1918  H       1  <O>11       0.0624
  58 H25       3.4217    -5.8066     0.9926  H       1  <O>11       0.0621
  59 H26       2.1643    -6.4402     2.9733  H       1  <O>11       0.0646
@<TRIPOS>BOND
     1     1     2    1
     2     2     3    2
     3     3     4    1
     4     4     5    1
     5     3     5    1
     6     2     6    1
     7     6     7    1
     8     7     8    1
     9     8     9    1
    10     9    10    1
    11    10    11   am
    12    11    12    2
    13    11    13    1
    14    13    14   ar
    15    14    15   ar
    16    15    16    1
    17    16    17    1
    18    17    18   ar
    19    18    19   ar
    20    19    20   ar
    21    20    21    2
    22    20    22   ar
    23    22    23   ar
    24    23    24   ar
    25    24    25   ar
    26    25    26   ar
    27    26    27   ar
    28    17    27   ar
    29    22    27   ar
    30    15    28   ar
    31    28    29   ar
    32    29    30   ar
    33    13    30   ar
    34    30    31    1
    35    10    32    1
    36    32    33    1
    37     6    33    1
    38     1    34    1
    39     1    35    1
    40     4    36    1
    41     4    37    1
    42     5    38    1
    43     5    39    1
    44     7    40    1
    45     7    41    1
    46     8    42    1
    47     8    43    1
    48     9    44    1
    49     9    45    1
    50    16    46    1
    51    16    47    1
    52    19    48    1
    53    32    49    1
    54    32    50    1
    55    33    51    1
    56    33    52    1
    57    14    53    1
    58    23    54    1
    59    24    55    1
    60    25    56    1
    61    26    57    1
    62    28    58    1
    63    29    59    1
@<TRIPOS>MOLECULE
mol92_1_26
 59 63 0 0 0
SMALL
USER_CHARGES
****
VDW energy = -74.57
@<TRIPOS>ATOM
   1 N1        4.8233    -0.0872     3.3214  N.pl3   1  <O>11      -0.2515
   2 C1        4.2396     0.9903     4.0983  C.2     1  <O>11       0.2546
   3 C2        5.0243     2.1387     4.4305  C.2     1  <O>11       0.0151
   4 C3        4.9430     3.1730     5.0070  C.3     1  <O>11      -0.0202
   5 C4        6.1150     2.5820     4.2810  C.3     1  <O>11      -0.0202
   6 N2        2.8690     0.9030     4.5350  N.pl3   1  <O>11      -0.2241
   7 C5        2.2910     2.0220     5.3319  C.3     1  <O>11       0.0818
   8 C6        0.8280     2.3140     5.0079  C.3     1  <O>11      -0.0009
   9 C7        0.5550     2.5749     3.5289  C.3     1  <O>11       0.0185
  10 N3        1.0620     1.5018     2.6310  N.am    1  <O>11      -0.2937
  11 C8        1.6380     1.7178     1.4189  C.2     1  <O>11       0.2495
  12 O1        2.0256     0.7730     0.7491  O.2     1  <O>11      -0.2699
  13 C9        1.7932     3.0783     0.9182  C.ar    1  <O>11       0.0723
  14 C10       0.7803     3.6683     0.1438  C.ar    1  <O>11      -0.0433
  15 C11       0.9349     4.9695    -0.3460  C.ar    1  <O>11      -0.0406
  16 C12      -0.1350     5.5772    -1.1601  C.3     1  <O>11       0.0171
  17 C13       0.4465     6.6277    -2.0360  C.ar    1  <O>11       0.0736
  18 N4        1.8245     6.6487    -2.2815  N.ar    1  <O>11      -0.1750
  19 N5        2.3806     7.6575    -2.9900  N.ar    1  <O>11      -0.2425
  20 C14       1.5853     8.6412    -3.4729  C.ar    1  <O>11       0.2725
  21 O2        2.2388     9.7095    -4.1165  O.2     1  <O>11      -0.2658
  22 C15       0.1877     8.6406    -3.3613  C.ar    1  <O>11       0.0496
  23 C16      -0.6495     9.6353    -3.9137  C.ar    1  <O>11      -0.0487
  24 C17      -2.0325     9.5912    -3.7373  C.ar    1  <O>11      -0.0610
  25 C18      -2.6046     8.5594    -3.0019  C.ar    1  <O>11      -0.0611
  26 C19      -1.7930     7.5706    -2.4434  C.ar    1  <O>11      -0.0521
  27 C20      -0.3907     7.5949    -2.6176  C.ar    1  <O>11       0.0106
  28 C21       2.0973     5.6934    -0.0663  C.ar    1  <O>11      -0.0555
  29 C22       3.1034     5.1069     0.7100  C.ar    1  <O>11      -0.0254
  30 C23       2.9574     3.8100     1.2052  C.ar    1  <O>11       0.1355
  31 F1        3.9400     3.2391     1.9713  F       1  <O>11      -0.2047
  32 C24       0.8920     0.1159     3.1670  C.3     1  <O>11       0.0510
  33 C25       1.9220    -0.2230     4.2721  C.3     1  <O>11       0.0960
  34 H1        4.2635    -0.9063     3.0844  H       1  <O>11       0.2881
  35 H2        5.7933    -0.0256     3.0122  H       1  <O>11       0.2881
  36 H3        4.3825     4.0115     4.5936  H       1  <O>11       0.0316
  37 H4        4.9117     3.2158     6.0957  H       1  <O>11       0.0316
  38 H5        6.4425     2.9727     3.3176  H       1  <O>11       0.0316
  39 H6        6.9717     2.1770     4.8196  H       1  <O>11       0.0316
  40 H7        2.3640     1.7651     6.3879  H       1  <O>11       0.0726
  41 H8        2.8730     2.9220     5.1339  H       1  <O>11       0.0726
  42 H9        0.2310     1.4570     5.3190  H       1  <O>11       0.0317
  43 H10       0.5219     3.1940     5.5728  H       1  <O>11       0.0317
  44 H11      -0.5220     2.6619     3.3879  H       1  <O>11       0.0466
  45 H12       1.0350     3.5129     3.2508  H       1  <O>11       0.0466
  46 H13      -0.8822     6.0233    -0.5037  H       1  <O>11       0.0377
  47 H14      -0.6036     4.8087    -1.7759  H       1  <O>11       0.0377
  48 H15       3.3770     7.6770    -3.1562  H       1  <O>11       0.1921
  49 H16      -0.1100     0.0229     3.5840  H       1  <O>11       0.0502
  50 H17       1.0130    -0.5932     2.3481  H       1  <O>11       0.0502
  51 H18       1.3850    -0.4510     5.1921  H       1  <O>11       0.0742
  52 H19       2.4950    -1.0960     3.9591  H       1  <O>11       0.0742
  53 H20      -0.0812     3.1397    -0.0645  H       1  <O>11       0.0629
  54 H21      -0.2312    10.4069    -4.4566  H       1  <O>11       0.0625
  55 H22      -2.6300    10.3233    -4.1520  H       1  <O>11       0.0618
  56 H23      -3.6274     8.5246    -2.8692  H       1  <O>11       0.0618
  57 H24      -2.2236     6.8100    -1.8947  H       1  <O>11       0.0624
  58 H25       2.2127     6.6525    -0.4293  H       1  <O>11       0.0621
  59 H26       3.9627     5.6391     0.9185  H       1  <O>11       0.0646
@<TRIPOS>BOND
     1     1     2    1
     2     2     3    2
     3     3     4    1
     4     4     5    1
     5     3     5    1
     6     2     6    1
     7     6     7    1
     8     7     8    1
     9     8     9    1
    10     9    10    1
    11    10    11   am
    12    11    12    2
    13    11    13    1
    14    13    14   ar
    15    14    15   ar
    16    15    16    1
    17    16    17    1
    18    17    18   ar
    19    18    19   ar
    20    19    20   ar
    21    20    21    2
    22    20    22   ar
    23    22    23   ar
    24    23    24   ar
    25    24    25   ar
    26    25    26   ar
    27    26    27   ar
    28    17    27   ar
    29    22    27   ar
    30    15    28   ar
    31    28    29   ar
    32    29    30   ar
    33    13    30   ar
    34    30    31    1
    35    10    32    1
    36    32    33    1
    37     6    33    1
    38     1    34    1
    39     1    35    1
    40     4    36    1
    41     4    37    1
    42     5    38    1
    43     5    39    1
    44     7    40    1
    45     7    41    1
    46     8    42    1
    47     8    43    1
    48     9    44    1
    49     9    45    1
    50    16    46    1
    51    16    47    1
    52    19    48    1
    53    32    49    1
    54    32    50    1
    55    33    51    1
    56    33    52    1
    57    14    53    1
    58    23    54    1
    59    24    55    1
    60    25    56    1
    61    26    57    1
    62    28    58    1
    63    29    59    1
@<TRIPOS>MOLECULE
mol92_1_27
 59 63 0 0 0
SMALL
USER_CHARGES
****
VDW energy = -74.52
@<TRIPOS>ATOM
   1 N1        4.8233    -0.0872     3.3214  N.pl3   1  <O>11      -0.2515
   2 C1        4.2396     0.9903     4.0983  C.2     1  <O>11       0.2546
   3 C2        5.0243     2.1387     4.4305  C.2     1  <O>11       0.0151
   4 C3        4.9430     3.1730     5.0070  C.3     1  <O>11      -0.0202
   5 C4        6.1150     2.5820     4.2810  C.3     1  <O>11      -0.0202
   6 N2        2.8690     0.9030     4.5350  N.pl3   1  <O>11      -0.2241
   7 C5        1.7826     0.9140     3.5147  C.3     1  <O>11       0.0818
   8 C6        0.6091    -0.0000     3.8584  C.3     1  <O>11      -0.0009
   9 C7        1.0046    -1.4480     4.1360  C.3     1  <O>11       0.0185
  10 N3        2.0673    -1.5880     5.1684  N.am    1  <O>11      -0.2937
  11 C8        3.0830    -2.4895     5.1132  C.2     1  <O>11       0.2495
  12 O1        3.9121    -2.5322     6.0090  O.2     1  <O>11      -0.2699
  13 C9        3.1829    -3.4060     3.9837  C.ar    1  <O>11       0.0723
  14 C10       3.9142    -3.0443     2.8400  C.ar    1  <O>11      -0.0433
  15 C11       3.9998    -3.9194     1.7520  C.ar    1  <O>11      -0.0406
  16 C12       4.7689    -3.5270     0.5556  C.3     1  <O>11       0.0171
  17 C13       4.2503    -4.2610    -0.6281  C.ar    1  <O>11       0.0736
  18 N4        3.2211    -3.7068    -1.3981  N.ar    1  <O>11      -0.1750
  19 N5        2.6689    -4.4086    -2.4138  N.ar    1  <O>11      -0.2425
  20 C14       3.1343    -5.6503    -2.6872  C.ar    1  <O>11       0.2725
  21 O2        2.4517    -6.3630    -3.6917  O.2     1  <O>11      -0.2658
  22 C15       4.2280    -6.2356    -2.0338  C.ar    1  <O>11       0.0496
  23 C16       4.7526    -7.5071    -2.3553  C.ar    1  <O>11      -0.0487
  24 C17       5.8242    -8.0447    -1.6422  C.ar    1  <O>11      -0.0610
  25 C18       6.3871    -7.3281    -0.5924  C.ar    1  <O>11      -0.0611
  26 C19       5.8785    -6.0725    -0.2561  C.ar    1  <O>11      -0.0521
  27 C20       4.7980    -5.5086    -0.9718  C.ar    1  <O>11       0.0106
  28 C21       3.3606    -5.1615     1.7958  C.ar    1  <O>11      -0.0555
  29 C22       2.6370    -5.5235     2.9378  C.ar    1  <O>11      -0.0254
  30 C23       2.5477    -4.6580     4.0295  C.ar    1  <O>11       0.1355
  31 F1        1.8448    -5.0162     5.1502  F       1  <O>11      -0.2047
  32 C24       1.9432    -0.6367     6.3159  C.3     1  <O>11       0.0510
  33 C25       2.3907     0.7988     5.9472  C.3     1  <O>11       0.0960
  34 H1        4.2635    -0.9063     3.0844  H       1  <O>11       0.2881
  35 H2        5.7933    -0.0256     3.0122  H       1  <O>11       0.2881
  36 H3        4.3825     4.0115     4.5936  H       1  <O>11       0.0316
  37 H4        4.9117     3.2158     6.0957  H       1  <O>11       0.0316
  38 H5        6.4425     2.9727     3.3176  H       1  <O>11       0.0316
  39 H6        6.9717     2.1770     4.8196  H       1  <O>11       0.0316
  40 H7        1.4084     1.9329     3.4225  H       1  <O>11       0.0726
  41 H8        2.2019     0.5912     2.5619  H       1  <O>11       0.0726
  42 H9        0.1162     0.3951     4.7464  H       1  <O>11       0.0317
  43 H10      -0.0882     0.0098     3.0212  H       1  <O>11       0.0317
  44 H11       0.1208    -1.9870     4.4760  H       1  <O>11       0.0466
  45 H12       1.3653    -1.8900     3.2075  H       1  <O>11       0.0466
  46 H13       5.8208    -3.7716     0.7034  H       1  <O>11       0.0377
  47 H14       4.6641    -2.4537     0.3926  H       1  <O>11       0.0377
  48 H15       1.9183    -4.0113    -2.9610  H       1  <O>11       0.1921
  49 H16       0.9018    -0.6064     6.6338  H       1  <O>11       0.0502
  50 H17       2.5644    -0.9956     7.1365  H       1  <O>11       0.0502
  51 H18       1.5458     1.4733     6.0813  H       1  <O>11       0.0742
  52 H19       3.2014     1.0937     6.6137  H       1  <O>11       0.0742
  53 H20       4.3900    -2.1293     2.8023  H       1  <O>11       0.0629
  54 H21       4.3365    -8.0470    -3.1302  H       1  <O>11       0.0625
  55 H22       6.1985    -8.9730    -1.8936  H       1  <O>11       0.0618
  56 H23       7.1795    -7.7236    -0.0627  H       1  <O>11       0.0618
  57 H24       6.2979    -5.5476     0.5272  H       1  <O>11       0.0624
  58 H25       3.4217    -5.8066     0.9926  H       1  <O>11       0.0621
  59 H26       2.1643    -6.4402     2.9733  H       1  <O>11       0.0646
@<TRIPOS>BOND
     1     1     2    1
     2     2     3    2
     3     3     4    1
     4     4     5    1
     5     3     5    1
     6     2     6    1
     7     6     7    1
     8     7     8    1
     9     8     9    1
    10     9    10    1
    11    10    11   am
    12    11    12    2
    13    11    13    1
    14    13    14   ar
    15    14    15   ar
    16    15    16    1
    17    16    17    1
    18    17    18   ar
    19    18    19   ar
    20    19    20   ar
    21    20    21    2
    22    20    22   ar
    23    22    23   ar
    24    23    24   ar
    25    24    25   ar
    26    25    26   ar
    27    26    27   ar
    28    17    27   ar
    29    22    27   ar
    30    15    28   ar
    31    28    29   ar
    32    29    30   ar
    33    13    30   ar
    34    30    31    1
    35    10    32    1
    36    32    33    1
    37     6    33    1
    38     1    34    1
    39     1    35    1
    40     4    36    1
    41     4    37    1
    42     5    38    1
    43     5    39    1
    44     7    40    1
    45     7    41    1
    46     8    42    1
    47     8    43    1
    48     9    44    1
    49     9    45    1
    50    16    46    1
    51    16    47    1
    52    19    48    1
    53    32    49    1
    54    32    50    1
    55    33    51    1
    56    33    52    1
    57    14    53    1
    58    23    54    1
    59    24    55    1
    60    25    56    1
    61    26    57    1
    62    28    58    1
    63    29    59    1
@<TRIPOS>MOLECULE
mol92_1_28
 59 63 0 0 0
SMALL
USER_CHARGES
****
VDW energy = -67.95
@<TRIPOS>ATOM
   1 N1        4.8233    -0.0872     3.3214  N.pl3   1  <O>11      -0.2515
   2 C1        4.2396     0.9903     4.0983  C.2     1  <O>11       0.2546
   3 C2        5.0243     2.1387     4.4305  C.2     1  <O>11       0.0151
   4 C3        4.9430     3.1730     5.0070  C.3     1  <O>11      -0.0202
   5 C4        6.1150     2.5820     4.2810  C.3     1  <O>11      -0.0202
   6 N2        2.8690     0.9030     4.5350  N.pl3   1  <O>11      -0.2241
   7 C5        1.7826     0.9140     3.5147  C.3     1  <O>11       0.0818
   8 C6        0.6091    -0.0000     3.8584  C.3     1  <O>11      -0.0009
   9 C7        1.0046    -1.4480     4.1360  C.3     1  <O>11       0.0185
  10 N3        2.0673    -1.5880     5.1684  N.am    1  <O>11      -0.2937
  11 C8        3.0830    -2.4895     5.1132  C.2     1  <O>11       0.2495
  12 O1        3.1676    -3.2584     4.1682  O.2     1  <O>11      -0.2699
  13 C9        4.0724    -2.5384     6.1831  C.ar    1  <O>11       0.0723
  14 C10       3.8694    -3.3678     7.2987  C.ar    1  <O>11      -0.0433
  15 C11       4.8134    -3.4055     8.3303  C.ar    1  <O>11      -0.0406
  16 C12       4.5876    -4.2789     9.4978  C.3     1  <O>11       0.0171
  17 C13       5.3270    -3.7396    10.6689  C.ar    1  <O>11       0.0736
  18 N4        5.7635    -2.4096    10.6676  N.ar    1  <O>11      -0.1750
  19 N5        6.5265    -1.9361    11.6789  N.ar    1  <O>11      -0.2425
  20 C14       6.8514    -2.7611    12.7022  C.ar    1  <O>11       0.2725
  21 O2        7.7268    -2.2346    13.6713  O.2     1  <O>11      -0.2658
  22 C15       6.3704    -4.0716    12.8314  C.ar    1  <O>11       0.0496
  23 C16       6.6605    -4.9154    13.9265  C.ar    1  <O>11      -0.0487
  24 C17       6.1750    -6.2221    13.9764  C.ar    1  <O>11      -0.0610
  25 C18       5.3978    -6.7129    12.9334  C.ar    1  <O>11      -0.0611
  26 C19       5.1053    -5.8959    11.8402  C.ar    1  <O>11      -0.0521
  27 C20       5.5825    -4.5671    11.7755  C.ar    1  <O>11       0.0106
  28 C21       5.9672    -2.6201     8.2576  C.ar    1  <O>11      -0.0555
  29 C22       6.1714    -1.7983     7.1431  C.ar    1  <O>11      -0.0254
  30 C23       5.2363    -1.7557     6.1076  C.ar    1  <O>11       0.1355
  31 F1        5.4405    -0.9561     5.0134  F       1  <O>11      -0.2047
  32 C24       1.9432    -0.6367     6.3159  C.3     1  <O>11       0.0510
  33 C25       2.3907     0.7988     5.9472  C.3     1  <O>11       0.0960
  34 H1        4.2635    -0.9063     3.0844  H       1  <O>11       0.2881
  35 H2        5.7933    -0.0256     3.0122  H       1  <O>11       0.2881
  36 H3        4.3825     4.0115     4.5936  H       1  <O>11       0.0316
  37 H4        4.9117     3.2158     6.0957  H       1  <O>11       0.0316
  38 H5        6.4425     2.9727     3.3176  H       1  <O>11       0.0316
  39 H6        6.9717     2.1770     4.8196  H       1  <O>11       0.0316
  40 H7        1.4084     1.9329     3.4225  H       1  <O>11       0.0726
  41 H8        2.2019     0.5912     2.5619  H       1  <O>11       0.0726
  42 H9        0.1162     0.3951     4.7464  H       1  <O>11       0.0317
  43 H10      -0.0882     0.0098     3.0212  H       1  <O>11       0.0317
  44 H11       0.1208    -1.9870     4.4760  H       1  <O>11       0.0466
  45 H12       1.3653    -1.8900     3.2075  H       1  <O>11       0.0466
  46 H13       4.9442    -5.2843     9.2739  H       1  <O>11       0.0377
  47 H14       3.5215    -4.3128     9.7251  H       1  <O>11       0.0377
  48 H15       6.8502    -0.9791    11.6703  H       1  <O>11       0.1921
  49 H16       0.9018    -0.6064     6.6338  H       1  <O>11       0.0502
  50 H17       2.5644    -0.9956     7.1365  H       1  <O>11       0.0502
  51 H18       1.5458     1.4733     6.0813  H       1  <O>11       0.0742
  52 H19       3.2014     1.0937     6.6137  H       1  <O>11       0.0742
  53 H20       3.0204    -3.9516     7.3574  H       1  <O>11       0.0629
  54 H21       7.2410    -4.5595    14.7019  H       1  <O>11       0.0625
  55 H22       6.3923    -6.8236    14.7864  H       1  <O>11       0.0618
  56 H23       5.0378    -7.6795    12.9674  H       1  <O>11       0.0618
  57 H24       4.5317    -6.2678    11.0671  H       1  <O>11       0.0624
  58 H25       6.6629    -2.6459     9.0193  H       1  <O>11       0.0621
  59 H26       7.0226    -1.2175     7.0864  H       1  <O>11       0.0646
@<TRIPOS>BOND
     1     1     2    1
     2     2     3    2
     3     3     4    1
     4     4     5    1
     5     3     5    1
     6     2     6    1
     7     6     7    1
     8     7     8    1
     9     8     9    1
    10     9    10    1
    11    10    11   am
    12    11    12    2
    13    11    13    1
    14    13    14   ar
    15    14    15   ar
    16    15    16    1
    17    16    17    1
    18    17    18   ar
    19    18    19   ar
    20    19    20   ar
    21    20    21    2
    22    20    22   ar
    23    22    23   ar
    24    23    24   ar
    25    24    25   ar
    26    25    26   ar
    27    26    27   ar
    28    17    27   ar
    29    22    27   ar
    30    15    28   ar
    31    28    29   ar
    32    29    30   ar
    33    13    30   ar
    34    30    31    1
    35    10    32    1
    36    32    33    1
    37     6    33    1
    38     1    34    1
    39     1    35    1
    40     4    36    1
    41     4    37    1
    42     5    38    1
    43     5    39    1
    44     7    40    1
    45     7    41    1
    46     8    42    1
    47     8    43    1
    48     9    44    1
    49     9    45    1
    50    16    46    1
    51    16    47    1
    52    19    48    1
    53    32    49    1
    54    32    50    1
    55    33    51    1
    56    33    52    1
    57    14    53    1
    58    23    54    1
    59    24    55    1
    60    25    56    1
    61    26    57    1
    62    28    58    1
    63    29    59    1
@<TRIPOS>MOLECULE
mol92_1_29
 59 63 0 0 0
SMALL
USER_CHARGES
****
VDW energy = -66.05
@<TRIPOS>ATOM
   1 N1        4.8233    -0.0872     3.3214  N.pl3   1  <O>11      -0.2515
   2 C1        4.2396     0.9903     4.0983  C.2     1  <O>11       0.2546
   3 C2        5.0243     2.1387     4.4305  C.2     1  <O>11       0.0151
   4 C3        4.9430     3.1730     5.0070  C.3     1  <O>11      -0.0202
   5 C4        6.1150     2.5820     4.2810  C.3     1  <O>11      -0.0202
   6 N2        2.8690     0.9030     4.5350  N.pl3   1  <O>11      -0.2241
   7 C5        2.2910     2.0220     5.3319  C.3     1  <O>11       0.0818
   8 C6        0.8280     2.3140     5.0079  C.3     1  <O>11      -0.0009
   9 C7        0.5550     2.5749     3.5289  C.3     1  <O>11       0.0185
  10 N3        1.0620     1.5018     2.6310  N.am    1  <O>11      -0.2937
  11 C8        1.6380     1.7178     1.4189  C.2     1  <O>11       0.2495
  12 O1        1.7680     2.8567     0.9979  O.2     1  <O>11      -0.2699
  13 C9        2.1010     0.5887     0.6210  C.ar    1  <O>11       0.0723
  14 C10       3.4151     0.1124     0.7625  C.ar    1  <O>11      -0.0433
  15 C11       3.8623    -0.9634    -0.0118  C.ar    1  <O>11      -0.0406
  16 C12       5.2453    -1.4529     0.1444  C.3     1  <O>11       0.0171
  17 C13       5.6767    -2.1239    -1.1096  C.ar    1  <O>11       0.0736
  18 N4        4.9821    -1.8897    -2.3020  N.ar    1  <O>11      -0.1750
  19 N5        5.2976    -2.5721    -3.4262  N.ar    1  <O>11      -0.2425
  20 C14       6.3052    -3.4757    -3.3885  C.ar    1  <O>11       0.2725
  21 O2        6.5174    -4.2199    -4.5648  O.2     1  <O>11      -0.2658
  22 C15       7.1164    -3.6941    -2.2660  C.ar    1  <O>11       0.0496
  23 C16       8.2049    -4.5940    -2.2408  C.ar    1  <O>11      -0.0487
  24 C17       8.9519    -4.7875    -1.0787  C.ar    1  <O>11      -0.0610
  25 C18       8.6232    -4.0930     0.0799  C.ar    1  <O>11      -0.0611
  26 C19       7.5473    -3.2038     0.0759  C.ar    1  <O>11      -0.0521
  27 C20       6.7836    -2.9895    -1.0938  C.ar    1  <O>11       0.0106
  28 C21       3.0040    -1.5743    -0.9302  C.ar    1  <O>11      -0.0555
  29 C22       1.6933    -1.1028    -1.0665  C.ar    1  <O>11      -0.0254
  30 C23       1.2372    -0.0314    -0.2967  C.ar    1  <O>11       0.1355
  31 F1       -0.0487     0.4250    -0.4257  F       1  <O>11      -0.2047
  32 C24       0.8920     0.1159     3.1670  C.3     1  <O>11       0.0510
  33 C25       1.9220    -0.2230     4.2721  C.3     1  <O>11       0.0960
  34 H1        4.2635    -0.9063     3.0844  H       1  <O>11       0.2881
  35 H2        5.7933    -0.0256     3.0122  H       1  <O>11       0.2881
  36 H3        4.3825     4.0115     4.5936  H       1  <O>11       0.0316
  37 H4        4.9117     3.2158     6.0957  H       1  <O>11       0.0316
  38 H5        6.4425     2.9727     3.3176  H       1  <O>11       0.0316
  39 H6        6.9717     2.1770     4.8196  H       1  <O>11       0.0316
  40 H7        2.3640     1.7651     6.3879  H       1  <O>11       0.0726
  41 H8        2.8730     2.9220     5.1339  H       1  <O>11       0.0726
  42 H9        0.2310     1.4570     5.3190  H       1  <O>11       0.0317
  43 H10       0.5219     3.1940     5.5728  H       1  <O>11       0.0317
  44 H11      -0.5220     2.6619     3.3879  H       1  <O>11       0.0466
  45 H12       1.0350     3.5129     3.2508  H       1  <O>11       0.0466
  46 H13       5.2885    -2.1628     0.9705  H       1  <O>11       0.0377
  47 H14       5.9070    -0.6112     0.3526  H       1  <O>11       0.0377
  48 H15       4.7873    -2.4099    -4.2830  H       1  <O>11       0.1921
  49 H16      -0.1100     0.0229     3.5840  H       1  <O>11       0.0502
  50 H17       1.0130    -0.5932     2.3481  H       1  <O>11       0.0502
  51 H18       1.3850    -0.4510     5.1921  H       1  <O>11       0.0742
  52 H19       2.4950    -1.0960     3.9591  H       1  <O>11       0.0742
  53 H20       4.0531     0.5580     1.4403  H       1  <O>11       0.0629
  54 H21       8.4516    -5.1167    -3.0958  H       1  <O>11       0.0625
  55 H22       9.7472    -5.4451    -1.0791  H       1  <O>11       0.0618
  56 H23       9.1736    -4.2347     0.9413  H       1  <O>11       0.0618
  57 H24       7.3057    -2.6949     0.9406  H       1  <O>11       0.0624
  58 H25       3.3341    -2.3666    -1.5032  H       1  <O>11       0.0621
  59 H26       1.0570    -1.5522    -1.7436  H       1  <O>11       0.0646
@<TRIPOS>BOND
     1     1     2    1
     2     2     3    2
     3     3     4    1
     4     4     5    1
     5     3     5    1
     6     2     6    1
     7     6     7    1
     8     7     8    1
     9     8     9    1
    10     9    10    1
    11    10    11   am
    12    11    12    2
    13    11    13    1
    14    13    14   ar
    15    14    15   ar
    16    15    16    1
    17    16    17    1
    18    17    18   ar
    19    18    19   ar
    20    19    20   ar
    21    20    21    2
    22    20    22   ar
    23    22    23   ar
    24    23    24   ar
    25    24    25   ar
    26    25    26   ar
    27    26    27   ar
    28    17    27   ar
    29    22    27   ar
    30    15    28   ar
    31    28    29   ar
    32    29    30   ar
    33    13    30   ar
    34    30    31    1
    35    10    32    1
    36    32    33    1
    37     6    33    1
    38     1    34    1
    39     1    35    1
    40     4    36    1
    41     4    37    1
    42     5    38    1
    43     5    39    1
    44     7    40    1
    45     7    41    1
    46     8    42    1
    47     8    43    1
    48     9    44    1
    49     9    45    1
    50    16    46    1
    51    16    47    1
    52    19    48    1
    53    32    49    1
    54    32    50    1
    55    33    51    1
    56    33    52    1
    57    14    53    1
    58    23    54    1
    59    24    55    1
    60    25    56    1
    61    26    57    1
    62    28    58    1
    63    29    59    1
@<TRIPOS>MOLECULE
mol92_1_30
 59 63 0 0 0
SMALL
USER_CHARGES
****
VDW energy = -62.43
@<TRIPOS>ATOM
   1 N1        4.8233    -0.0872     3.3214  N.pl3   1  <O>11      -0.2515
   2 C1        4.2396     0.9903     4.0983  C.2     1  <O>11       0.2546
   3 C2        5.0243     2.1387     4.4305  C.2     1  <O>11       0.0151
   4 C3        4.9430     3.1730     5.0070  C.3     1  <O>11      -0.0202
   5 C4        6.1150     2.5820     4.2810  C.3     1  <O>11      -0.0202
   6 N2        2.8690     0.9030     4.5350  N.pl3   1  <O>11      -0.2241
   7 C5        2.2910     2.0220     5.3319  C.3     1  <O>11       0.0818
   8 C6        0.8280     2.3140     5.0079  C.3     1  <O>11      -0.0009
   9 C7        0.5550     2.5749     3.5289  C.3     1  <O>11       0.0185
  10 N3        1.0620     1.5018     2.6310  N.am    1  <O>11      -0.2937
  11 C8        1.6380     1.7178     1.4189  C.2     1  <O>11       0.2495
  12 O1        1.7687     2.8568     0.9982  O.2     1  <O>11      -0.2699
  13 C9        2.1002     0.5887     0.6206  C.ar    1  <O>11       0.0723
  14 C10       3.4140     0.1115     0.7618  C.ar    1  <O>11      -0.0433
  15 C11       3.8604    -0.9644    -0.0129  C.ar    1  <O>11      -0.0406
  16 C12       5.2431    -1.4548     0.1430  C.3     1  <O>11       0.0171
  17 C13       5.2780    -2.5114     1.1877  C.ar    1  <O>11       0.0736
  18 N4        5.4952    -2.1638     2.5261  N.ar    1  <O>11      -0.1750
  19 N5        5.6333    -3.1216     3.4708  N.ar    1  <O>11      -0.2425
  20 C14       5.5441    -4.4231     3.1086  C.ar    1  <O>11       0.2725
  21 O2        5.7939    -5.3689     4.1215  O.2     1  <O>11      -0.2658
  22 C15       5.2259    -4.8528     1.8126  C.ar    1  <O>11       0.0496
  23 C16       5.0752    -6.2082     1.4442  C.ar    1  <O>11      -0.0487
  24 C17       4.7894    -6.5684     0.1272  C.ar    1  <O>11      -0.0610
  25 C18       4.6557    -5.5853    -0.8466  C.ar    1  <O>11      -0.0611
  26 C19       4.8069    -4.2410    -0.5028  C.ar    1  <O>11      -0.0521
  27 C20       5.0894    -3.8566     0.8276  C.ar    1  <O>11       0.0106
  28 C21       3.0016    -1.5745    -0.9314  C.ar    1  <O>11      -0.0555
  29 C22       1.6911    -1.1021    -1.0674  C.ar    1  <O>11      -0.0254
  30 C23       1.2358    -0.0306    -0.2972  C.ar    1  <O>11       0.1355
  31 F1       -0.0497     0.4267    -0.4259  F       1  <O>11      -0.2047
  32 C24       0.8920     0.1159     3.1670  C.3     1  <O>11       0.0510
  33 C25       1.9220    -0.2230     4.2721  C.3     1  <O>11       0.0960
  34 H1        4.2635    -0.9063     3.0844  H       1  <O>11       0.2881
  35 H2        5.7933    -0.0256     3.0122  H       1  <O>11       0.2881
  36 H3        4.3825     4.0115     4.5936  H       1  <O>11       0.0316
  37 H4        4.9117     3.2158     6.0957  H       1  <O>11       0.0316
  38 H5        6.4425     2.9727     3.3176  H       1  <O>11       0.0316
  39 H6        6.9717     2.1770     4.8196  H       1  <O>11       0.0316
  40 H7        2.3640     1.7651     6.3879  H       1  <O>11       0.0726
  41 H8        2.8730     2.9220     5.1339  H       1  <O>11       0.0726
  42 H9        0.2310     1.4570     5.3190  H       1  <O>11       0.0317
  43 H10       0.5219     3.1940     5.5728  H       1  <O>11       0.0317
  44 H11      -0.5220     2.6619     3.3879  H       1  <O>11       0.0466
  45 H12       1.0350     3.5129     3.2508  H       1  <O>11       0.0466
  46 H13       5.8904    -0.6292     0.4387  H       1  <O>11       0.0377
  47 H14       5.5905    -1.8686    -0.8044  H       1  <O>11       0.0377
  48 H15       5.8016    -2.8688     4.4344  H       1  <O>11       0.1921
  49 H16      -0.1100     0.0229     3.5840  H       1  <O>11       0.0502
  50 H17       1.0130    -0.5932     2.3481  H       1  <O>11       0.0502
  51 H18       1.3850    -0.4510     5.1921  H       1  <O>11       0.0742
  52 H19       2.4950    -1.0960     3.9591  H       1  <O>11       0.0742
  53 H20       4.0523     0.5564     1.4397  H       1  <O>11       0.0629
  54 H21       5.1781    -6.9436     2.1608  H       1  <O>11       0.0625
  55 H22       4.6775    -7.5631    -0.1238  H       1  <O>11       0.0618
  56 H23       4.4450    -5.8489    -1.8218  H       1  <O>11       0.0618
  57 H24       4.7109    -3.5164    -1.2313  H       1  <O>11       0.0624
  58 H25       3.3310    -2.3668    -1.5047  H       1  <O>11       0.0621
  59 H26       1.0545    -1.5508    -1.7445  H       1  <O>11       0.0646
@<TRIPOS>BOND
     1     1     2    1
     2     2     3    2
     3     3     4    1
     4     4     5    1
     5     3     5    1
     6     2     6    1
     7     6     7    1
     8     7     8    1
     9     8     9    1
    10     9    10    1
    11    10    11   am
    12    11    12    2
    13    11    13    1
    14    13    14   ar
    15    14    15   ar
    16    15    16    1
    17    16    17    1
    18    17    18   ar
    19    18    19   ar
    20    19    20   ar
    21    20    21    2
    22    20    22   ar
    23    22    23   ar
    24    23    24   ar
    25    24    25   ar
    26    25    26   ar
    27    26    27   ar
    28    17    27   ar
    29    22    27   ar
    30    15    28   ar
    31    28    29   ar
    32    29    30   ar
    33    13    30   ar
    34    30    31    1
    35    10    32    1
    36    32    33    1
    37     6    33    1
    38     1    34    1
    39     1    35    1
    40     4    36    1
    41     4    37    1
    42     5    38    1
    43     5    39    1
    44     7    40    1
    45     7    41    1
    46     8    42    1
    47     8    43    1
    48     9    44    1
    49     9    45    1
    50    16    46    1
    51    16    47    1
    52    19    48    1
    53    32    49    1
    54    32    50    1
    55    33    51    1
    56    33    52    1
    57    14    53    1
    58    23    54    1
    59    24    55    1
    60    25    56    1
    61    26    57    1
    62    28    58    1
    63    29    59    1
