@<TRIPOS>MOLECULE
mol93_1_1
 37 39 0 0 0
SMALL
USER_CHARGES
****
VDW energy = -220.37
@<TRIPOS>ATOM
   1 N1       -1.6879    -5.6444    -0.3156  N.am    1  <O>11      -0.3129
   2 C1       -2.5742    -5.3829     0.6945  C.2     1  <O>11       0.3039
   3 O1       -2.5158    -4.3227     1.2994  O.2     1  <O>11      -0.2525
   4 N2       -3.5190    -6.3020     1.0240  N.am    1  <O>11      -0.2551
   5 C2       -3.8037    -7.6368     0.4634  C.3     1  <O>11       0.0253
   6 C3       -4.9432    -8.2615     1.2773  C.3     1  <O>11      -0.0096
   7 C4       -5.2901    -7.1600     2.2237  C.ar    1  <O>11      -0.0243
   8 C5       -6.2939    -7.1669     3.1819  C.ar    1  <O>11      -0.0550
   9 C6       -6.4497    -6.0395     3.9868  C.ar    1  <O>11      -0.0390
  10 C7       -5.6054    -4.9321     3.8268  C.ar    1  <O>11       0.0498
  11 N3       -5.7865    -3.7795     4.6716  N.pl3   1  <O>11      -0.2160
  12 S1       -7.1670    -2.8788     4.5564  S.O2    1  <O>11       0.0780
  13 O2       -7.1011    -1.6232     5.6415  O.2     1  <O>11      -0.1498
  14 O3       -8.4826    -3.8349     4.8963  O.2     1  <O>11      -0.1498
  15 C8       -7.3153    -2.2329     2.9154  C.ar    1  <O>11       0.1843
  16 C9       -6.3205    -1.3884     2.3921  C.ar    1  <O>11       0.1907
  17 F1       -5.2247    -1.0767     3.1544  F       1  <O>11      -0.2002
  18 C10      -6.4451    -0.8694     1.0998  C.ar    1  <O>11       0.1983
  19 F2       -5.4713    -0.0427     0.6007  F       1  <O>11      -0.1993
  20 C11      -7.5579    -1.1889     0.3176  C.ar    1  <O>11       0.1992
  21 F3       -7.6839    -0.6808    -0.9503  F       1  <O>11      -0.1993
  22 C12      -8.5444    -2.0324     0.8353  C.ar    1  <O>11       0.1983
  23 F4       -9.6345    -2.3421     0.0640  F       1  <O>11      -0.1993
  24 C13      -8.4292    -2.5576     2.1244  C.ar    1  <O>11       0.1907
  25 F5       -9.3922    -3.3932     2.6288  F       1  <O>11      -0.2002
  26 C14      -4.5960    -4.9375     2.8574  C.ar    1  <O>11      -0.0176
  27 C15      -4.4471    -6.0597     2.0589  C.ar    1  <O>11       0.0427
  28 H1       -1.7367    -6.5293    -0.8205  H       1  <O>11       0.1465
  29 H2       -0.9788    -4.9543    -0.5633  H       1  <O>11       0.1465
  30 H3       -4.1035    -7.5433    -0.5800  H       1  <O>11       0.0472
  31 H4       -2.9149    -8.2636     0.5318  H       1  <O>11       0.0472
  32 H5       -5.7905    -8.5164     0.6406  H       1  <O>11       0.0329
  33 H6       -4.6078    -9.1500     1.8109  H       1  <O>11       0.0329
  34 H7       -5.0627    -3.5184     5.3409  H       1  <O>11       0.1737
  35 H8       -6.9101    -7.9869     3.2959  H       1  <O>11       0.0621
  36 H9       -7.1909    -6.0200     4.7046  H       1  <O>11       0.0637
  37 H10      -3.9749    -4.1218     2.7398  H       1  <O>11       0.0655
@<TRIPOS>BOND
     1     1     2   am
     2     2     3    2
     3     2     4   am
     4     4     5    1
     5     5     6    1
     6     6     7    1
     7     7     8   ar
     8     8     9   ar
     9     9    10   ar
    10    10    11    1
    11    11    12    1
    12    12    13    2
    13    12    14    2
    14    12    15    1
    15    15    16   ar
    16    16    17    1
    17    16    18   ar
    18    18    19    1
    19    18    20   ar
    20    20    21    1
    21    20    22   ar
    22    22    23    1
    23    22    24   ar
    24    15    24   ar
    25    24    25    1
    26    10    26   ar
    27    26    27   ar
    28     7    27   ar
    29     4    27    1
    30     1    28    1
    31     1    29    1
    32     5    30    1
    33     5    31    1
    34     6    32    1
    35     6    33    1
    36    11    34    1
    37     8    35    1
    38     9    36    1
    39    26    37    1
@<TRIPOS>MOLECULE
mol93_1_2
 37 39 0 0 0
SMALL
USER_CHARGES
****
VDW energy = -217.56
@<TRIPOS>ATOM
   1 N1       -1.6879    -5.6444    -0.3156  N.am    1  <O>11      -0.3129
   2 C1       -2.5742    -5.3829     0.6945  C.2     1  <O>11       0.3039
   3 O1       -2.5158    -4.3227     1.2994  O.2     1  <O>11      -0.2525
   4 N2       -3.5190    -6.3020     1.0240  N.am    1  <O>11      -0.2551
   5 C2       -3.8037    -7.6368     0.4634  C.3     1  <O>11       0.0253
   6 C3       -4.9432    -8.2615     1.2773  C.3     1  <O>11      -0.0096
   7 C4       -5.2901    -7.1600     2.2237  C.ar    1  <O>11      -0.0243
   8 C5       -6.2939    -7.1669     3.1819  C.ar    1  <O>11      -0.0550
   9 C6       -6.4497    -6.0395     3.9868  C.ar    1  <O>11      -0.0390
  10 C7       -5.6054    -4.9321     3.8268  C.ar    1  <O>11       0.0498
  11 N3       -5.7865    -3.7795     4.6716  N.pl3   1  <O>11      -0.2160
  12 S1       -5.5068    -3.8932     6.2961  S.O2    1  <O>11       0.0780
  13 O2       -6.5181    -5.0349     6.9535  O.2     1  <O>11      -0.1498
  14 O3       -5.7941    -2.4219     7.0124  O.2     1  <O>11      -0.1498
  15 C8       -3.8242    -4.3659     6.5739  C.ar    1  <O>11       0.1843
  16 C9       -3.3348    -5.5816     6.0644  C.ar    1  <O>11       0.1907
  17 F1       -4.1640    -6.3960     5.3377  F       1  <O>11      -0.2002
  18 C10      -2.0084    -5.9591     6.2949  C.ar    1  <O>11       0.1983
  19 F2       -1.5424    -7.1492     5.7976  F       1  <O>11      -0.1993
  20 C11      -1.1584    -5.1294     7.0306  C.ar    1  <O>11       0.1992
  21 F3        0.1431    -5.4969     7.2595  F       1  <O>11      -0.1993
  22 C12      -1.6429    -3.9185     7.5327  C.ar    1  <O>11       0.1983
  23 F4       -0.8050    -3.1086     8.2546  F       1  <O>11      -0.1993
  24 C13      -2.9657    -3.5310     7.3071  C.ar    1  <O>11       0.1907
  25 F5       -3.4383    -2.3384     7.7913  F       1  <O>11      -0.2002
  26 C14      -4.5960    -4.9375     2.8574  C.ar    1  <O>11      -0.0176
  27 C15      -4.4471    -6.0597     2.0589  C.ar    1  <O>11       0.0427
  28 H1       -1.7367    -6.5293    -0.8205  H       1  <O>11       0.1465
  29 H2       -0.9788    -4.9543    -0.5633  H       1  <O>11       0.1465
  30 H3       -4.1035    -7.5433    -0.5800  H       1  <O>11       0.0472
  31 H4       -2.9149    -8.2636     0.5318  H       1  <O>11       0.0472
  32 H5       -5.7905    -8.5164     0.6406  H       1  <O>11       0.0329
  33 H6       -4.6078    -9.1500     1.8109  H       1  <O>11       0.0329
  34 H7       -6.0879    -2.8929     4.2677  H       1  <O>11       0.1737
  35 H8       -6.9101    -7.9869     3.2959  H       1  <O>11       0.0621
  36 H9       -7.1909    -6.0200     4.7046  H       1  <O>11       0.0637
  37 H10      -3.9749    -4.1218     2.7398  H       1  <O>11       0.0655
@<TRIPOS>BOND
     1     1     2   am
     2     2     3    2
     3     2     4   am
     4     4     5    1
     5     5     6    1
     6     6     7    1
     7     7     8   ar
     8     8     9   ar
     9     9    10   ar
    10    10    11    1
    11    11    12    1
    12    12    13    2
    13    12    14    2
    14    12    15    1
    15    15    16   ar
    16    16    17    1
    17    16    18   ar
    18    18    19    1
    19    18    20   ar
    20    20    21    1
    21    20    22   ar
    22    22    23    1
    23    22    24   ar
    24    15    24   ar
    25    24    25    1
    26    10    26   ar
    27    26    27   ar
    28     7    27   ar
    29     4    27    1
    30     1    28    1
    31     1    29    1
    32     5    30    1
    33     5    31    1
    34     6    32    1
    35     6    33    1
    36    11    34    1
    37     8    35    1
    38     9    36    1
    39    26    37    1
@<TRIPOS>MOLECULE
mol93_1_3
 37 39 0 0 0
SMALL
USER_CHARGES
****
VDW energy = -216.95
@<TRIPOS>ATOM
   1 N1       -1.6879    -5.6444    -0.3156  N.am    1  <O>11      -0.3129
   2 C1       -2.5742    -5.3829     0.6945  C.2     1  <O>11       0.3039
   3 O1       -2.5158    -4.3227     1.2994  O.2     1  <O>11      -0.2525
   4 N2       -3.5190    -6.3020     1.0240  N.am    1  <O>11      -0.2551
   5 C2       -3.8037    -7.6368     0.4634  C.3     1  <O>11       0.0253
   6 C3       -4.9432    -8.2615     1.2773  C.3     1  <O>11      -0.0096
   7 C4       -5.2901    -7.1600     2.2237  C.ar    1  <O>11      -0.0243
   8 C5       -6.2939    -7.1669     3.1819  C.ar    1  <O>11      -0.0550
   9 C6       -6.4497    -6.0395     3.9868  C.ar    1  <O>11      -0.0390
  10 C7       -5.6054    -4.9321     3.8268  C.ar    1  <O>11       0.0498
  11 N3       -5.7865    -3.7795     4.6716  N.pl3   1  <O>11      -0.2160
  12 S1       -4.8020    -2.4640     4.4973  S.O2    1  <O>11       0.0780
  13 O2       -3.2254    -2.9130     4.7643  O.2     1  <O>11      -0.1498
  14 O3       -5.2378    -1.2959     5.5956  O.2     1  <O>11      -0.1498
  15 C8       -4.9619    -1.8201     2.8566  C.ar    1  <O>11       0.1843
  16 C9       -6.1745    -1.9516     2.1573  C.ar    1  <O>11       0.1907
  17 F1       -7.2405    -2.5701     2.7573  F       1  <O>11      -0.2002
  18 C10      -6.2954    -1.4528     0.8567  C.ar    1  <O>11       0.1983
  19 F2       -7.4811    -1.5906     0.1816  F       1  <O>11      -0.1993
  20 C11      -5.2128    -0.8170     0.2434  C.ar    1  <O>11       0.1992
  21 F3       -5.3275    -0.3273    -1.0327  F       1  <O>11      -0.1993
  22 C12      -4.0090    -0.6814     0.9401  C.ar    1  <O>11       0.1983
  23 F4       -2.9497    -0.0576     0.3336  F       1  <O>11      -0.1993
  24 C13      -3.8777    -1.1747     2.2403  C.ar    1  <O>11       0.1907
  25 F5       -2.6998    -1.0329     2.9275  F       1  <O>11      -0.2002
  26 C14      -4.5960    -4.9375     2.8574  C.ar    1  <O>11      -0.0176
  27 C15      -4.4471    -6.0597     2.0589  C.ar    1  <O>11       0.0427
  28 H1       -1.7367    -6.5293    -0.8205  H       1  <O>11       0.1465
  29 H2       -0.9788    -4.9543    -0.5633  H       1  <O>11       0.1465
  30 H3       -4.1035    -7.5433    -0.5800  H       1  <O>11       0.0472
  31 H4       -2.9149    -8.2636     0.5318  H       1  <O>11       0.0472
  32 H5       -5.7905    -8.5164     0.6406  H       1  <O>11       0.0329
  33 H6       -4.6078    -9.1500     1.8109  H       1  <O>11       0.0329
  34 H7       -6.5220    -3.7749     5.3780  H       1  <O>11       0.1737
  35 H8       -6.9101    -7.9869     3.2959  H       1  <O>11       0.0621
  36 H9       -7.1909    -6.0200     4.7046  H       1  <O>11       0.0637
  37 H10      -3.9749    -4.1218     2.7398  H       1  <O>11       0.0655
@<TRIPOS>BOND
     1     1     2   am
     2     2     3    2
     3     2     4   am
     4     4     5    1
     5     5     6    1
     6     6     7    1
     7     7     8   ar
     8     8     9   ar
     9     9    10   ar
    10    10    11    1
    11    11    12    1
    12    12    13    2
    13    12    14    2
    14    12    15    1
    15    15    16   ar
    16    16    17    1
    17    16    18   ar
    18    18    19    1
    19    18    20   ar
    20    20    21    1
    21    20    22   ar
    22    22    23    1
    23    22    24   ar
    24    15    24   ar
    25    24    25    1
    26    10    26   ar
    27    26    27   ar
    28     7    27   ar
    29     4    27    1
    30     1    28    1
    31     1    29    1
    32     5    30    1
    33     5    31    1
    34     6    32    1
    35     6    33    1
    36    11    34    1
    37     8    35    1
    38     9    36    1
    39    26    37    1
@<TRIPOS>MOLECULE
mol93_1_4
 37 39 0 0 0
SMALL
USER_CHARGES
****
VDW energy = -216.80
@<TRIPOS>ATOM
   1 N1       -1.6879    -5.6444    -0.3156  N.am    1  <O>11      -0.3129
   2 C1       -2.5742    -5.3829     0.6945  C.2     1  <O>11       0.3039
   3 O1       -2.5158    -4.3227     1.2994  O.2     1  <O>11      -0.2525
   4 N2       -3.5190    -6.3020     1.0240  N.am    1  <O>11      -0.2551
   5 C2       -3.8037    -7.6368     0.4634  C.3     1  <O>11       0.0253
   6 C3       -4.9432    -8.2615     1.2773  C.3     1  <O>11      -0.0096
   7 C4       -5.2901    -7.1600     2.2237  C.ar    1  <O>11      -0.0243
   8 C5       -6.2939    -7.1669     3.1819  C.ar    1  <O>11      -0.0550
   9 C6       -6.4497    -6.0395     3.9868  C.ar    1  <O>11      -0.0390
  10 C7       -5.6054    -4.9321     3.8268  C.ar    1  <O>11       0.0498
  11 N3       -5.7865    -3.7795     4.6716  N.pl3   1  <O>11      -0.2160
  12 S1       -4.8012    -2.4644     4.4981  S.O2    1  <O>11       0.0780
  13 O2       -3.2250    -2.9143     4.7661  O.2     1  <O>11      -0.1498
  14 O3       -5.2372    -1.2963     5.5962  O.2     1  <O>11      -0.1498
  15 C8       -4.9597    -1.8203     2.8574  C.ar    1  <O>11       0.1843
  16 C9       -3.8747    -1.1725     2.2410  C.ar    1  <O>11       0.1907
  17 F1       -2.6852    -1.0531     2.9118  F       1  <O>11      -0.2002
  18 C10      -4.0053    -0.6538     0.9492  C.ar    1  <O>11       0.1983
  19 F2       -2.9423    -0.0196     0.3589  F       1  <O>11      -0.1993
  20 C11      -5.2144    -0.7780     0.2600  C.ar    1  <O>11       0.1992
  21 F3       -5.3464    -0.2695    -1.0071  F       1  <O>11      -0.1993
  22 C12      -6.2914    -1.4264     0.8702  C.ar    1  <O>11       0.1983
  23 F4       -7.4756    -1.5449     0.1900  F       1  <O>11      -0.1993
  24 C13      -6.1714    -1.9497     2.1597  C.ar    1  <O>11       0.1907
  25 F5       -7.2250    -2.5945     2.7547  F       1  <O>11      -0.2002
  26 C14      -4.5960    -4.9375     2.8574  C.ar    1  <O>11      -0.0176
  27 C15      -4.4471    -6.0597     2.0589  C.ar    1  <O>11       0.0427
  28 H1       -1.7367    -6.5293    -0.8205  H       1  <O>11       0.1465
  29 H2       -0.9788    -4.9543    -0.5633  H       1  <O>11       0.1465
  30 H3       -4.1035    -7.5433    -0.5800  H       1  <O>11       0.0472
  31 H4       -2.9149    -8.2636     0.5318  H       1  <O>11       0.0472
  32 H5       -5.7905    -8.5164     0.6406  H       1  <O>11       0.0329
  33 H6       -4.6078    -9.1500     1.8109  H       1  <O>11       0.0329
  34 H7       -6.5225    -3.7746     5.3775  H       1  <O>11       0.1737
  35 H8       -6.9101    -7.9869     3.2959  H       1  <O>11       0.0621
  36 H9       -7.1909    -6.0200     4.7046  H       1  <O>11       0.0637
  37 H10      -3.9749    -4.1218     2.7398  H       1  <O>11       0.0655
@<TRIPOS>BOND
     1     1     2   am
     2     2     3    2
     3     2     4   am
     4     4     5    1
     5     5     6    1
     6     6     7    1
     7     7     8   ar
     8     8     9   ar
     9     9    10   ar
    10    10    11    1
    11    11    12    1
    12    12    13    2
    13    12    14    2
    14    12    15    1
    15    15    16   ar
    16    16    17    1
    17    16    18   ar
    18    18    19    1
    19    18    20   ar
    20    20    21    1
    21    20    22   ar
    22    22    23    1
    23    22    24   ar
    24    15    24   ar
    25    24    25    1
    26    10    26   ar
    27    26    27   ar
    28     7    27   ar
    29     4    27    1
    30     1    28    1
    31     1    29    1
    32     5    30    1
    33     5    31    1
    34     6    32    1
    35     6    33    1
    36    11    34    1
    37     8    35    1
    38     9    36    1
    39    26    37    1
@<TRIPOS>MOLECULE
mol93_1_5
 37 39 0 0 0
SMALL
USER_CHARGES
****
VDW energy = -216.73
@<TRIPOS>ATOM
   1 N1       -1.6879    -5.6444    -0.3156  N.am    1  <O>11      -0.3129
   2 C1       -2.5742    -5.3829     0.6945  C.2     1  <O>11       0.3039
   3 O1       -2.5158    -4.3227     1.2994  O.2     1  <O>11      -0.2525
   4 N2       -3.5190    -6.3020     1.0240  N.am    1  <O>11      -0.2551
   5 C2       -3.8037    -7.6368     0.4634  C.3     1  <O>11       0.0253
   6 C3       -4.9432    -8.2615     1.2773  C.3     1  <O>11      -0.0096
   7 C4       -5.2901    -7.1600     2.2237  C.ar    1  <O>11      -0.0243
   8 C5       -6.2939    -7.1669     3.1819  C.ar    1  <O>11      -0.0550
   9 C6       -6.4497    -6.0395     3.9868  C.ar    1  <O>11      -0.0390
  10 C7       -5.6054    -4.9321     3.8268  C.ar    1  <O>11       0.0498
  11 N3       -5.7865    -3.7795     4.6716  N.pl3   1  <O>11      -0.2160
  12 S1       -4.9803    -3.6741     6.1101  S.O2    1  <O>11       0.0780
  13 O2       -3.3434    -3.7139     5.8316  O.2     1  <O>11      -0.1498
  14 O3       -5.4074    -4.9537     7.0800  O.2     1  <O>11      -0.1498
  15 C8       -5.4048    -2.1563     6.9150  C.ar    1  <O>11       0.1843
  16 C9       -4.4798    -1.5175     7.7595  C.ar    1  <O>11       0.1907
  17 F1       -3.2389    -2.0688     7.9474  F       1  <O>11      -0.2002
  18 C10      -4.8211    -0.3246     8.4040  C.ar    1  <O>11       0.1983
  19 F2       -3.9131     0.2878     9.2294  F       1  <O>11      -0.1993
  20 C11      -6.0830     0.2434     8.2110  C.ar    1  <O>11       0.1992
  21 F3       -6.4216     1.4130     8.8424  F       1  <O>11      -0.1993
  22 C12      -7.0008    -0.3884     7.3676  C.ar    1  <O>11       0.1983
  23 F4       -8.2378     0.1726     7.1823  F       1  <O>11      -0.1993
  24 C13      -6.6698    -1.5796     6.7176  C.ar    1  <O>11       0.1907
  25 F5       -7.5667    -2.1942     5.8824  F       1  <O>11      -0.2002
  26 C14      -4.5960    -4.9375     2.8574  C.ar    1  <O>11      -0.0176
  27 C15      -4.4471    -6.0597     2.0589  C.ar    1  <O>11       0.0427
  28 H1       -1.7367    -6.5293    -0.8205  H       1  <O>11       0.1465
  29 H2       -0.9788    -4.9543    -0.5633  H       1  <O>11       0.1465
  30 H3       -4.1035    -7.5433    -0.5800  H       1  <O>11       0.0472
  31 H4       -2.9149    -8.2636     0.5318  H       1  <O>11       0.0472
  32 H5       -5.7905    -8.5164     0.6406  H       1  <O>11       0.0329
  33 H6       -4.6078    -9.1500     1.8109  H       1  <O>11       0.0329
  34 H7       -6.4126    -3.0282     4.3827  H       1  <O>11       0.1737
  35 H8       -6.9101    -7.9869     3.2959  H       1  <O>11       0.0621
  36 H9       -7.1909    -6.0200     4.7046  H       1  <O>11       0.0637
  37 H10      -3.9749    -4.1218     2.7398  H       1  <O>11       0.0655
@<TRIPOS>BOND
     1     1     2   am
     2     2     3    2
     3     2     4   am
     4     4     5    1
     5     5     6    1
     6     6     7    1
     7     7     8   ar
     8     8     9   ar
     9     9    10   ar
    10    10    11    1
    11    11    12    1
    12    12    13    2
    13    12    14    2
    14    12    15    1
    15    15    16   ar
    16    16    17    1
    17    16    18   ar
    18    18    19    1
    19    18    20   ar
    20    20    21    1
    21    20    22   ar
    22    22    23    1
    23    22    24   ar
    24    15    24   ar
    25    24    25    1
    26    10    26   ar
    27    26    27   ar
    28     7    27   ar
    29     4    27    1
    30     1    28    1
    31     1    29    1
    32     5    30    1
    33     5    31    1
    34     6    32    1
    35     6    33    1
    36    11    34    1
    37     8    35    1
    38     9    36    1
    39    26    37    1
@<TRIPOS>MOLECULE
mol93_1_6
 37 39 0 0 0
SMALL
USER_CHARGES
****
VDW energy = -216.69
@<TRIPOS>ATOM
   1 N1       -1.6879    -5.6444    -0.3156  N.am    1  <O>11      -0.3129
   2 C1       -2.5742    -5.3829     0.6945  C.2     1  <O>11       0.3039
   3 O1       -2.5158    -4.3227     1.2994  O.2     1  <O>11      -0.2525
   4 N2       -3.5190    -6.3020     1.0240  N.am    1  <O>11      -0.2551
   5 C2       -3.8037    -7.6368     0.4634  C.3     1  <O>11       0.0253
   6 C3       -4.9432    -8.2615     1.2773  C.3     1  <O>11      -0.0096
   7 C4       -5.2901    -7.1600     2.2237  C.ar    1  <O>11      -0.0243
   8 C5       -6.2939    -7.1669     3.1819  C.ar    1  <O>11      -0.0550
   9 C6       -6.4497    -6.0395     3.9868  C.ar    1  <O>11      -0.0390
  10 C7       -5.6054    -4.9321     3.8268  C.ar    1  <O>11       0.0498
  11 N3       -5.7865    -3.7795     4.6716  N.pl3   1  <O>11      -0.2160
  12 S1       -5.5068    -3.8932     6.2961  S.O2    1  <O>11       0.0780
  13 O2       -3.9275    -4.3368     6.5563  O.2     1  <O>11      -0.1498
  14 O3       -6.5177    -5.0358     6.9541  O.2     1  <O>11      -0.1498
  15 C8       -5.8123    -2.3258     7.0589  C.ar    1  <O>11       0.1843
  16 C9       -5.1018    -1.9465     8.2115  C.ar    1  <O>11       0.1907
  17 F1       -4.1588    -2.7916     8.7363  F       1  <O>11      -0.2002
  18 C10      -5.3529    -0.7128     8.8197  C.ar    1  <O>11       0.1983
  19 F2       -4.6578    -0.3546     9.9463  F       1  <O>11      -0.1993
  20 C11      -6.3096     0.1536     8.2848  C.ar    1  <O>11       0.1992
  21 F3       -6.5592     1.3642     8.8794  F       1  <O>11      -0.1993
  22 C12      -7.0123    -0.2207     7.1363  C.ar    1  <O>11       0.1983
  23 F4       -7.9504     0.6328     6.6160  F       1  <O>11      -0.1993
  24 C13      -6.7683    -1.4500     6.5198  C.ar    1  <O>11       0.1907
  25 F5       -7.4507    -1.8131     5.3873  F       1  <O>11      -0.2002
  26 C14      -4.5960    -4.9375     2.8574  C.ar    1  <O>11      -0.0176
  27 C15      -4.4471    -6.0597     2.0589  C.ar    1  <O>11       0.0427
  28 H1       -1.7367    -6.5293    -0.8205  H       1  <O>11       0.1465
  29 H2       -0.9788    -4.9543    -0.5633  H       1  <O>11       0.1465
  30 H3       -4.1035    -7.5433    -0.5800  H       1  <O>11       0.0472
  31 H4       -2.9149    -8.2636     0.5318  H       1  <O>11       0.0472
  32 H5       -5.7905    -8.5164     0.6406  H       1  <O>11       0.0329
  33 H6       -4.6078    -9.1500     1.8109  H       1  <O>11       0.0329
  34 H7       -6.0879    -2.8929     4.2677  H       1  <O>11       0.1737
  35 H8       -6.9101    -7.9869     3.2959  H       1  <O>11       0.0621
  36 H9       -7.1909    -6.0200     4.7046  H       1  <O>11       0.0637
  37 H10      -3.9749    -4.1218     2.7398  H       1  <O>11       0.0655
@<TRIPOS>BOND
     1     1     2   am
     2     2     3    2
     3     2     4   am
     4     4     5    1
     5     5     6    1
     6     6     7    1
     7     7     8   ar
     8     8     9   ar
     9     9    10   ar
    10    10    11    1
    11    11    12    1
    12    12    13    2
    13    12    14    2
    14    12    15    1
    15    15    16   ar
    16    16    17    1
    17    16    18   ar
    18    18    19    1
    19    18    20   ar
    20    20    21    1
    21    20    22   ar
    22    22    23    1
    23    22    24   ar
    24    15    24   ar
    25    24    25    1
    26    10    26   ar
    27    26    27   ar
    28     7    27   ar
    29     4    27    1
    30     1    28    1
    31     1    29    1
    32     5    30    1
    33     5    31    1
    34     6    32    1
    35     6    33    1
    36    11    34    1
    37     8    35    1
    38     9    36    1
    39    26    37    1
@<TRIPOS>MOLECULE
mol93_1_7
 37 39 0 0 0
SMALL
USER_CHARGES
****
VDW energy = -216.67
@<TRIPOS>ATOM
   1 N1       -1.6879    -5.6444    -0.3156  N.am    1  <O>11      -0.3129
   2 C1       -2.5742    -5.3829     0.6945  C.2     1  <O>11       0.3039
   3 O1       -2.5158    -4.3227     1.2994  O.2     1  <O>11      -0.2525
   4 N2       -3.5190    -6.3020     1.0240  N.am    1  <O>11      -0.2551
   5 C2       -3.8037    -7.6368     0.4634  C.3     1  <O>11       0.0253
   6 C3       -4.9432    -8.2615     1.2773  C.3     1  <O>11      -0.0096
   7 C4       -5.2901    -7.1600     2.2237  C.ar    1  <O>11      -0.0243
   8 C5       -6.2939    -7.1669     3.1819  C.ar    1  <O>11      -0.0550
   9 C6       -6.4497    -6.0395     3.9868  C.ar    1  <O>11      -0.0390
  10 C7       -5.6054    -4.9321     3.8268  C.ar    1  <O>11       0.0498
  11 N3       -5.7865    -3.7795     4.6716  N.pl3   1  <O>11      -0.2160
  12 S1       -5.5068    -3.8932     6.2961  S.O2    1  <O>11       0.0780
  13 O2       -5.7935    -2.4220     7.0116  O.2     1  <O>11      -0.1498
  14 O3       -3.9269    -4.3364     6.5569  O.2     1  <O>11      -0.1498
  15 C8       -6.5841    -5.1097     6.9970  C.ar    1  <O>11       0.1843
  16 C9       -7.9791    -4.9587     6.9077  C.ar    1  <O>11       0.1907
  17 F1       -8.5041    -3.8695     6.2618  F       1  <O>11      -0.2002
  18 C10      -8.8289    -5.9148     7.4724  C.ar    1  <O>11       0.1983
  19 F2      -10.1881    -5.7555     7.3838  F       1  <O>11      -0.1993
  20 C11      -8.2979    -7.0291     8.1270  C.ar    1  <O>11       0.1992
  21 F3       -9.1284    -7.9685     8.6829  F       1  <O>11      -0.1993
  22 C12      -6.9114    -7.1823     8.2114  C.ar    1  <O>11       0.1983
  23 F4       -6.3956    -8.2770     8.8554  F       1  <O>11      -0.1993
  24 C13      -6.0534    -6.2341     7.6496  C.ar    1  <O>11       0.1907
  25 F5       -4.6931    -6.3894     7.7238  F       1  <O>11      -0.2002
  26 C14      -4.5960    -4.9375     2.8574  C.ar    1  <O>11      -0.0176
  27 C15      -4.4471    -6.0597     2.0589  C.ar    1  <O>11       0.0427
  28 H1       -1.7367    -6.5293    -0.8205  H       1  <O>11       0.1465
  29 H2       -0.9788    -4.9543    -0.5633  H       1  <O>11       0.1465
  30 H3       -4.1035    -7.5433    -0.5800  H       1  <O>11       0.0472
  31 H4       -2.9149    -8.2636     0.5318  H       1  <O>11       0.0472
  32 H5       -5.7905    -8.5164     0.6406  H       1  <O>11       0.0329
  33 H6       -4.6078    -9.1500     1.8109  H       1  <O>11       0.0329
  34 H7       -6.0879    -2.8929     4.2677  H       1  <O>11       0.1737
  35 H8       -6.9101    -7.9869     3.2959  H       1  <O>11       0.0621
  36 H9       -7.1909    -6.0200     4.7046  H       1  <O>11       0.0637
  37 H10      -3.9749    -4.1218     2.7398  H       1  <O>11       0.0655
@<TRIPOS>BOND
     1     1     2   am
     2     2     3    2
     3     2     4   am
     4     4     5    1
     5     5     6    1
     6     6     7    1
     7     7     8   ar
     8     8     9   ar
     9     9    10   ar
    10    10    11    1
    11    11    12    1
    12    12    13    2
    13    12    14    2
    14    12    15    1
    15    15    16   ar
    16    16    17    1
    17    16    18   ar
    18    18    19    1
    19    18    20   ar
    20    20    21    1
    21    20    22   ar
    22    22    23    1
    23    22    24   ar
    24    15    24   ar
    25    24    25    1
    26    10    26   ar
    27    26    27   ar
    28     7    27   ar
    29     4    27    1
    30     1    28    1
    31     1    29    1
    32     5    30    1
    33     5    31    1
    34     6    32    1
    35     6    33    1
    36    11    34    1
    37     8    35    1
    38     9    36    1
    39    26    37    1
@<TRIPOS>MOLECULE
mol93_1_8
 37 39 0 0 0
SMALL
USER_CHARGES
****
VDW energy = -216.67
@<TRIPOS>ATOM
   1 N1       -1.6879    -5.6444    -0.3156  N.am    1  <O>11      -0.3129
   2 C1       -2.5742    -5.3829     0.6945  C.2     1  <O>11       0.3039
   3 O1       -2.5158    -4.3227     1.2994  O.2     1  <O>11      -0.2525
   4 N2       -3.5190    -6.3020     1.0240  N.am    1  <O>11      -0.2551
   5 C2       -3.8037    -7.6368     0.4634  C.3     1  <O>11       0.0253
   6 C3       -4.9432    -8.2615     1.2773  C.3     1  <O>11      -0.0096
   7 C4       -5.2901    -7.1600     2.2237  C.ar    1  <O>11      -0.0243
   8 C5       -6.2939    -7.1669     3.1819  C.ar    1  <O>11      -0.0550
   9 C6       -6.4497    -6.0395     3.9868  C.ar    1  <O>11      -0.0390
  10 C7       -5.6054    -4.9321     3.8268  C.ar    1  <O>11       0.0498
  11 N3       -5.7865    -3.7795     4.6716  N.pl3   1  <O>11      -0.2160
  12 S1       -5.5068    -3.8932     6.2961  S.O2    1  <O>11       0.0780
  13 O2       -6.5181    -5.0349     6.9535  O.2     1  <O>11      -0.1498
  14 O3       -5.7941    -2.4219     7.0124  O.2     1  <O>11      -0.1498
  15 C8       -3.8242    -4.3659     6.5739  C.ar    1  <O>11       0.1843
  16 C9       -3.4761    -5.1182     7.7096  C.ar    1  <O>11       0.1907
  17 F1       -4.4496    -5.4974     8.5970  F       1  <O>11      -0.2002
  18 C10      -2.1445    -5.4807     7.9336  C.ar    1  <O>11       0.1983
  19 F2       -1.8151    -6.2105     9.0470  F       1  <O>11      -0.1993
  20 C11      -1.1500    -5.1007     7.0287  C.ar    1  <O>11       0.1992
  21 F3        0.1575    -5.4538     7.2457  F       1  <O>11      -0.1993
  22 C12      -1.4962    -4.3575     5.8970  C.ar    1  <O>11       0.1983
  23 F4       -0.5166    -3.9865     5.0128  F       1  <O>11      -0.1993
  24 C13      -2.8235    -3.9913     5.6627  C.ar    1  <O>11       0.1907
  25 F5       -3.1647    -3.2705     4.5473  F       1  <O>11      -0.2002
  26 C14      -4.5960    -4.9375     2.8574  C.ar    1  <O>11      -0.0176
  27 C15      -4.4471    -6.0597     2.0589  C.ar    1  <O>11       0.0427
  28 H1       -1.7367    -6.5293    -0.8205  H       1  <O>11       0.1465
  29 H2       -0.9788    -4.9543    -0.5633  H       1  <O>11       0.1465
  30 H3       -4.1035    -7.5433    -0.5800  H       1  <O>11       0.0472
  31 H4       -2.9149    -8.2636     0.5318  H       1  <O>11       0.0472
  32 H5       -5.7905    -8.5164     0.6406  H       1  <O>11       0.0329
  33 H6       -4.6078    -9.1500     1.8109  H       1  <O>11       0.0329
  34 H7       -6.0879    -2.8929     4.2677  H       1  <O>11       0.1737
  35 H8       -6.9101    -7.9869     3.2959  H       1  <O>11       0.0621
  36 H9       -7.1909    -6.0200     4.7046  H       1  <O>11       0.0637
  37 H10      -3.9749    -4.1218     2.7398  H       1  <O>11       0.0655
@<TRIPOS>BOND
     1     1     2   am
     2     2     3    2
     3     2     4   am
     4     4     5    1
     5     5     6    1
     6     6     7    1
     7     7     8   ar
     8     8     9   ar
     9     9    10   ar
    10    10    11    1
    11    11    12    1
    12    12    13    2
    13    12    14    2
    14    12    15    1
    15    15    16   ar
    16    16    17    1
    17    16    18   ar
    18    18    19    1
    19    18    20   ar
    20    20    21    1
    21    20    22   ar
    22    22    23    1
    23    22    24   ar
    24    15    24   ar
    25    24    25    1
    26    10    26   ar
    27    26    27   ar
    28     7    27   ar
    29     4    27    1
    30     1    28    1
    31     1    29    1
    32     5    30    1
    33     5    31    1
    34     6    32    1
    35     6    33    1
    36    11    34    1
    37     8    35    1
    38     9    36    1
    39    26    37    1
@<TRIPOS>MOLECULE
mol93_1_9
 37 39 0 0 0
SMALL
USER_CHARGES
****
VDW energy = -216.65
@<TRIPOS>ATOM
   1 N1       -1.6879    -5.6444    -0.3156  N.am    1  <O>11      -0.3129
   2 C1       -2.5742    -5.3829     0.6945  C.2     1  <O>11       0.3039
   3 O1       -2.5158    -4.3227     1.2994  O.2     1  <O>11      -0.2525
   4 N2       -3.5190    -6.3020     1.0240  N.am    1  <O>11      -0.2551
   5 C2       -3.8037    -7.6368     0.4634  C.3     1  <O>11       0.0253
   6 C3       -4.9432    -8.2615     1.2773  C.3     1  <O>11      -0.0096
   7 C4       -5.2901    -7.1600     2.2237  C.ar    1  <O>11      -0.0243
   8 C5       -6.2939    -7.1669     3.1819  C.ar    1  <O>11      -0.0550
   9 C6       -6.4497    -6.0395     3.9868  C.ar    1  <O>11      -0.0390
  10 C7       -5.6054    -4.9321     3.8268  C.ar    1  <O>11       0.0498
  11 N3       -5.7865    -3.7795     4.6716  N.pl3   1  <O>11      -0.2160
  12 S1       -6.8005    -2.5620     4.2027  S.O2    1  <O>11       0.0780
  13 O2       -8.3366    -3.1638     4.0109  O.2     1  <O>11      -0.1498
  14 O3       -6.2724    -1.9247     2.7621  O.2     1  <O>11      -0.1498
  15 C8       -6.8134    -1.2955     5.4386  C.ar    1  <O>11       0.1843
  16 C9       -5.6751    -1.0648     6.2309  C.ar    1  <O>11       0.1907
  17 F1       -4.5465    -1.8173     6.0332  F       1  <O>11      -0.2002
  18 C10      -5.6911    -0.0716     7.2150  C.ar    1  <O>11       0.1983
  19 F2       -4.5769     0.1421     7.9855  F       1  <O>11      -0.1993
  20 C11      -6.8376     0.7012     7.4161  C.ar    1  <O>11       0.1992
  21 F3       -6.8572     1.6757     8.3812  F       1  <O>11      -0.1993
  22 C12      -7.9675     0.4758     6.6254  C.ar    1  <O>11       0.1983
  23 F4       -9.0900     1.2362     6.8274  F       1  <O>11      -0.1993
  24 C13      -7.9620    -0.5127     5.6385  C.ar    1  <O>11       0.1907
  25 F5       -9.0672    -0.7272     4.8560  F       1  <O>11      -0.2002
  26 C14      -4.5960    -4.9375     2.8574  C.ar    1  <O>11      -0.0176
  27 C15      -4.4471    -6.0597     2.0589  C.ar    1  <O>11       0.0427
  28 H1       -1.7367    -6.5293    -0.8205  H       1  <O>11       0.1465
  29 H2       -0.9788    -4.9543    -0.5633  H       1  <O>11       0.1465
  30 H3       -4.1035    -7.5433    -0.5800  H       1  <O>11       0.0472
  31 H4       -2.9149    -8.2636     0.5318  H       1  <O>11       0.0472
  32 H5       -5.7905    -8.5164     0.6406  H       1  <O>11       0.0329
  33 H6       -4.6078    -9.1500     1.8109  H       1  <O>11       0.0329
  34 H7       -5.2887    -3.7139     5.5592  H       1  <O>11       0.1737
  35 H8       -6.9101    -7.9869     3.2959  H       1  <O>11       0.0621
  36 H9       -7.1909    -6.0200     4.7046  H       1  <O>11       0.0637
  37 H10      -3.9749    -4.1218     2.7398  H       1  <O>11       0.0655
@<TRIPOS>BOND
     1     1     2   am
     2     2     3    2
     3     2     4   am
     4     4     5    1
     5     5     6    1
     6     6     7    1
     7     7     8   ar
     8     8     9   ar
     9     9    10   ar
    10    10    11    1
    11    11    12    1
    12    12    13    2
    13    12    14    2
    14    12    15    1
    15    15    16   ar
    16    16    17    1
    17    16    18   ar
    18    18    19    1
    19    18    20   ar
    20    20    21    1
    21    20    22   ar
    22    22    23    1
    23    22    24   ar
    24    15    24   ar
    25    24    25    1
    26    10    26   ar
    27    26    27   ar
    28     7    27   ar
    29     4    27    1
    30     1    28    1
    31     1    29    1
    32     5    30    1
    33     5    31    1
    34     6    32    1
    35     6    33    1
    36    11    34    1
    37     8    35    1
    38     9    36    1
    39    26    37    1
@<TRIPOS>MOLECULE
mol93_1_10
 37 39 0 0 0
SMALL
USER_CHARGES
****
VDW energy = -216.55
@<TRIPOS>ATOM
   1 N1       -1.6879    -5.6444    -0.3156  N.am    1  <O>11      -0.3129
   2 C1       -2.5742    -5.3829     0.6945  C.2     1  <O>11       0.3039
   3 O1       -2.5158    -4.3227     1.2994  O.2     1  <O>11      -0.2525
   4 N2       -3.5190    -6.3020     1.0240  N.am    1  <O>11      -0.2551
   5 C2       -3.8037    -7.6368     0.4634  C.3     1  <O>11       0.0253
   6 C3       -4.9432    -8.2615     1.2773  C.3     1  <O>11      -0.0096
   7 C4       -5.2901    -7.1600     2.2237  C.ar    1  <O>11      -0.0243
   8 C5       -6.2939    -7.1669     3.1819  C.ar    1  <O>11      -0.0550
   9 C6       -6.4497    -6.0395     3.9868  C.ar    1  <O>11      -0.0390
  10 C7       -5.6054    -4.9321     3.8268  C.ar    1  <O>11       0.0498
  11 N3       -5.7865    -3.7795     4.6716  N.pl3   1  <O>11      -0.2160
  12 S1       -6.8005    -2.5620     4.2027  S.O2    1  <O>11       0.0780
  13 O2       -8.3366    -3.1638     4.0109  O.2     1  <O>11      -0.1498
  14 O3       -6.2724    -1.9247     2.7621  O.2     1  <O>11      -0.1498
  15 C8       -6.8134    -1.2955     5.4386  C.ar    1  <O>11       0.1843
  16 C9       -7.9622    -0.5098     5.6381  C.ar    1  <O>11       0.1907
  17 F1       -9.0807    -0.7377     4.8792  F       1  <O>11      -0.2002
  18 C10      -7.9667     0.4984     6.6070  C.ar    1  <O>11       0.1983
  19 F2       -9.0909     1.2622     6.7903  F       1  <O>11      -0.1993
  20 C11      -6.8305     0.7304     7.3863  C.ar    1  <O>11       0.1992
  21 F3       -6.8310     1.7191     8.3370  F       1  <O>11      -0.1993
  22 C12      -5.6902    -0.0537     7.1919  C.ar    1  <O>11       0.1983
  23 F4       -4.5779     0.1785     7.9586  F       1  <O>11      -0.1993
  24 C13      -5.6753    -1.0644     6.2280  C.ar    1  <O>11       0.1907
  25 F5       -4.5599    -1.8403     6.0440  F       1  <O>11      -0.2002
  26 C14      -4.5960    -4.9375     2.8574  C.ar    1  <O>11      -0.0176
  27 C15      -4.4471    -6.0597     2.0589  C.ar    1  <O>11       0.0427
  28 H1       -1.7367    -6.5293    -0.8205  H       1  <O>11       0.1465
  29 H2       -0.9788    -4.9543    -0.5633  H       1  <O>11       0.1465
  30 H3       -4.1035    -7.5433    -0.5800  H       1  <O>11       0.0472
  31 H4       -2.9149    -8.2636     0.5318  H       1  <O>11       0.0472
  32 H5       -5.7905    -8.5164     0.6406  H       1  <O>11       0.0329
  33 H6       -4.6078    -9.1500     1.8109  H       1  <O>11       0.0329
  34 H7       -5.2887    -3.7139     5.5592  H       1  <O>11       0.1737
  35 H8       -6.9101    -7.9869     3.2959  H       1  <O>11       0.0621
  36 H9       -7.1909    -6.0200     4.7046  H       1  <O>11       0.0637
  37 H10      -3.9749    -4.1218     2.7398  H       1  <O>11       0.0655
@<TRIPOS>BOND
     1     1     2   am
     2     2     3    2
     3     2     4   am
     4     4     5    1
     5     5     6    1
     6     6     7    1
     7     7     8   ar
     8     8     9   ar
     9     9    10   ar
    10    10    11    1
    11    11    12    1
    12    12    13    2
    13    12    14    2
    14    12    15    1
    15    15    16   ar
    16    16    17    1
    17    16    18   ar
    18    18    19    1
    19    18    20   ar
    20    20    21    1
    21    20    22   ar
    22    22    23    1
    23    22    24   ar
    24    15    24   ar
    25    24    25    1
    26    10    26   ar
    27    26    27   ar
    28     7    27   ar
    29     4    27    1
    30     1    28    1
    31     1    29    1
    32     5    30    1
    33     5    31    1
    34     6    32    1
    35     6    33    1
    36    11    34    1
    37     8    35    1
    38     9    36    1
    39    26    37    1
@<TRIPOS>MOLECULE
mol93_1_11
 37 39 0 0 0
SMALL
USER_CHARGES
****
VDW energy = -216.40
@<TRIPOS>ATOM
   1 N1       -1.6879    -5.6444    -0.3156  N.am    1  <O>11      -0.3129
   2 C1       -2.5742    -5.3829     0.6945  C.2     1  <O>11       0.3039
   3 O1       -2.5158    -4.3227     1.2994  O.2     1  <O>11      -0.2525
   4 N2       -3.5190    -6.3020     1.0240  N.am    1  <O>11      -0.2551
   5 C2       -3.8037    -7.6368     0.4634  C.3     1  <O>11       0.0253
   6 C3       -4.9432    -8.2615     1.2773  C.3     1  <O>11      -0.0096
   7 C4       -5.2901    -7.1600     2.2237  C.ar    1  <O>11      -0.0243
   8 C5       -6.2939    -7.1669     3.1819  C.ar    1  <O>11      -0.0550
   9 C6       -6.4497    -6.0395     3.9868  C.ar    1  <O>11      -0.0390
  10 C7       -5.6054    -4.9321     3.8268  C.ar    1  <O>11       0.0498
  11 N3       -5.7865    -3.7795     4.6716  N.pl3   1  <O>11      -0.2160
  12 S1       -7.1670    -2.8788     4.5564  S.O2    1  <O>11       0.0780
  13 O2       -8.4819    -3.8351     4.8956  O.2     1  <O>11      -0.1498
  14 O3       -7.3067    -2.2730     3.0156  O.2     1  <O>11      -0.1498
  15 C8       -7.0971    -1.5407     5.7123  C.ar    1  <O>11       0.1843
  16 C9       -5.8600    -0.9801     6.0758  C.ar    1  <O>11       0.1907
  17 F1       -4.7051    -1.4659     5.5197  F       1  <O>11      -0.2002
  18 C10      -5.8058     0.0692     6.9983  C.ar    1  <O>11       0.1983
  19 F2       -4.5935     0.6056     7.3495  F       1  <O>11      -0.1993
  20 C11      -6.9810     0.5708     7.5634  C.ar    1  <O>11       0.1992
  21 F3       -6.9315     1.5994     8.4693  F       1  <O>11      -0.1993
  22 C12      -8.2113     0.0174     7.1985  C.ar    1  <O>11       0.1983
  23 F4       -9.3613     0.5126     7.7564  F       1  <O>11      -0.1993
  24 C13      -8.2772    -1.0300     6.2768  C.ar    1  <O>11       0.1907
  25 F5       -9.4849    -1.5663     5.9113  F       1  <O>11      -0.2002
  26 C14      -4.5960    -4.9375     2.8574  C.ar    1  <O>11      -0.0176
  27 C15      -4.4471    -6.0597     2.0589  C.ar    1  <O>11       0.0427
  28 H1       -1.7367    -6.5293    -0.8205  H       1  <O>11       0.1465
  29 H2       -0.9788    -4.9543    -0.5633  H       1  <O>11       0.1465
  30 H3       -4.1035    -7.5433    -0.5800  H       1  <O>11       0.0472
  31 H4       -2.9149    -8.2636     0.5318  H       1  <O>11       0.0472
  32 H5       -5.7905    -8.5164     0.6406  H       1  <O>11       0.0329
  33 H6       -4.6078    -9.1500     1.8109  H       1  <O>11       0.0329
  34 H7       -5.0627    -3.5184     5.3409  H       1  <O>11       0.1737
  35 H8       -6.9101    -7.9869     3.2959  H       1  <O>11       0.0621
  36 H9       -7.1909    -6.0200     4.7046  H       1  <O>11       0.0637
  37 H10      -3.9749    -4.1218     2.7398  H       1  <O>11       0.0655
@<TRIPOS>BOND
     1     1     2   am
     2     2     3    2
     3     2     4   am
     4     4     5    1
     5     5     6    1
     6     6     7    1
     7     7     8   ar
     8     8     9   ar
     9     9    10   ar
    10    10    11    1
    11    11    12    1
    12    12    13    2
    13    12    14    2
    14    12    15    1
    15    15    16   ar
    16    16    17    1
    17    16    18   ar
    18    18    19    1
    19    18    20   ar
    20    20    21    1
    21    20    22   ar
    22    22    23    1
    23    22    24   ar
    24    15    24   ar
    25    24    25    1
    26    10    26   ar
    27    26    27   ar
    28     7    27   ar
    29     4    27    1
    30     1    28    1
    31     1    29    1
    32     5    30    1
    33     5    31    1
    34     6    32    1
    35     6    33    1
    36    11    34    1
    37     8    35    1
    38     9    36    1
    39    26    37    1
@<TRIPOS>MOLECULE
mol93_1_12
 37 39 0 0 0
SMALL
USER_CHARGES
****
VDW energy = -216.29
@<TRIPOS>ATOM
   1 N1       -1.6879    -5.6444    -0.3156  N.am    1  <O>11      -0.3129
   2 C1       -2.5742    -5.3829     0.6945  C.2     1  <O>11       0.3039
   3 O1       -2.5158    -4.3227     1.2994  O.2     1  <O>11      -0.2525
   4 N2       -3.5190    -6.3020     1.0240  N.am    1  <O>11      -0.2551
   5 C2       -3.8037    -7.6368     0.4634  C.3     1  <O>11       0.0253
   6 C3       -4.9432    -8.2615     1.2773  C.3     1  <O>11      -0.0096
   7 C4       -5.2901    -7.1600     2.2237  C.ar    1  <O>11      -0.0243
   8 C5       -6.2939    -7.1669     3.1819  C.ar    1  <O>11      -0.0550
   9 C6       -6.4497    -6.0395     3.9868  C.ar    1  <O>11      -0.0390
  10 C7       -5.6054    -4.9321     3.8268  C.ar    1  <O>11       0.0498
  11 N3       -5.7865    -3.7795     4.6716  N.pl3   1  <O>11      -0.2160
  12 S1       -7.1670    -2.8788     4.5564  S.O2    1  <O>11       0.0780
  13 O2       -8.4819    -3.8351     4.8956  O.2     1  <O>11      -0.1498
  14 O3       -7.3067    -2.2730     3.0156  O.2     1  <O>11      -0.1498
  15 C8       -7.0971    -1.5407     5.7123  C.ar    1  <O>11       0.1843
  16 C9       -8.2782    -1.0273     6.2765  C.ar    1  <O>11       0.1907
  17 F1       -9.4872    -1.5774     5.9378  F       1  <O>11      -0.2002
  18 C10      -8.2221     0.0378     7.1806  C.ar    1  <O>11       0.1983
  19 F2       -9.3805     0.5341     7.7215  F       1  <O>11      -0.1993
  20 C11      -6.9915     0.5979     7.5326  C.ar    1  <O>11       0.1992
  21 F3       -6.9327     1.6434     8.4185  F       1  <O>11      -0.1993
  22 C12      -5.8169     0.0846     6.9761  C.ar    1  <O>11       0.1983
  23 F4       -4.6121     0.6382     7.3241  F       1  <O>11      -0.1993
  24 C13      -5.8612    -0.9802     6.0732  C.ar    1  <O>11       0.1907
  25 F5       -4.7081    -1.4903     5.5347  F       1  <O>11      -0.2002
  26 C14      -4.5960    -4.9375     2.8574  C.ar    1  <O>11      -0.0176
  27 C15      -4.4471    -6.0597     2.0589  C.ar    1  <O>11       0.0427
  28 H1       -1.7367    -6.5293    -0.8205  H       1  <O>11       0.1465
  29 H2       -0.9788    -4.9543    -0.5633  H       1  <O>11       0.1465
  30 H3       -4.1035    -7.5433    -0.5800  H       1  <O>11       0.0472
  31 H4       -2.9149    -8.2636     0.5318  H       1  <O>11       0.0472
  32 H5       -5.7905    -8.5164     0.6406  H       1  <O>11       0.0329
  33 H6       -4.6078    -9.1500     1.8109  H       1  <O>11       0.0329
  34 H7       -5.0627    -3.5184     5.3409  H       1  <O>11       0.1737
  35 H8       -6.9101    -7.9869     3.2959  H       1  <O>11       0.0621
  36 H9       -7.1909    -6.0200     4.7046  H       1  <O>11       0.0637
  37 H10      -3.9749    -4.1218     2.7398  H       1  <O>11       0.0655
@<TRIPOS>BOND
     1     1     2   am
     2     2     3    2
     3     2     4   am
     4     4     5    1
     5     5     6    1
     6     6     7    1
     7     7     8   ar
     8     8     9   ar
     9     9    10   ar
    10    10    11    1
    11    11    12    1
    12    12    13    2
    13    12    14    2
    14    12    15    1
    15    15    16   ar
    16    16    17    1
    17    16    18   ar
    18    18    19    1
    19    18    20   ar
    20    20    21    1
    21    20    22   ar
    22    22    23    1
    23    22    24   ar
    24    15    24   ar
    25    24    25    1
    26    10    26   ar
    27    26    27   ar
    28     7    27   ar
    29     4    27    1
    30     1    28    1
    31     1    29    1
    32     5    30    1
    33     5    31    1
    34     6    32    1
    35     6    33    1
    36    11    34    1
    37     8    35    1
    38     9    36    1
    39    26    37    1
@<TRIPOS>MOLECULE
mol93_1_13
 37 39 0 0 0
SMALL
USER_CHARGES
****
VDW energy = -216.05
@<TRIPOS>ATOM
   1 N1       -1.6879    -5.6444    -0.3156  N.am    1  <O>11      -0.3129
   2 C1       -2.5742    -5.3829     0.6945  C.2     1  <O>11       0.3039
   3 O1       -2.5158    -4.3227     1.2994  O.2     1  <O>11      -0.2525
   4 N2       -3.5190    -6.3020     1.0240  N.am    1  <O>11      -0.2551
   5 C2       -3.8037    -7.6368     0.4634  C.3     1  <O>11       0.0253
   6 C3       -4.9432    -8.2615     1.2773  C.3     1  <O>11      -0.0096
   7 C4       -5.2901    -7.1600     2.2237  C.ar    1  <O>11      -0.0243
   8 C5       -6.2939    -7.1669     3.1819  C.ar    1  <O>11      -0.0550
   9 C6       -6.4497    -6.0395     3.9868  C.ar    1  <O>11      -0.0390
  10 C7       -5.6054    -4.9321     3.8268  C.ar    1  <O>11       0.0498
  11 N3       -5.7865    -3.7795     4.6716  N.pl3   1  <O>11      -0.2160
  12 S1       -7.1670    -2.8788     4.5564  S.O2    1  <O>11       0.0780
  13 O2       -8.4819    -3.8351     4.8956  O.2     1  <O>11      -0.1498
  14 O3       -7.3067    -2.2730     3.0156  O.2     1  <O>11      -0.1498
  15 C8       -7.0971    -1.5407     5.7123  C.ar    1  <O>11       0.1843
  16 C9       -6.9795    -1.7975     7.0897  C.ar    1  <O>11       0.1907
  17 F1       -6.9050    -3.0918     7.5349  F       1  <O>11      -0.2002
  18 C10      -6.9364    -0.7393     8.0025  C.ar    1  <O>11       0.1983
  19 F2       -6.8263    -1.0010     9.3442  F       1  <O>11      -0.1993
  20 C11      -7.0068     0.5815     7.5524  C.ar    1  <O>11       0.1992
  21 F3       -6.9657     1.6221     8.4452  F       1  <O>11      -0.1993
  22 C12      -7.1184     0.8375     6.1832  C.ar    1  <O>11       0.1983
  23 F4       -7.1879     2.1351     5.7469  F       1  <O>11      -0.1993
  24 C13      -7.1608    -0.2120     5.2624  C.ar    1  <O>11       0.1907
  25 F5       -7.2604     0.0393     3.9182  F       1  <O>11      -0.2002
  26 C14      -4.5960    -4.9375     2.8574  C.ar    1  <O>11      -0.0176
  27 C15      -4.4471    -6.0597     2.0589  C.ar    1  <O>11       0.0427
  28 H1       -1.7367    -6.5293    -0.8205  H       1  <O>11       0.1465
  29 H2       -0.9788    -4.9543    -0.5633  H       1  <O>11       0.1465
  30 H3       -4.1035    -7.5433    -0.5800  H       1  <O>11       0.0472
  31 H4       -2.9149    -8.2636     0.5318  H       1  <O>11       0.0472
  32 H5       -5.7905    -8.5164     0.6406  H       1  <O>11       0.0329
  33 H6       -4.6078    -9.1500     1.8109  H       1  <O>11       0.0329
  34 H7       -5.0627    -3.5184     5.3409  H       1  <O>11       0.1737
  35 H8       -6.9101    -7.9869     3.2959  H       1  <O>11       0.0621
  36 H9       -7.1909    -6.0200     4.7046  H       1  <O>11       0.0637
  37 H10      -3.9749    -4.1218     2.7398  H       1  <O>11       0.0655
@<TRIPOS>BOND
     1     1     2   am
     2     2     3    2
     3     2     4   am
     4     4     5    1
     5     5     6    1
     6     6     7    1
     7     7     8   ar
     8     8     9   ar
     9     9    10   ar
    10    10    11    1
    11    11    12    1
    12    12    13    2
    13    12    14    2
    14    12    15    1
    15    15    16   ar
    16    16    17    1
    17    16    18   ar
    18    18    19    1
    19    18    20   ar
    20    20    21    1
    21    20    22   ar
    22    22    23    1
    23    22    24   ar
    24    15    24   ar
    25    24    25    1
    26    10    26   ar
    27    26    27   ar
    28     7    27   ar
    29     4    27    1
    30     1    28    1
    31     1    29    1
    32     5    30    1
    33     5    31    1
    34     6    32    1
    35     6    33    1
    36    11    34    1
    37     8    35    1
    38     9    36    1
    39    26    37    1
@<TRIPOS>MOLECULE
mol93_1_14
 37 39 0 0 0
SMALL
USER_CHARGES
****
VDW energy = -216.01
@<TRIPOS>ATOM
   1 N1       -1.6879    -5.6444    -0.3156  N.am    1  <O>11      -0.3129
   2 C1       -2.5742    -5.3829     0.6945  C.2     1  <O>11       0.3039
   3 O1       -2.5158    -4.3227     1.2994  O.2     1  <O>11      -0.2525
   4 N2       -3.5190    -6.3020     1.0240  N.am    1  <O>11      -0.2551
   5 C2       -3.8037    -7.6368     0.4634  C.3     1  <O>11       0.0253
   6 C3       -4.9432    -8.2615     1.2773  C.3     1  <O>11      -0.0096
   7 C4       -5.2901    -7.1600     2.2237  C.ar    1  <O>11      -0.0243
   8 C5       -6.2939    -7.1669     3.1819  C.ar    1  <O>11      -0.0550
   9 C6       -6.4497    -6.0395     3.9868  C.ar    1  <O>11      -0.0390
  10 C7       -5.6054    -4.9321     3.8268  C.ar    1  <O>11       0.0498
  11 N3       -5.7865    -3.7795     4.6716  N.pl3   1  <O>11      -0.2160
  12 S1       -6.8005    -2.5620     4.2027  S.O2    1  <O>11       0.0780
  13 O2       -8.3366    -3.1638     4.0109  O.2     1  <O>11      -0.1498
  14 O3       -6.2724    -1.9247     2.7621  O.2     1  <O>11      -0.1498
  15 C8       -6.8134    -1.2955     5.4386  C.ar    1  <O>11       0.1843
  16 C9       -7.2261    -1.5877     6.7505  C.ar    1  <O>11       0.1907
  17 F1       -7.6067    -2.8642     7.0740  F       1  <O>11      -0.2002
  18 C10      -7.2471    -0.5831     7.7228  C.ar    1  <O>11       0.1983
  19 F2       -7.6559    -0.8777     8.9983  F       1  <O>11      -0.1993
  20 C11      -6.8549     0.7182     7.3986  C.ar    1  <O>11       0.1992
  21 F3       -6.8751     1.7064     8.3496  F       1  <O>11      -0.1993
  22 C12      -6.4397     1.0079     6.0961  C.ar    1  <O>11       0.1983
  23 F4       -6.0567     2.2864     5.7830  F       1  <O>11      -0.1993
  24 C13      -6.4134     0.0117     5.1174  C.ar    1  <O>11       0.1907
  25 F5       -5.9967     0.2937     3.8420  F       1  <O>11      -0.2002
  26 C14      -4.5960    -4.9375     2.8574  C.ar    1  <O>11      -0.0176
  27 C15      -4.4471    -6.0597     2.0589  C.ar    1  <O>11       0.0427
  28 H1       -1.7367    -6.5293    -0.8205  H       1  <O>11       0.1465
  29 H2       -0.9788    -4.9543    -0.5633  H       1  <O>11       0.1465
  30 H3       -4.1035    -7.5433    -0.5800  H       1  <O>11       0.0472
  31 H4       -2.9149    -8.2636     0.5318  H       1  <O>11       0.0472
  32 H5       -5.7905    -8.5164     0.6406  H       1  <O>11       0.0329
  33 H6       -4.6078    -9.1500     1.8109  H       1  <O>11       0.0329
  34 H7       -5.2887    -3.7139     5.5592  H       1  <O>11       0.1737
  35 H8       -6.9101    -7.9869     3.2959  H       1  <O>11       0.0621
  36 H9       -7.1909    -6.0200     4.7046  H       1  <O>11       0.0637
  37 H10      -3.9749    -4.1218     2.7398  H       1  <O>11       0.0655
@<TRIPOS>BOND
     1     1     2   am
     2     2     3    2
     3     2     4   am
     4     4     5    1
     5     5     6    1
     6     6     7    1
     7     7     8   ar
     8     8     9   ar
     9     9    10   ar
    10    10    11    1
    11    11    12    1
    12    12    13    2
    13    12    14    2
    14    12    15    1
    15    15    16   ar
    16    16    17    1
    17    16    18   ar
    18    18    19    1
    19    18    20   ar
    20    20    21    1
    21    20    22   ar
    22    22    23    1
    23    22    24   ar
    24    15    24   ar
    25    24    25    1
    26    10    26   ar
    27    26    27   ar
    28     7    27   ar
    29     4    27    1
    30     1    28    1
    31     1    29    1
    32     5    30    1
    33     5    31    1
    34     6    32    1
    35     6    33    1
    36    11    34    1
    37     8    35    1
    38     9    36    1
    39    26    37    1
@<TRIPOS>MOLECULE
mol93_1_15
 37 39 0 0 0
SMALL
USER_CHARGES
****
VDW energy = -215.83
@<TRIPOS>ATOM
   1 N1       -1.6879    -5.6444    -0.3156  N.am    1  <O>11      -0.3129
   2 C1       -2.5742    -5.3829     0.6945  C.2     1  <O>11       0.3039
   3 O1       -2.5158    -4.3227     1.2994  O.2     1  <O>11      -0.2525
   4 N2       -3.5190    -6.3020     1.0240  N.am    1  <O>11      -0.2551
   5 C2       -3.8037    -7.6368     0.4634  C.3     1  <O>11       0.0253
   6 C3       -4.9432    -8.2615     1.2773  C.3     1  <O>11      -0.0096
   7 C4       -5.2901    -7.1600     2.2237  C.ar    1  <O>11      -0.0243
   8 C5       -6.2939    -7.1669     3.1819  C.ar    1  <O>11      -0.0550
   9 C6       -6.4497    -6.0395     3.9868  C.ar    1  <O>11      -0.0390
  10 C7       -5.6054    -4.9321     3.8268  C.ar    1  <O>11       0.0498
  11 N3       -5.7865    -3.7795     4.6716  N.pl3   1  <O>11      -0.2160
  12 S1       -4.9803    -3.6741     6.1101  S.O2    1  <O>11       0.0780
  13 O2       -3.3434    -3.7139     5.8316  O.2     1  <O>11      -0.1498
  14 O3       -5.4074    -4.9537     7.0800  O.2     1  <O>11      -0.1498
  15 C8       -5.4048    -2.1563     6.9150  C.ar    1  <O>11       0.1843
  16 C9       -6.7406    -1.8846     7.2595  C.ar    1  <O>11       0.1907
  17 F1       -7.7146    -2.8082     6.9815  F       1  <O>11      -0.2002
  18 C10      -7.0758    -0.6798     7.8848  C.ar    1  <O>11       0.1983
  19 F2       -8.3825    -0.4227     8.2123  F       1  <O>11      -0.1993
  20 C11      -6.0853     0.2620     8.1747  C.ar    1  <O>11       0.1992
  21 F3       -6.4107     1.4454     8.7871  F       1  <O>11      -0.1993
  22 C12      -4.7567    -0.0098     7.8371  C.ar    1  <O>11       0.1983
  23 F4       -3.7888     0.9178     8.1230  F       1  <O>11      -0.1993
  24 C13      -4.4105    -1.2108     7.2137  C.ar    1  <O>11       0.1907
  25 F5       -3.1056    -1.4818     6.8914  F       1  <O>11      -0.2002
  26 C14      -4.5960    -4.9375     2.8574  C.ar    1  <O>11      -0.0176
  27 C15      -4.4471    -6.0597     2.0589  C.ar    1  <O>11       0.0427
  28 H1       -1.7367    -6.5293    -0.8205  H       1  <O>11       0.1465
  29 H2       -0.9788    -4.9543    -0.5633  H       1  <O>11       0.1465
  30 H3       -4.1035    -7.5433    -0.5800  H       1  <O>11       0.0472
  31 H4       -2.9149    -8.2636     0.5318  H       1  <O>11       0.0472
  32 H5       -5.7905    -8.5164     0.6406  H       1  <O>11       0.0329
  33 H6       -4.6078    -9.1500     1.8109  H       1  <O>11       0.0329
  34 H7       -6.4126    -3.0282     4.3827  H       1  <O>11       0.1737
  35 H8       -6.9101    -7.9869     3.2959  H       1  <O>11       0.0621
  36 H9       -7.1909    -6.0200     4.7046  H       1  <O>11       0.0637
  37 H10      -3.9749    -4.1218     2.7398  H       1  <O>11       0.0655
@<TRIPOS>BOND
     1     1     2   am
     2     2     3    2
     3     2     4   am
     4     4     5    1
     5     5     6    1
     6     6     7    1
     7     7     8   ar
     8     8     9   ar
     9     9    10   ar
    10    10    11    1
    11    11    12    1
    12    12    13    2
    13    12    14    2
    14    12    15    1
    15    15    16   ar
    16    16    17    1
    17    16    18   ar
    18    18    19    1
    19    18    20   ar
    20    20    21    1
    21    20    22   ar
    22    22    23    1
    23    22    24   ar
    24    15    24   ar
    25    24    25    1
    26    10    26   ar
    27    26    27   ar
    28     7    27   ar
    29     4    27    1
    30     1    28    1
    31     1    29    1
    32     5    30    1
    33     5    31    1
    34     6    32    1
    35     6    33    1
    36    11    34    1
    37     8    35    1
    38     9    36    1
    39    26    37    1
@<TRIPOS>MOLECULE
mol93_1_16
 37 39 0 0 0
SMALL
USER_CHARGES
****
VDW energy = -215.62
@<TRIPOS>ATOM
   1 N1       -1.6879    -5.6444    -0.3156  N.am    1  <O>11      -0.3129
   2 C1       -2.5742    -5.3829     0.6945  C.2     1  <O>11       0.3039
   3 O1       -2.5158    -4.3227     1.2994  O.2     1  <O>11      -0.2525
   4 N2       -3.5190    -6.3020     1.0240  N.am    1  <O>11      -0.2551
   5 C2       -3.8037    -7.6368     0.4634  C.3     1  <O>11       0.0253
   6 C3       -4.9432    -8.2615     1.2773  C.3     1  <O>11      -0.0096
   7 C4       -5.2901    -7.1600     2.2237  C.ar    1  <O>11      -0.0243
   8 C5       -6.2939    -7.1669     3.1819  C.ar    1  <O>11      -0.0550
   9 C6       -6.4497    -6.0395     3.9868  C.ar    1  <O>11      -0.0390
  10 C7       -5.6054    -4.9321     3.8268  C.ar    1  <O>11       0.0498
  11 N3       -5.7865    -3.7795     4.6716  N.pl3   1  <O>11      -0.2160
  12 S1       -6.8005    -2.5620     4.2027  S.O2    1  <O>11       0.0780
  13 O2       -8.3366    -3.1638     4.0109  O.2     1  <O>11      -0.1498
  14 O3       -6.2724    -1.9247     2.7621  O.2     1  <O>11      -0.1498
  15 C8       -6.8134    -1.2955     5.4386  C.ar    1  <O>11       0.1843
  16 C9       -5.6253    -0.6272     5.7830  C.ar    1  <O>11       0.1907
  17 F1       -4.4553    -0.9512     5.1466  F       1  <O>11      -0.2002
  18 C10      -5.6352     0.3650     6.7681  C.ar    1  <O>11       0.1983
  19 F2       -4.4699     1.0074     7.0998  F       1  <O>11      -0.1993
  20 C11      -6.8267     0.7020     7.4155  C.ar    1  <O>11       0.1992
  21 F3       -6.8399     1.6741     8.3830  F       1  <O>11      -0.1993
  22 C12      -8.0088     0.0417     7.0698  C.ar    1  <O>11       0.1983
  23 F4       -9.1749     0.3755     7.7085  F       1  <O>11      -0.1993
  24 C13      -8.0106    -0.9499     6.0861  C.ar    1  <O>11       0.1907
  25 F5       -9.1722    -1.5909     5.7400  F       1  <O>11      -0.2002
  26 C14      -4.5960    -4.9375     2.8574  C.ar    1  <O>11      -0.0176
  27 C15      -4.4471    -6.0597     2.0589  C.ar    1  <O>11       0.0427
  28 H1       -1.7367    -6.5293    -0.8205  H       1  <O>11       0.1465
  29 H2       -0.9788    -4.9543    -0.5633  H       1  <O>11       0.1465
  30 H3       -4.1035    -7.5433    -0.5800  H       1  <O>11       0.0472
  31 H4       -2.9149    -8.2636     0.5318  H       1  <O>11       0.0472
  32 H5       -5.7905    -8.5164     0.6406  H       1  <O>11       0.0329
  33 H6       -4.6078    -9.1500     1.8109  H       1  <O>11       0.0329
  34 H7       -5.2887    -3.7139     5.5592  H       1  <O>11       0.1737
  35 H8       -6.9101    -7.9869     3.2959  H       1  <O>11       0.0621
  36 H9       -7.1909    -6.0200     4.7046  H       1  <O>11       0.0637
  37 H10      -3.9749    -4.1218     2.7398  H       1  <O>11       0.0655
@<TRIPOS>BOND
     1     1     2   am
     2     2     3    2
     3     2     4   am
     4     4     5    1
     5     5     6    1
     6     6     7    1
     7     7     8   ar
     8     8     9   ar
     9     9    10   ar
    10    10    11    1
    11    11    12    1
    12    12    13    2
    13    12    14    2
    14    12    15    1
    15    15    16   ar
    16    16    17    1
    17    16    18   ar
    18    18    19    1
    19    18    20   ar
    20    20    21    1
    21    20    22   ar
    22    22    23    1
    23    22    24   ar
    24    15    24   ar
    25    24    25    1
    26    10    26   ar
    27    26    27   ar
    28     7    27   ar
    29     4    27    1
    30     1    28    1
    31     1    29    1
    32     5    30    1
    33     5    31    1
    34     6    32    1
    35     6    33    1
    36    11    34    1
    37     8    35    1
    38     9    36    1
    39    26    37    1
@<TRIPOS>MOLECULE
mol93_1_17
 37 39 0 0 0
SMALL
USER_CHARGES
****
VDW energy = -215.57
@<TRIPOS>ATOM
   1 N1       -1.6879    -5.6444    -0.3156  N.am    1  <O>11      -0.3129
   2 C1       -2.5742    -5.3829     0.6945  C.2     1  <O>11       0.3039
   3 O1       -2.5158    -4.3227     1.2994  O.2     1  <O>11      -0.2525
   4 N2       -3.5190    -6.3020     1.0240  N.am    1  <O>11      -0.2551
   5 C2       -3.8037    -7.6368     0.4634  C.3     1  <O>11       0.0253
   6 C3       -4.9432    -8.2615     1.2773  C.3     1  <O>11      -0.0096
   7 C4       -5.2901    -7.1600     2.2237  C.ar    1  <O>11      -0.0243
   8 C5       -6.2939    -7.1669     3.1819  C.ar    1  <O>11      -0.0550
   9 C6       -6.4497    -6.0395     3.9868  C.ar    1  <O>11      -0.0390
  10 C7       -5.6054    -4.9321     3.8268  C.ar    1  <O>11       0.0498
  11 N3       -5.7865    -3.7795     4.6716  N.pl3   1  <O>11      -0.2160
  12 S1       -4.9803    -3.6741     6.1101  S.O2    1  <O>11       0.0780
  13 O2       -3.3434    -3.7139     5.8316  O.2     1  <O>11      -0.1498
  14 O3       -5.4074    -4.9537     7.0800  O.2     1  <O>11      -0.1498
  15 C8       -5.4048    -2.1563     6.9150  C.ar    1  <O>11       0.1843
  16 C9       -5.1398    -0.9239     6.2921  C.ar    1  <O>11       0.1907
  17 F1       -4.5621    -0.9019     5.0492  F       1  <O>11      -0.2002
  18 C10      -5.4650     0.2746     6.9347  C.ar    1  <O>11       0.1983
  19 F2       -5.1979     1.4712     6.3203  F       1  <O>11      -0.1993
  20 C11      -6.0587     0.2563     8.1993  C.ar    1  <O>11       0.1992
  21 F3       -6.3782     1.4301     8.8330  F       1  <O>11      -0.1993
  22 C12      -6.3271    -0.9684     8.8165  C.ar    1  <O>11       0.1983
  23 F4       -6.9090    -0.9807    10.0576  F       1  <O>11      -0.1993
  24 C13      -6.0077    -2.1716     8.1831  C.ar    1  <O>11       0.1907
  25 F5       -6.2800    -3.3733     8.7843  F       1  <O>11      -0.2002
  26 C14      -4.5960    -4.9375     2.8574  C.ar    1  <O>11      -0.0176
  27 C15      -4.4471    -6.0597     2.0589  C.ar    1  <O>11       0.0427
  28 H1       -1.7367    -6.5293    -0.8205  H       1  <O>11       0.1465
  29 H2       -0.9788    -4.9543    -0.5633  H       1  <O>11       0.1465
  30 H3       -4.1035    -7.5433    -0.5800  H       1  <O>11       0.0472
  31 H4       -2.9149    -8.2636     0.5318  H       1  <O>11       0.0472
  32 H5       -5.7905    -8.5164     0.6406  H       1  <O>11       0.0329
  33 H6       -4.6078    -9.1500     1.8109  H       1  <O>11       0.0329
  34 H7       -6.4126    -3.0282     4.3827  H       1  <O>11       0.1737
  35 H8       -6.9101    -7.9869     3.2959  H       1  <O>11       0.0621
  36 H9       -7.1909    -6.0200     4.7046  H       1  <O>11       0.0637
  37 H10      -3.9749    -4.1218     2.7398  H       1  <O>11       0.0655
@<TRIPOS>BOND
     1     1     2   am
     2     2     3    2
     3     2     4   am
     4     4     5    1
     5     5     6    1
     6     6     7    1
     7     7     8   ar
     8     8     9   ar
     9     9    10   ar
    10    10    11    1
    11    11    12    1
    12    12    13    2
    13    12    14    2
    14    12    15    1
    15    15    16   ar
    16    16    17    1
    17    16    18   ar
    18    18    19    1
    19    18    20   ar
    20    20    21    1
    21    20    22   ar
    22    22    23    1
    23    22    24   ar
    24    15    24   ar
    25    24    25    1
    26    10    26   ar
    27    26    27   ar
    28     7    27   ar
    29     4    27    1
    30     1    28    1
    31     1    29    1
    32     5    30    1
    33     5    31    1
    34     6    32    1
    35     6    33    1
    36    11    34    1
    37     8    35    1
    38     9    36    1
    39    26    37    1
@<TRIPOS>MOLECULE
mol93_1_18
 37 39 0 0 0
SMALL
USER_CHARGES
****
VDW energy = -215.53
@<TRIPOS>ATOM
   1 N1       -1.6879    -5.6444    -0.3156  N.am    1  <O>11      -0.3129
   2 C1       -2.5742    -5.3829     0.6945  C.2     1  <O>11       0.3039
   3 O1       -2.5158    -4.3227     1.2994  O.2     1  <O>11      -0.2525
   4 N2       -3.5190    -6.3020     1.0240  N.am    1  <O>11      -0.2551
   5 C2       -3.8037    -7.6368     0.4634  C.3     1  <O>11       0.0253
   6 C3       -4.9432    -8.2615     1.2773  C.3     1  <O>11      -0.0096
   7 C4       -5.2901    -7.1600     2.2237  C.ar    1  <O>11      -0.0243
   8 C5       -6.2939    -7.1669     3.1819  C.ar    1  <O>11      -0.0550
   9 C6       -6.4497    -6.0395     3.9868  C.ar    1  <O>11      -0.0390
  10 C7       -5.6054    -4.9321     3.8268  C.ar    1  <O>11       0.0498
  11 N3       -5.7865    -3.7795     4.6716  N.pl3   1  <O>11      -0.2160
  12 S1       -7.1670    -2.8788     4.5564  S.O2    1  <O>11       0.0780
  13 O2       -8.4819    -3.8351     4.8956  O.2     1  <O>11      -0.1498
  14 O3       -7.3067    -2.2730     3.0156  O.2     1  <O>11      -0.1498
  15 C8       -7.0971    -1.5407     5.7123  C.ar    1  <O>11       0.1843
  16 C9       -6.0676    -0.5864     5.6326  C.ar    1  <O>11       0.1907
  17 F1       -5.1227    -0.6883     4.6448  F       1  <O>11      -0.2002
  18 C10      -6.0072     0.4635     6.5540  C.ar    1  <O>11       0.1983
  19 F2       -4.9961     1.3862     6.4702  F       1  <O>11      -0.1993
  20 C11      -6.9715     0.5740     7.5591  C.ar    1  <O>11       0.1992
  21 F3       -6.9148     1.6021     8.4653  F       1  <O>11      -0.1993
  22 C12      -7.9979    -0.3713     7.6356  C.ar    1  <O>11       0.1983
  23 F4       -8.9410    -0.2588     8.6240  F       1  <O>11      -0.1993
  24 C13      -8.0687    -1.4232     6.7194  C.ar    1  <O>11       0.1907
  25 F5       -9.0813    -2.3450     6.7884  F       1  <O>11      -0.2002
  26 C14      -4.5960    -4.9375     2.8574  C.ar    1  <O>11      -0.0176
  27 C15      -4.4471    -6.0597     2.0589  C.ar    1  <O>11       0.0427
  28 H1       -1.7367    -6.5293    -0.8205  H       1  <O>11       0.1465
  29 H2       -0.9788    -4.9543    -0.5633  H       1  <O>11       0.1465
  30 H3       -4.1035    -7.5433    -0.5800  H       1  <O>11       0.0472
  31 H4       -2.9149    -8.2636     0.5318  H       1  <O>11       0.0472
  32 H5       -5.7905    -8.5164     0.6406  H       1  <O>11       0.0329
  33 H6       -4.6078    -9.1500     1.8109  H       1  <O>11       0.0329
  34 H7       -5.0627    -3.5184     5.3409  H       1  <O>11       0.1737
  35 H8       -6.9101    -7.9869     3.2959  H       1  <O>11       0.0621
  36 H9       -7.1909    -6.0200     4.7046  H       1  <O>11       0.0637
  37 H10      -3.9749    -4.1218     2.7398  H       1  <O>11       0.0655
@<TRIPOS>BOND
     1     1     2   am
     2     2     3    2
     3     2     4   am
     4     4     5    1
     5     5     6    1
     6     6     7    1
     7     7     8   ar
     8     8     9   ar
     9     9    10   ar
    10    10    11    1
    11    11    12    1
    12    12    13    2
    13    12    14    2
    14    12    15    1
    15    15    16   ar
    16    16    17    1
    17    16    18   ar
    18    18    19    1
    19    18    20   ar
    20    20    21    1
    21    20    22   ar
    22    22    23    1
    23    22    24   ar
    24    15    24   ar
    25    24    25    1
    26    10    26   ar
    27    26    27   ar
    28     7    27   ar
    29     4    27    1
    30     1    28    1
    31     1    29    1
    32     5    30    1
    33     5    31    1
    34     6    32    1
    35     6    33    1
    36    11    34    1
    37     8    35    1
    38     9    36    1
    39    26    37    1
@<TRIPOS>MOLECULE
mol93_1_19
 37 39 0 0 0
SMALL
USER_CHARGES
****
VDW energy = -215.50
@<TRIPOS>ATOM
   1 N1       -1.6879    -5.6444    -0.3156  N.am    1  <O>11      -0.3129
   2 C1       -2.5742    -5.3829     0.6945  C.2     1  <O>11       0.3039
   3 O1       -2.5158    -4.3227     1.2994  O.2     1  <O>11      -0.2525
   4 N2       -3.5190    -6.3020     1.0240  N.am    1  <O>11      -0.2551
   5 C2       -3.8037    -7.6368     0.4634  C.3     1  <O>11       0.0253
   6 C3       -4.9432    -8.2615     1.2773  C.3     1  <O>11      -0.0096
   7 C4       -5.2901    -7.1600     2.2237  C.ar    1  <O>11      -0.0243
   8 C5       -6.2939    -7.1669     3.1819  C.ar    1  <O>11      -0.0550
   9 C6       -6.4497    -6.0395     3.9868  C.ar    1  <O>11      -0.0390
  10 C7       -5.6054    -4.9321     3.8268  C.ar    1  <O>11       0.0498
  11 N3       -5.7865    -3.7795     4.6716  N.pl3   1  <O>11      -0.2160
  12 S1       -5.5068    -3.8932     6.2961  S.O2    1  <O>11       0.0780
  13 O2       -3.9275    -4.3368     6.5563  O.2     1  <O>11      -0.1498
  14 O3       -6.5177    -5.0358     6.9541  O.2     1  <O>11      -0.1498
  15 C8       -5.8123    -2.3258     7.0589  C.ar    1  <O>11       0.1843
  16 C9       -5.0765    -1.1921     6.6715  C.ar    1  <O>11       0.1907
  17 F1       -4.1280    -1.3019     5.6881  F       1  <O>11      -0.2002
  18 C10      -5.3109     0.0430     7.2837  C.ar    1  <O>11       0.1983
  19 F2       -4.5844     1.1416     6.9016  F       1  <O>11      -0.1993
  20 C11      -6.2805     0.1603     8.2828  C.ar    1  <O>11       0.1992
  21 F3       -6.5125     1.3701     8.8861  F       1  <O>11      -0.1993
  22 C12      -7.0157    -0.9652     8.6645  C.ar    1  <O>11       0.1983
  23 F4       -7.9653    -0.8448     9.6459  F       1  <O>11      -0.1993
  24 C13      -6.7908    -2.2034     8.0586  C.ar    1  <O>11       0.1907
  25 F5       -7.5189    -3.3055     8.4262  F       1  <O>11      -0.2002
  26 C14      -4.5960    -4.9375     2.8574  C.ar    1  <O>11      -0.0176
  27 C15      -4.4471    -6.0597     2.0589  C.ar    1  <O>11       0.0427
  28 H1       -1.7367    -6.5293    -0.8205  H       1  <O>11       0.1465
  29 H2       -0.9788    -4.9543    -0.5633  H       1  <O>11       0.1465
  30 H3       -4.1035    -7.5433    -0.5800  H       1  <O>11       0.0472
  31 H4       -2.9149    -8.2636     0.5318  H       1  <O>11       0.0472
  32 H5       -5.7905    -8.5164     0.6406  H       1  <O>11       0.0329
  33 H6       -4.6078    -9.1500     1.8109  H       1  <O>11       0.0329
  34 H7       -6.0879    -2.8929     4.2677  H       1  <O>11       0.1737
  35 H8       -6.9101    -7.9869     3.2959  H       1  <O>11       0.0621
  36 H9       -7.1909    -6.0200     4.7046  H       1  <O>11       0.0637
  37 H10      -3.9749    -4.1218     2.7398  H       1  <O>11       0.0655
@<TRIPOS>BOND
     1     1     2   am
     2     2     3    2
     3     2     4   am
     4     4     5    1
     5     5     6    1
     6     6     7    1
     7     7     8   ar
     8     8     9   ar
     9     9    10   ar
    10    10    11    1
    11    11    12    1
    12    12    13    2
    13    12    14    2
    14    12    15    1
    15    15    16   ar
    16    16    17    1
    17    16    18   ar
    18    18    19    1
    19    18    20   ar
    20    20    21    1
    21    20    22   ar
    22    22    23    1
    23    22    24   ar
    24    15    24   ar
    25    24    25    1
    26    10    26   ar
    27    26    27   ar
    28     7    27   ar
    29     4    27    1
    30     1    28    1
    31     1    29    1
    32     5    30    1
    33     5    31    1
    34     6    32    1
    35     6    33    1
    36    11    34    1
    37     8    35    1
    38     9    36    1
    39    26    37    1
@<TRIPOS>MOLECULE
mol93_1_20
 37 39 0 0 0
SMALL
USER_CHARGES
****
VDW energy = -212.05
@<TRIPOS>ATOM
   1 N1       -1.6879    -5.6444    -0.3156  N.am    1  <O>11      -0.3129
   2 C1       -2.5742    -5.3829     0.6945  C.2     1  <O>11       0.3039
   3 O1       -2.5158    -4.3227     1.2994  O.2     1  <O>11      -0.2525
   4 N2       -3.5190    -6.3020     1.0240  N.am    1  <O>11      -0.2551
   5 C2       -3.8037    -7.6368     0.4634  C.3     1  <O>11       0.0253
   6 C3       -4.9432    -8.2615     1.2773  C.3     1  <O>11      -0.0096
   7 C4       -5.2901    -7.1600     2.2237  C.ar    1  <O>11      -0.0243
   8 C5       -6.2939    -7.1669     3.1819  C.ar    1  <O>11      -0.0550
   9 C6       -6.4497    -6.0395     3.9868  C.ar    1  <O>11      -0.0390
  10 C7       -5.6054    -4.9321     3.8268  C.ar    1  <O>11       0.0498
  11 N3       -5.7865    -3.7795     4.6716  N.pl3   1  <O>11      -0.2160
  12 S1       -6.8005    -2.5620     4.2027  S.O2    1  <O>11       0.0780
  13 O2       -8.3366    -3.1638     4.0109  O.2     1  <O>11      -0.1498
  14 O3       -6.2724    -1.9247     2.7621  O.2     1  <O>11      -0.1498
  15 C8       -6.8134    -1.2955     5.4386  C.ar    1  <O>11       0.1843
  16 C9       -7.6061    -0.1465     5.2696  C.ar    1  <O>11       0.1907
  17 F1       -8.3820    -0.0162     4.1472  F       1  <O>11      -0.2002
  18 C10      -7.6060     0.8586     6.2416  C.ar    1  <O>11       0.1983
  19 F2       -8.3791     1.9774     6.0647  F       1  <O>11      -0.1993
  20 C11      -6.8206     0.7273     7.3896  C.ar    1  <O>11       0.1992
  21 F3       -6.8173     1.7117     8.3447  F       1  <O>11      -0.1993
  22 C12      -6.0366    -0.4169     7.5605  C.ar    1  <O>11       0.1983
  23 F4       -5.2672    -0.5405     8.6882  F       1  <O>11      -0.1993
  24 C13      -6.0303    -1.4278     6.5966  C.ar    1  <O>11       0.1907
  25 F5       -5.2688    -2.5549     6.7689  F       1  <O>11      -0.2002
  26 C14      -4.5960    -4.9375     2.8574  C.ar    1  <O>11      -0.0176
  27 C15      -4.4471    -6.0597     2.0589  C.ar    1  <O>11       0.0427
  28 H1       -1.7367    -6.5293    -0.8205  H       1  <O>11       0.1465
  29 H2       -0.9788    -4.9543    -0.5633  H       1  <O>11       0.1465
  30 H3       -4.1035    -7.5433    -0.5800  H       1  <O>11       0.0472
  31 H4       -2.9149    -8.2636     0.5318  H       1  <O>11       0.0472
  32 H5       -5.7905    -8.5164     0.6406  H       1  <O>11       0.0329
  33 H6       -4.6078    -9.1500     1.8109  H       1  <O>11       0.0329
  34 H7       -5.2887    -3.7139     5.5592  H       1  <O>11       0.1737
  35 H8       -6.9101    -7.9869     3.2959  H       1  <O>11       0.0621
  36 H9       -7.1909    -6.0200     4.7046  H       1  <O>11       0.0637
  37 H10      -3.9749    -4.1218     2.7398  H       1  <O>11       0.0655
@<TRIPOS>BOND
     1     1     2   am
     2     2     3    2
     3     2     4   am
     4     4     5    1
     5     5     6    1
     6     6     7    1
     7     7     8   ar
     8     8     9   ar
     9     9    10   ar
    10    10    11    1
    11    11    12    1
    12    12    13    2
    13    12    14    2
    14    12    15    1
    15    15    16   ar
    16    16    17    1
    17    16    18   ar
    18    18    19    1
    19    18    20   ar
    20    20    21    1
    21    20    22   ar
    22    22    23    1
    23    22    24   ar
    24    15    24   ar
    25    24    25    1
    26    10    26   ar
    27    26    27   ar
    28     7    27   ar
    29     4    27    1
    30     1    28    1
    31     1    29    1
    32     5    30    1
    33     5    31    1
    34     6    32    1
    35     6    33    1
    36    11    34    1
    37     8    35    1
    38     9    36    1
    39    26    37    1
@<TRIPOS>MOLECULE
mol93_1_21
 37 39 0 0 0
SMALL
USER_CHARGES
****
VDW energy = -211.93
@<TRIPOS>ATOM
   1 N1       -1.6879    -5.6444    -0.3156  N.am    1  <O>11      -0.3129
   2 C1       -2.5742    -5.3829     0.6945  C.2     1  <O>11       0.3039
   3 O1       -2.5158    -4.3227     1.2994  O.2     1  <O>11      -0.2525
   4 N2       -3.5190    -6.3020     1.0240  N.am    1  <O>11      -0.2551
   5 C2       -3.8037    -7.6368     0.4634  C.3     1  <O>11       0.0253
   6 C3       -4.9432    -8.2615     1.2773  C.3     1  <O>11      -0.0096
   7 C4       -5.2901    -7.1600     2.2237  C.ar    1  <O>11      -0.0243
   8 C5       -6.2939    -7.1669     3.1819  C.ar    1  <O>11      -0.0550
   9 C6       -6.4497    -6.0395     3.9868  C.ar    1  <O>11      -0.0390
  10 C7       -5.6054    -4.9321     3.8268  C.ar    1  <O>11       0.0498
  11 N3       -5.7865    -3.7795     4.6716  N.pl3   1  <O>11      -0.2160
  12 S1       -4.9803    -3.6741     6.1101  S.O2    1  <O>11       0.0780
  13 O2       -3.3434    -3.7139     5.8316  O.2     1  <O>11      -0.1498
  14 O3       -5.4074    -4.9537     7.0800  O.2     1  <O>11      -0.1498
  15 C8       -5.4048    -2.1563     6.9150  C.ar    1  <O>11       0.1843
  16 C9       -4.8434    -1.8332     8.1629  C.ar    1  <O>11       0.1907
  17 F1       -3.9527    -2.6940     8.7499  F       1  <O>11      -0.2002
  18 C10      -5.1890    -0.6390     8.8030  C.ar    1  <O>11       0.1983
  19 F2       -4.6393    -0.3357    10.0222  F       1  <O>11      -0.1993
  20 C11      -6.0925     0.2436     8.2056  C.ar    1  <O>11       0.1992
  21 F3       -6.4345     1.4154     8.8310  F       1  <O>11      -0.1993
  22 C12      -6.6467    -0.0747     6.9628  C.ar    1  <O>11       0.1983
  23 F4       -7.5332     0.7943     6.3814  F       1  <O>11      -0.1993
  24 C13      -6.3073    -1.2641     6.3139  C.ar    1  <O>11       0.1907
  25 F5       -6.8434    -1.5718     5.0901  F       1  <O>11      -0.2002
  26 C14      -4.5960    -4.9375     2.8574  C.ar    1  <O>11      -0.0176
  27 C15      -4.4471    -6.0597     2.0589  C.ar    1  <O>11       0.0427
  28 H1       -1.7367    -6.5293    -0.8205  H       1  <O>11       0.1465
  29 H2       -0.9788    -4.9543    -0.5633  H       1  <O>11       0.1465
  30 H3       -4.1035    -7.5433    -0.5800  H       1  <O>11       0.0472
  31 H4       -2.9149    -8.2636     0.5318  H       1  <O>11       0.0472
  32 H5       -5.7905    -8.5164     0.6406  H       1  <O>11       0.0329
  33 H6       -4.6078    -9.1500     1.8109  H       1  <O>11       0.0329
  34 H7       -6.4126    -3.0282     4.3827  H       1  <O>11       0.1737
  35 H8       -6.9101    -7.9869     3.2959  H       1  <O>11       0.0621
  36 H9       -7.1909    -6.0200     4.7046  H       1  <O>11       0.0637
  37 H10      -3.9749    -4.1218     2.7398  H       1  <O>11       0.0655
@<TRIPOS>BOND
     1     1     2   am
     2     2     3    2
     3     2     4   am
     4     4     5    1
     5     5     6    1
     6     6     7    1
     7     7     8   ar
     8     8     9   ar
     9     9    10   ar
    10    10    11    1
    11    11    12    1
    12    12    13    2
    13    12    14    2
    14    12    15    1
    15    15    16   ar
    16    16    17    1
    17    16    18   ar
    18    18    19    1
    19    18    20   ar
    20    20    21    1
    21    20    22   ar
    22    22    23    1
    23    22    24   ar
    24    15    24   ar
    25    24    25    1
    26    10    26   ar
    27    26    27   ar
    28     7    27   ar
    29     4    27    1
    30     1    28    1
    31     1    29    1
    32     5    30    1
    33     5    31    1
    34     6    32    1
    35     6    33    1
    36    11    34    1
    37     8    35    1
    38     9    36    1
    39    26    37    1
@<TRIPOS>MOLECULE
mol93_1_22
 37 39 0 0 0
SMALL
USER_CHARGES
****
VDW energy = -211.82
@<TRIPOS>ATOM
   1 N1       -1.6879    -5.6444    -0.3156  N.am    1  <O>11      -0.3129
   2 C1       -2.5742    -5.3829     0.6945  C.2     1  <O>11       0.3039
   3 O1       -2.5158    -4.3227     1.2994  O.2     1  <O>11      -0.2525
   4 N2       -3.5190    -6.3020     1.0240  N.am    1  <O>11      -0.2551
   5 C2       -3.8037    -7.6368     0.4634  C.3     1  <O>11       0.0253
   6 C3       -4.9432    -8.2615     1.2773  C.3     1  <O>11      -0.0096
   7 C4       -5.2901    -7.1600     2.2237  C.ar    1  <O>11      -0.0243
   8 C5       -6.2939    -7.1669     3.1819  C.ar    1  <O>11      -0.0550
   9 C6       -6.4497    -6.0395     3.9868  C.ar    1  <O>11      -0.0390
  10 C7       -5.6054    -4.9321     3.8268  C.ar    1  <O>11       0.0498
  11 N3       -5.7865    -3.7795     4.6716  N.pl3   1  <O>11      -0.2160
  12 S1       -7.1670    -2.8788     4.5564  S.O2    1  <O>11       0.0780
  13 O2       -8.4819    -3.8351     4.8956  O.2     1  <O>11      -0.1498
  14 O3       -7.3067    -2.2730     3.0156  O.2     1  <O>11      -0.1498
  15 C8       -7.0971    -1.5407     5.7123  C.ar    1  <O>11       0.1843
  16 C9       -8.1619    -0.6273     5.8064  C.ar    1  <O>11       0.1907
  17 F1       -9.2641    -0.7849     5.0069  F       1  <O>11      -0.2002
  18 C10      -8.0999     0.4363     6.7119  C.ar    1  <O>11       0.1983
  19 F2       -9.1419     1.3243     6.7923  F       1  <O>11      -0.1993
  20 C11      -6.9805     0.5975     7.5324  C.ar    1  <O>11       0.1992
  21 F3       -6.9158     1.6402     8.4212  F       1  <O>11      -0.1993
  22 C12      -5.9242    -0.3131     7.4430  C.ar    1  <O>11       0.1983
  23 F4       -4.8280    -0.1500     8.2497  F       1  <O>11      -0.1993
  24 C13      -5.9764    -1.3800     6.5430  C.ar    1  <O>11       0.1907
  25 F5       -4.9444    -2.2791     6.4622  F       1  <O>11      -0.2002
  26 C14      -4.5960    -4.9375     2.8574  C.ar    1  <O>11      -0.0176
  27 C15      -4.4471    -6.0597     2.0589  C.ar    1  <O>11       0.0427
  28 H1       -1.7367    -6.5293    -0.8205  H       1  <O>11       0.1465
  29 H2       -0.9788    -4.9543    -0.5633  H       1  <O>11       0.1465
  30 H3       -4.1035    -7.5433    -0.5800  H       1  <O>11       0.0472
  31 H4       -2.9149    -8.2636     0.5318  H       1  <O>11       0.0472
  32 H5       -5.7905    -8.5164     0.6406  H       1  <O>11       0.0329
  33 H6       -4.6078    -9.1500     1.8109  H       1  <O>11       0.0329
  34 H7       -5.0627    -3.5184     5.3409  H       1  <O>11       0.1737
  35 H8       -6.9101    -7.9869     3.2959  H       1  <O>11       0.0621
  36 H9       -7.1909    -6.0200     4.7046  H       1  <O>11       0.0637
  37 H10      -3.9749    -4.1218     2.7398  H       1  <O>11       0.0655
@<TRIPOS>BOND
     1     1     2   am
     2     2     3    2
     3     2     4   am
     4     4     5    1
     5     5     6    1
     6     6     7    1
     7     7     8   ar
     8     8     9   ar
     9     9    10   ar
    10    10    11    1
    11    11    12    1
    12    12    13    2
    13    12    14    2
    14    12    15    1
    15    15    16   ar
    16    16    17    1
    17    16    18   ar
    18    18    19    1
    19    18    20   ar
    20    20    21    1
    21    20    22   ar
    22    22    23    1
    23    22    24   ar
    24    15    24   ar
    25    24    25    1
    26    10    26   ar
    27    26    27   ar
    28     7    27   ar
    29     4    27    1
    30     1    28    1
    31     1    29    1
    32     5    30    1
    33     5    31    1
    34     6    32    1
    35     6    33    1
    36    11    34    1
    37     8    35    1
    38     9    36    1
    39    26    37    1
@<TRIPOS>MOLECULE
mol93_1_23
 37 39 0 0 0
SMALL
USER_CHARGES
****
VDW energy = -206.37
@<TRIPOS>ATOM
   1 N1       -1.6879    -5.6444    -0.3156  N.am    1  <O>11      -0.3129
   2 C1       -2.5742    -5.3829     0.6945  C.2     1  <O>11       0.3039
   3 O1       -2.5158    -4.3227     1.2994  O.2     1  <O>11      -0.2525
   4 N2       -3.5190    -6.3020     1.0240  N.am    1  <O>11      -0.2551
   5 C2       -3.8037    -7.6368     0.4634  C.3     1  <O>11       0.0253
   6 C3       -4.9432    -8.2615     1.2773  C.3     1  <O>11      -0.0096
   7 C4       -5.2901    -7.1600     2.2237  C.ar    1  <O>11      -0.0243
   8 C5       -6.2939    -7.1669     3.1819  C.ar    1  <O>11      -0.0550
   9 C6       -6.4497    -6.0395     3.9868  C.ar    1  <O>11      -0.0390
  10 C7       -5.6054    -4.9321     3.8268  C.ar    1  <O>11       0.0498
  11 N3       -5.7865    -3.7795     4.6716  N.pl3   1  <O>11      -0.2160
  12 S1       -4.8020    -2.4640     4.4973  S.O2    1  <O>11       0.0780
  13 O2       -4.9524    -1.8600     2.9574  O.2     1  <O>11      -0.1498
  14 O3       -3.2246    -2.9129     4.7635  O.2     1  <O>11      -0.1498
  15 C8       -5.2666    -1.2197     5.6667  C.ar    1  <O>11       0.1843
  16 C9       -5.8279    -1.5820     6.9038  C.ar    1  <O>11       0.1907
  17 F1       -6.0020    -2.9072     7.2082  F       1  <O>11      -0.2002
  18 C10      -6.2054    -0.5972     7.8218  C.ar    1  <O>11       0.1983
  19 F2       -6.7563    -0.9613     9.0237  F       1  <O>11      -0.1993
  20 C11      -6.0247     0.7545     7.5177  C.ar    1  <O>11       0.1992
  21 F3       -6.3947     1.7234     8.4153  F       1  <O>11      -0.1993
  22 C12      -5.4620     1.1150     6.2903  C.ar    1  <O>11       0.1983
  23 F4       -5.2876     2.4425     5.9965  F       1  <O>11      -0.1993
  24 C13      -5.0800     0.1394     5.3666  C.ar    1  <O>11       0.1907
  25 F5       -4.5189     0.4927     4.1666  F       1  <O>11      -0.2002
  26 C14      -4.5960    -4.9375     2.8574  C.ar    1  <O>11      -0.0176
  27 C15      -4.4471    -6.0597     2.0589  C.ar    1  <O>11       0.0427
  28 H1       -1.7367    -6.5293    -0.8205  H       1  <O>11       0.1465
  29 H2       -0.9788    -4.9543    -0.5633  H       1  <O>11       0.1465
  30 H3       -4.1035    -7.5433    -0.5800  H       1  <O>11       0.0472
  31 H4       -2.9149    -8.2636     0.5318  H       1  <O>11       0.0472
  32 H5       -5.7905    -8.5164     0.6406  H       1  <O>11       0.0329
  33 H6       -4.6078    -9.1500     1.8109  H       1  <O>11       0.0329
  34 H7       -6.5220    -3.7749     5.3780  H       1  <O>11       0.1737
  35 H8       -6.9101    -7.9869     3.2959  H       1  <O>11       0.0621
  36 H9       -7.1909    -6.0200     4.7046  H       1  <O>11       0.0637
  37 H10      -3.9749    -4.1218     2.7398  H       1  <O>11       0.0655
@<TRIPOS>BOND
     1     1     2   am
     2     2     3    2
     3     2     4   am
     4     4     5    1
     5     5     6    1
     6     6     7    1
     7     7     8   ar
     8     8     9   ar
     9     9    10   ar
    10    10    11    1
    11    11    12    1
    12    12    13    2
    13    12    14    2
    14    12    15    1
    15    15    16   ar
    16    16    17    1
    17    16    18   ar
    18    18    19    1
    19    18    20   ar
    20    20    21    1
    21    20    22   ar
    22    22    23    1
    23    22    24   ar
    24    15    24   ar
    25    24    25    1
    26    10    26   ar
    27    26    27   ar
    28     7    27   ar
    29     4    27    1
    30     1    28    1
    31     1    29    1
    32     5    30    1
    33     5    31    1
    34     6    32    1
    35     6    33    1
    36    11    34    1
    37     8    35    1
    38     9    36    1
    39    26    37    1
@<TRIPOS>MOLECULE
mol93_1_24
 37 39 0 0 0
SMALL
USER_CHARGES
****
VDW energy = -206.26
@<TRIPOS>ATOM
   1 N1       -1.6879    -5.6444    -0.3156  N.am    1  <O>11      -0.3129
   2 C1       -2.5742    -5.3829     0.6945  C.2     1  <O>11       0.3039
   3 O1       -2.5158    -4.3227     1.2994  O.2     1  <O>11      -0.2525
   4 N2       -3.5190    -6.3020     1.0240  N.am    1  <O>11      -0.2551
   5 C2       -3.8037    -7.6368     0.4634  C.3     1  <O>11       0.0253
   6 C3       -4.9432    -8.2615     1.2773  C.3     1  <O>11      -0.0096
   7 C4       -5.2901    -7.1600     2.2237  C.ar    1  <O>11      -0.0243
   8 C5       -6.2939    -7.1669     3.1819  C.ar    1  <O>11      -0.0550
   9 C6       -6.4497    -6.0395     3.9868  C.ar    1  <O>11      -0.0390
  10 C7       -5.6054    -4.9321     3.8268  C.ar    1  <O>11       0.0498
  11 N3       -5.7865    -3.7795     4.6716  N.pl3   1  <O>11      -0.2160
  12 S1       -4.8020    -2.4640     4.4973  S.O2    1  <O>11       0.0780
  13 O2       -4.9524    -1.8600     2.9574  O.2     1  <O>11      -0.1498
  14 O3       -3.2246    -2.9129     4.7635  O.2     1  <O>11      -0.1498
  15 C8       -5.2666    -1.2197     5.6667  C.ar    1  <O>11       0.1843
  16 C9       -5.0782     0.1413     5.3680  C.ar    1  <O>11       0.1907
  17 F1       -4.5444     0.5032     4.1585  F       1  <O>11      -0.2002
  18 C10      -5.4350     1.1226     6.2980  C.ar    1  <O>11       0.1983
  19 F2       -5.2426     2.4470     5.9985  F       1  <O>11      -0.1993
  20 C11      -5.9843     0.7581     7.5298  C.ar    1  <O>11       0.1992
  21 F3       -6.3345     1.7181     8.4449  F       1  <O>11      -0.1993
  22 C12      -6.1765    -0.5942     7.8251  C.ar    1  <O>11       0.1983
  23 F4       -6.7151    -0.9465     9.0354  F       1  <O>11      -0.1993
  24 C13      -5.8252    -1.5826     6.9029  C.ar    1  <O>11       0.1907
  25 F5       -6.0229    -2.9090     7.1885  F       1  <O>11      -0.2002
  26 C14      -4.5960    -4.9375     2.8574  C.ar    1  <O>11      -0.0176
  27 C15      -4.4471    -6.0597     2.0589  C.ar    1  <O>11       0.0427
  28 H1       -1.7367    -6.5293    -0.8205  H       1  <O>11       0.1465
  29 H2       -0.9788    -4.9543    -0.5633  H       1  <O>11       0.1465
  30 H3       -4.1035    -7.5433    -0.5800  H       1  <O>11       0.0472
  31 H4       -2.9149    -8.2636     0.5318  H       1  <O>11       0.0472
  32 H5       -5.7905    -8.5164     0.6406  H       1  <O>11       0.0329
  33 H6       -4.6078    -9.1500     1.8109  H       1  <O>11       0.0329
  34 H7       -6.5220    -3.7749     5.3780  H       1  <O>11       0.1737
  35 H8       -6.9101    -7.9869     3.2959  H       1  <O>11       0.0621
  36 H9       -7.1909    -6.0200     4.7046  H       1  <O>11       0.0637
  37 H10      -3.9749    -4.1218     2.7398  H       1  <O>11       0.0655
@<TRIPOS>BOND
     1     1     2   am
     2     2     3    2
     3     2     4   am
     4     4     5    1
     5     5     6    1
     6     6     7    1
     7     7     8   ar
     8     8     9   ar
     9     9    10   ar
    10    10    11    1
    11    11    12    1
    12    12    13    2
    13    12    14    2
    14    12    15    1
    15    15    16   ar
    16    16    17    1
    17    16    18   ar
    18    18    19    1
    19    18    20   ar
    20    20    21    1
    21    20    22   ar
    22    22    23    1
    23    22    24   ar
    24    15    24   ar
    25    24    25    1
    26    10    26   ar
    27    26    27   ar
    28     7    27   ar
    29     4    27    1
    30     1    28    1
    31     1    29    1
    32     5    30    1
    33     5    31    1
    34     6    32    1
    35     6    33    1
    36    11    34    1
    37     8    35    1
    38     9    36    1
    39    26    37    1
@<TRIPOS>MOLECULE
mol93_1_25
 37 39 0 0 0
SMALL
USER_CHARGES
****
VDW energy = -205.63
@<TRIPOS>ATOM
   1 N1       -1.6879    -5.6444    -0.3156  N.am    1  <O>11      -0.3129
   2 C1       -2.5742    -5.3829     0.6945  C.2     1  <O>11       0.3039
   3 O1       -2.5158    -4.3227     1.2994  O.2     1  <O>11      -0.2525
   4 N2       -3.5190    -6.3020     1.0240  N.am    1  <O>11      -0.2551
   5 C2       -3.8037    -7.6368     0.4634  C.3     1  <O>11       0.0253
   6 C3       -4.9432    -8.2615     1.2773  C.3     1  <O>11      -0.0096
   7 C4       -5.2901    -7.1600     2.2237  C.ar    1  <O>11      -0.0243
   8 C5       -6.2939    -7.1669     3.1819  C.ar    1  <O>11      -0.0550
   9 C6       -6.4497    -6.0395     3.9868  C.ar    1  <O>11      -0.0390
  10 C7       -5.6054    -4.9321     3.8268  C.ar    1  <O>11       0.0498
  11 N3       -5.7865    -3.7795     4.6716  N.pl3   1  <O>11      -0.2160
  12 S1       -4.8020    -2.4640     4.4973  S.O2    1  <O>11       0.0780
  13 O2       -4.9524    -1.8600     2.9574  O.2     1  <O>11      -0.1498
  14 O3       -3.2246    -2.9129     4.7635  O.2     1  <O>11      -0.1498
  15 C8       -5.2666    -1.2197     5.6667  C.ar    1  <O>11       0.1843
  16 C9       -6.5619    -0.6731     5.6451  C.ar    1  <O>11       0.1907
  17 F1       -7.4712    -1.1184     4.7211  F       1  <O>11      -0.2002
  18 C10      -6.9236     0.3184     6.5622  C.ar    1  <O>11       0.1983
  19 F2       -8.1881     0.8482     6.5294  F       1  <O>11      -0.1993
  20 C11      -6.0014     0.7713     7.5091  C.ar    1  <O>11       0.1992
  21 F3       -6.3524     1.7445     8.4097  F       1  <O>11      -0.1993
  22 C12      -4.7155     0.2246     7.5343  C.ar    1  <O>11       0.1983
  23 F4       -3.8143     0.6730     8.4648  F       1  <O>11      -0.1993
  24 C13      -4.3441    -0.7674     6.6239  C.ar    1  <O>11       0.1907
  25 F5       -3.0856    -1.3107     6.6549  F       1  <O>11      -0.2002
  26 C14      -4.5960    -4.9375     2.8574  C.ar    1  <O>11      -0.0176
  27 C15      -4.4471    -6.0597     2.0589  C.ar    1  <O>11       0.0427
  28 H1       -1.7367    -6.5293    -0.8205  H       1  <O>11       0.1465
  29 H2       -0.9788    -4.9543    -0.5633  H       1  <O>11       0.1465
  30 H3       -4.1035    -7.5433    -0.5800  H       1  <O>11       0.0472
  31 H4       -2.9149    -8.2636     0.5318  H       1  <O>11       0.0472
  32 H5       -5.7905    -8.5164     0.6406  H       1  <O>11       0.0329
  33 H6       -4.6078    -9.1500     1.8109  H       1  <O>11       0.0329
  34 H7       -6.5220    -3.7749     5.3780  H       1  <O>11       0.1737
  35 H8       -6.9101    -7.9869     3.2959  H       1  <O>11       0.0621
  36 H9       -7.1909    -6.0200     4.7046  H       1  <O>11       0.0637
  37 H10      -3.9749    -4.1218     2.7398  H       1  <O>11       0.0655
@<TRIPOS>BOND
     1     1     2   am
     2     2     3    2
     3     2     4   am
     4     4     5    1
     5     5     6    1
     6     6     7    1
     7     7     8   ar
     8     8     9   ar
     9     9    10   ar
    10    10    11    1
    11    11    12    1
    12    12    13    2
    13    12    14    2
    14    12    15    1
    15    15    16   ar
    16    16    17    1
    17    16    18   ar
    18    18    19    1
    19    18    20   ar
    20    20    21    1
    21    20    22   ar
    22    22    23    1
    23    22    24   ar
    24    15    24   ar
    25    24    25    1
    26    10    26   ar
    27    26    27   ar
    28     7    27   ar
    29     4    27    1
    30     1    28    1
    31     1    29    1
    32     5    30    1
    33     5    31    1
    34     6    32    1
    35     6    33    1
    36    11    34    1
    37     8    35    1
    38     9    36    1
    39    26    37    1
@<TRIPOS>MOLECULE
mol93_1_26
 37 39 0 0 0
SMALL
USER_CHARGES
****
VDW energy = -205.57
@<TRIPOS>ATOM
   1 N1       -1.6879    -5.6444    -0.3156  N.am    1  <O>11      -0.3129
   2 C1       -2.5742    -5.3829     0.6945  C.2     1  <O>11       0.3039
   3 O1       -2.5158    -4.3227     1.2994  O.2     1  <O>11      -0.2525
   4 N2       -3.5190    -6.3020     1.0240  N.am    1  <O>11      -0.2551
   5 C2       -3.8037    -7.6368     0.4634  C.3     1  <O>11       0.0253
   6 C3       -4.9432    -8.2615     1.2773  C.3     1  <O>11      -0.0096
   7 C4       -5.2901    -7.1600     2.2237  C.ar    1  <O>11      -0.0243
   8 C5       -6.2939    -7.1669     3.1819  C.ar    1  <O>11      -0.0550
   9 C6       -6.4497    -6.0395     3.9868  C.ar    1  <O>11      -0.0390
  10 C7       -5.6054    -4.9321     3.8268  C.ar    1  <O>11       0.0498
  11 N3       -5.7865    -3.7795     4.6716  N.pl3   1  <O>11      -0.2160
  12 S1       -4.8020    -2.4640     4.4973  S.O2    1  <O>11       0.0780
  13 O2       -4.9524    -1.8600     2.9574  O.2     1  <O>11      -0.1498
  14 O3       -3.2246    -2.9129     4.7635  O.2     1  <O>11      -0.1498
  15 C8       -5.2666    -1.2197     5.6667  C.ar    1  <O>11       0.1843
  16 C9       -5.2230    -1.4896     7.0459  C.ar    1  <O>11       0.1907
  17 F1       -4.8049    -2.7193     7.4840  F       1  <O>11      -0.2002
  18 C10      -5.6018    -0.5092     7.9680  C.ar    1  <O>11       0.1983
  19 F2       -5.5601    -0.7845     9.3109  F       1  <O>11      -0.1993
  20 C11      -6.0235     0.7473     7.5258  C.ar    1  <O>11       0.1992
  21 F3       -6.3967     1.7111     8.4275  F       1  <O>11      -0.1993
  22 C12      -6.0621     1.0178     6.1553  C.ar    1  <O>11       0.1983
  23 F4       -6.4773     2.2519     5.7267  F       1  <O>11      -0.1993
  24 C13      -5.6844     0.0463     5.2255  C.ar    1  <O>11       0.1907
  25 F5       -5.7128     0.3149     3.8813  F       1  <O>11      -0.2002
  26 C14      -4.5960    -4.9375     2.8574  C.ar    1  <O>11      -0.0176
  27 C15      -4.4471    -6.0597     2.0589  C.ar    1  <O>11       0.0427
  28 H1       -1.7367    -6.5293    -0.8205  H       1  <O>11       0.1465
  29 H2       -0.9788    -4.9543    -0.5633  H       1  <O>11       0.1465
  30 H3       -4.1035    -7.5433    -0.5800  H       1  <O>11       0.0472
  31 H4       -2.9149    -8.2636     0.5318  H       1  <O>11       0.0472
  32 H5       -5.7905    -8.5164     0.6406  H       1  <O>11       0.0329
  33 H6       -4.6078    -9.1500     1.8109  H       1  <O>11       0.0329
  34 H7       -6.5220    -3.7749     5.3780  H       1  <O>11       0.1737
  35 H8       -6.9101    -7.9869     3.2959  H       1  <O>11       0.0621
  36 H9       -7.1909    -6.0200     4.7046  H       1  <O>11       0.0637
  37 H10      -3.9749    -4.1218     2.7398  H       1  <O>11       0.0655
@<TRIPOS>BOND
     1     1     2   am
     2     2     3    2
     3     2     4   am
     4     4     5    1
     5     5     6    1
     6     6     7    1
     7     7     8   ar
     8     8     9   ar
     9     9    10   ar
    10    10    11    1
    11    11    12    1
    12    12    13    2
    13    12    14    2
    14    12    15    1
    15    15    16   ar
    16    16    17    1
    17    16    18   ar
    18    18    19    1
    19    18    20   ar
    20    20    21    1
    21    20    22   ar
    22    22    23    1
    23    22    24   ar
    24    15    24   ar
    25    24    25    1
    26    10    26   ar
    27    26    27   ar
    28     7    27   ar
    29     4    27    1
    30     1    28    1
    31     1    29    1
    32     5    30    1
    33     5    31    1
    34     6    32    1
    35     6    33    1
    36    11    34    1
    37     8    35    1
    38     9    36    1
    39    26    37    1
@<TRIPOS>MOLECULE
mol93_1_27
 37 39 0 0 0
SMALL
USER_CHARGES
****
VDW energy = -205.53
@<TRIPOS>ATOM
   1 N1       -1.6879    -5.6444    -0.3156  N.am    1  <O>11      -0.3129
   2 C1       -2.5742    -5.3829     0.6945  C.2     1  <O>11       0.3039
   3 O1       -2.5158    -4.3227     1.2994  O.2     1  <O>11      -0.2525
   4 N2       -3.5190    -6.3020     1.0240  N.am    1  <O>11      -0.2551
   5 C2       -3.8037    -7.6368     0.4634  C.3     1  <O>11       0.0253
   6 C3       -4.9432    -8.2615     1.2773  C.3     1  <O>11      -0.0096
   7 C4       -5.2901    -7.1600     2.2237  C.ar    1  <O>11      -0.0243
   8 C5       -6.2939    -7.1669     3.1819  C.ar    1  <O>11      -0.0550
   9 C6       -6.4497    -6.0395     3.9868  C.ar    1  <O>11      -0.0390
  10 C7       -5.6054    -4.9321     3.8268  C.ar    1  <O>11       0.0498
  11 N3       -5.7865    -3.7795     4.6716  N.pl3   1  <O>11      -0.2160
  12 S1       -4.8020    -2.4640     4.4973  S.O2    1  <O>11       0.0780
  13 O2       -3.2254    -2.9130     4.7643  O.2     1  <O>11      -0.1498
  14 O3       -5.2378    -1.2959     5.5956  O.2     1  <O>11      -0.1498
  15 C8       -4.9619    -1.8201     2.8566  C.ar    1  <O>11       0.1843
  16 C9       -4.2197    -0.6936     2.4605  C.ar    1  <O>11       0.1907
  17 F1       -3.3585    -0.1017     3.3476  F       1  <O>11      -0.2002
  18 C10      -4.3561    -0.1791     1.1675  C.ar    1  <O>11       0.1983
  19 F2       -3.6310     0.9230     0.7928  F       1  <O>11      -0.1993
  20 C11      -5.2288    -0.7826     0.2585  C.ar    1  <O>11       0.1992
  21 F3       -5.3659    -0.2800    -1.0103  F       1  <O>11      -0.1993
  22 C12      -5.9629    -1.9054     0.6502  C.ar    1  <O>11       0.1983
  23 F4       -6.8183    -2.4932    -0.2452  F       1  <O>11      -0.1993
  24 C13      -5.8331    -2.4286     1.9387  C.ar    1  <O>11       0.1907
  25 F5       -6.5459    -3.5361     2.3199  F       1  <O>11      -0.2002
  26 C14      -4.5960    -4.9375     2.8574  C.ar    1  <O>11      -0.0176
  27 C15      -4.4471    -6.0597     2.0589  C.ar    1  <O>11       0.0427
  28 H1       -1.7367    -6.5293    -0.8205  H       1  <O>11       0.1465
  29 H2       -0.9788    -4.9543    -0.5633  H       1  <O>11       0.1465
  30 H3       -4.1035    -7.5433    -0.5800  H       1  <O>11       0.0472
  31 H4       -2.9149    -8.2636     0.5318  H       1  <O>11       0.0472
  32 H5       -5.7905    -8.5164     0.6406  H       1  <O>11       0.0329
  33 H6       -4.6078    -9.1500     1.8109  H       1  <O>11       0.0329
  34 H7       -6.5220    -3.7749     5.3780  H       1  <O>11       0.1737
  35 H8       -6.9101    -7.9869     3.2959  H       1  <O>11       0.0621
  36 H9       -7.1909    -6.0200     4.7046  H       1  <O>11       0.0637
  37 H10      -3.9749    -4.1218     2.7398  H       1  <O>11       0.0655
@<TRIPOS>BOND
     1     1     2   am
     2     2     3    2
     3     2     4   am
     4     4     5    1
     5     5     6    1
     6     6     7    1
     7     7     8   ar
     8     8     9   ar
     9     9    10   ar
    10    10    11    1
    11    11    12    1
    12    12    13    2
    13    12    14    2
    14    12    15    1
    15    15    16   ar
    16    16    17    1
    17    16    18   ar
    18    18    19    1
    19    18    20   ar
    20    20    21    1
    21    20    22   ar
    22    22    23    1
    23    22    24   ar
    24    15    24   ar
    25    24    25    1
    26    10    26   ar
    27    26    27   ar
    28     7    27   ar
    29     4    27    1
    30     1    28    1
    31     1    29    1
    32     5    30    1
    33     5    31    1
    34     6    32    1
    35     6    33    1
    36    11    34    1
    37     8    35    1
    38     9    36    1
    39    26    37    1
@<TRIPOS>MOLECULE
mol93_1_28
 37 39 0 0 0
SMALL
USER_CHARGES
****
VDW energy = -201.48
@<TRIPOS>ATOM
   1 N1       -1.6879    -5.6444    -0.3156  N.am    1  <O>11      -0.3129
   2 C1       -2.5742    -5.3829     0.6945  C.2     1  <O>11       0.3039
   3 O1       -2.5158    -4.3227     1.2994  O.2     1  <O>11      -0.2525
   4 N2       -3.5190    -6.3020     1.0240  N.am    1  <O>11      -0.2551
   5 C2       -3.8037    -7.6368     0.4634  C.3     1  <O>11       0.0253
   6 C3       -4.9432    -8.2615     1.2773  C.3     1  <O>11      -0.0096
   7 C4       -5.2901    -7.1600     2.2237  C.ar    1  <O>11      -0.0243
   8 C5       -6.2939    -7.1669     3.1819  C.ar    1  <O>11      -0.0550
   9 C6       -6.4497    -6.0395     3.9868  C.ar    1  <O>11      -0.0390
  10 C7       -5.6054    -4.9321     3.8268  C.ar    1  <O>11       0.0498
  11 N3       -5.7865    -3.7795     4.6716  N.pl3   1  <O>11      -0.2160
  12 S1       -4.8020    -2.4640     4.4973  S.O2    1  <O>11       0.0780
  13 O2       -4.9524    -1.8600     2.9574  O.2     1  <O>11      -0.1498
  14 O3       -3.2246    -2.9129     4.7635  O.2     1  <O>11      -0.1498
  15 C8       -5.2666    -1.2197     5.6667  C.ar    1  <O>11       0.1843
  16 C9       -4.5738     0.0028     5.7158  C.ar    1  <O>11       0.1907
  17 F1       -3.5426     0.2342     4.8429  F       1  <O>11      -0.2002
  18 C10      -4.9346     0.9802     6.6483  C.ar    1  <O>11       0.1983
  19 F2       -4.2492     2.1672     6.6910  F       1  <O>11      -0.1993
  20 C11      -5.9885     0.7504     7.5364  C.ar    1  <O>11       0.1992
  21 F3       -6.3446     1.7065     8.4531  F       1  <O>11      -0.1993
  22 C12      -6.6808    -0.4624     7.4845  C.ar    1  <O>11       0.1983
  23 F4       -7.7136    -0.6831     8.3584  F       1  <O>11      -0.1993
  24 C13      -6.3298    -1.4450     6.5559  C.ar    1  <O>11       0.1907
  25 F5       -7.0154    -2.6310     6.4984  F       1  <O>11      -0.2002
  26 C14      -4.5960    -4.9375     2.8574  C.ar    1  <O>11      -0.0176
  27 C15      -4.4471    -6.0597     2.0589  C.ar    1  <O>11       0.0427
  28 H1       -1.7367    -6.5293    -0.8205  H       1  <O>11       0.1465
  29 H2       -0.9788    -4.9543    -0.5633  H       1  <O>11       0.1465
  30 H3       -4.1035    -7.5433    -0.5800  H       1  <O>11       0.0472
  31 H4       -2.9149    -8.2636     0.5318  H       1  <O>11       0.0472
  32 H5       -5.7905    -8.5164     0.6406  H       1  <O>11       0.0329
  33 H6       -4.6078    -9.1500     1.8109  H       1  <O>11       0.0329
  34 H7       -6.5220    -3.7749     5.3780  H       1  <O>11       0.1737
  35 H8       -6.9101    -7.9869     3.2959  H       1  <O>11       0.0621
  36 H9       -7.1909    -6.0200     4.7046  H       1  <O>11       0.0637
  37 H10      -3.9749    -4.1218     2.7398  H       1  <O>11       0.0655
@<TRIPOS>BOND
     1     1     2   am
     2     2     3    2
     3     2     4   am
     4     4     5    1
     5     5     6    1
     6     6     7    1
     7     7     8   ar
     8     8     9   ar
     9     9    10   ar
    10    10    11    1
    11    11    12    1
    12    12    13    2
    13    12    14    2
    14    12    15    1
    15    15    16   ar
    16    16    17    1
    17    16    18   ar
    18    18    19    1
    19    18    20   ar
    20    20    21    1
    21    20    22   ar
    22    22    23    1
    23    22    24   ar
    24    15    24   ar
    25    24    25    1
    26    10    26   ar
    27    26    27   ar
    28     7    27   ar
    29     4    27    1
    30     1    28    1
    31     1    29    1
    32     5    30    1
    33     5    31    1
    34     6    32    1
    35     6    33    1
    36    11    34    1
    37     8    35    1
    38     9    36    1
    39    26    37    1
@<TRIPOS>MOLECULE
mol93_1_29
 37 39 0 0 0
SMALL
USER_CHARGES
****
VDW energy = -197.89
@<TRIPOS>ATOM
   1 N1       -1.6879    -5.6444    -0.3156  N.am    1  <O>11      -0.3129
   2 C1       -2.5742    -5.3829     0.6945  C.2     1  <O>11       0.3039
   3 O1       -2.5158    -4.3227     1.2994  O.2     1  <O>11      -0.2525
   4 N2       -3.5190    -6.3020     1.0240  N.am    1  <O>11      -0.2551
   5 C2       -3.8037    -7.6368     0.4634  C.3     1  <O>11       0.0253
   6 C3       -4.9432    -8.2615     1.2773  C.3     1  <O>11      -0.0096
   7 C4       -5.2901    -7.1600     2.2237  C.ar    1  <O>11      -0.0243
   8 C5       -6.2939    -7.1669     3.1819  C.ar    1  <O>11      -0.0550
   9 C6       -6.4497    -6.0395     3.9868  C.ar    1  <O>11      -0.0390
  10 C7       -5.6054    -4.9321     3.8268  C.ar    1  <O>11       0.0498
  11 N3       -5.7865    -3.7795     4.6716  N.pl3   1  <O>11      -0.2160
  12 S1       -7.1670    -2.8788     4.5564  S.O2    1  <O>11       0.0780
  13 O2       -7.3058    -2.2728     3.0162  O.2     1  <O>11      -0.1498
  14 O3       -7.1012    -1.6221     5.6412  O.2     1  <O>11      -0.1498
  15 C8       -8.5683    -3.8974     4.9177  C.ar    1  <O>11       0.1843
  16 C9       -9.8131    -3.6302     4.3211  C.ar    1  <O>11       0.1907
  17 F1       -9.9352    -2.5830     3.4451  F       1  <O>11      -0.2002
  18 C10     -10.9221    -4.4287     4.6169  C.ar    1  <O>11       0.1983
  19 F2      -12.1328    -4.1565     4.0332  F       1  <O>11      -0.1993
  20 C11     -10.8007    -5.5003     5.5053  C.ar    1  <O>11       0.1992
  21 F3      -11.8867    -6.2852     5.7985  F       1  <O>11      -0.1993
  22 C12      -9.5624    -5.7694     6.0945  C.ar    1  <O>11       0.1983
  23 F4       -9.4489    -6.8215     6.9660  F       1  <O>11      -0.1993
  24 C13      -8.4478    -4.9791     5.8049  C.ar    1  <O>11       0.1907
  25 F5       -7.2306    -5.2492     6.3754  F       1  <O>11      -0.2002
  26 C14      -4.5960    -4.9375     2.8574  C.ar    1  <O>11      -0.0176
  27 C15      -4.4471    -6.0597     2.0589  C.ar    1  <O>11       0.0427
  28 H1       -1.7367    -6.5293    -0.8205  H       1  <O>11       0.1465
  29 H2       -0.9788    -4.9543    -0.5633  H       1  <O>11       0.1465
  30 H3       -4.1035    -7.5433    -0.5800  H       1  <O>11       0.0472
  31 H4       -2.9149    -8.2636     0.5318  H       1  <O>11       0.0472
  32 H5       -5.7905    -8.5164     0.6406  H       1  <O>11       0.0329
  33 H6       -4.6078    -9.1500     1.8109  H       1  <O>11       0.0329
  34 H7       -5.0627    -3.5184     5.3409  H       1  <O>11       0.1737
  35 H8       -6.9101    -7.9869     3.2959  H       1  <O>11       0.0621
  36 H9       -7.1909    -6.0200     4.7046  H       1  <O>11       0.0637
  37 H10      -3.9749    -4.1218     2.7398  H       1  <O>11       0.0655
@<TRIPOS>BOND
     1     1     2   am
     2     2     3    2
     3     2     4   am
     4     4     5    1
     5     5     6    1
     6     6     7    1
     7     7     8   ar
     8     8     9   ar
     9     9    10   ar
    10    10    11    1
    11    11    12    1
    12    12    13    2
    13    12    14    2
    14    12    15    1
    15    15    16   ar
    16    16    17    1
    17    16    18   ar
    18    18    19    1
    19    18    20   ar
    20    20    21    1
    21    20    22   ar
    22    22    23    1
    23    22    24   ar
    24    15    24   ar
    25    24    25    1
    26    10    26   ar
    27    26    27   ar
    28     7    27   ar
    29     4    27    1
    30     1    28    1
    31     1    29    1
    32     5    30    1
    33     5    31    1
    34     6    32    1
    35     6    33    1
    36    11    34    1
    37     8    35    1
    38     9    36    1
    39    26    37    1
@<TRIPOS>MOLECULE
mol93_1_30
 37 39 0 0 0
SMALL
USER_CHARGES
****
VDW energy = -180.45
@<TRIPOS>ATOM
   1 N1       -1.6879    -5.6444    -0.3156  N.am    1  <O>11      -0.3129
   2 C1       -2.5742    -5.3829     0.6945  C.2     1  <O>11       0.3039
   3 O1       -2.5158    -4.3227     1.2994  O.2     1  <O>11      -0.2525
   4 N2       -3.5190    -6.3020     1.0240  N.am    1  <O>11      -0.2551
   5 C2       -3.8037    -7.6368     0.4634  C.3     1  <O>11       0.0253
   6 C3       -4.9432    -8.2615     1.2773  C.3     1  <O>11      -0.0096
   7 C4       -5.2901    -7.1600     2.2237  C.ar    1  <O>11      -0.0243
   8 C5       -6.2939    -7.1669     3.1819  C.ar    1  <O>11      -0.0550
   9 C6       -6.4497    -6.0395     3.9868  C.ar    1  <O>11      -0.0390
  10 C7       -5.6054    -4.9321     3.8268  C.ar    1  <O>11       0.0498
  11 N3       -5.7865    -3.7795     4.6716  N.pl3   1  <O>11      -0.2160
  12 S1       -7.1670    -2.8788     4.5564  S.O2    1  <O>11       0.0780
  13 O2       -7.1011    -1.6232     5.6415  O.2     1  <O>11      -0.1498
  14 O3       -8.4826    -3.8349     4.8963  O.2     1  <O>11      -0.1498
  15 C8       -7.3153    -2.2329     2.9154  C.ar    1  <O>11       0.1843
  16 C9       -7.9655    -1.0066     2.6911  C.ar    1  <O>11       0.1907
  17 F1       -8.4738    -0.3037     3.7524  F       1  <O>11      -0.2002
  18 C10      -8.0922    -0.5035     1.3927  C.ar    1  <O>11       0.1983
  19 F2       -8.7323     0.6912     1.1844  F       1  <O>11      -0.1993
  20 C11      -7.5708    -1.2143     0.3087  C.ar    1  <O>11       0.1992
  21 F3       -7.6941    -0.7243    -0.9665  F       1  <O>11      -0.1993
  22 C12      -6.9199    -2.4307     0.5317  C.ar    1  <O>11       0.1983
  23 F4       -6.4108    -3.1245    -0.5353  F       1  <O>11      -0.1993
  24 C13      -6.7863    -2.9417     1.8247  C.ar    1  <O>11       0.1907
  25 F5       -6.1391    -4.1303     2.0446  F       1  <O>11      -0.2002
  26 C14      -4.5960    -4.9375     2.8574  C.ar    1  <O>11      -0.0176
  27 C15      -4.4471    -6.0597     2.0589  C.ar    1  <O>11       0.0427
  28 H1       -1.7367    -6.5293    -0.8205  H       1  <O>11       0.1465
  29 H2       -0.9788    -4.9543    -0.5633  H       1  <O>11       0.1465
  30 H3       -4.1035    -7.5433    -0.5800  H       1  <O>11       0.0472
  31 H4       -2.9149    -8.2636     0.5318  H       1  <O>11       0.0472
  32 H5       -5.7905    -8.5164     0.6406  H       1  <O>11       0.0329
  33 H6       -4.6078    -9.1500     1.8109  H       1  <O>11       0.0329
  34 H7       -5.0627    -3.5184     5.3409  H       1  <O>11       0.1737
  35 H8       -6.9101    -7.9869     3.2959  H       1  <O>11       0.0621
  36 H9       -7.1909    -6.0200     4.7046  H       1  <O>11       0.0637
  37 H10      -3.9749    -4.1218     2.7398  H       1  <O>11       0.0655
@<TRIPOS>BOND
     1     1     2   am
     2     2     3    2
     3     2     4   am
     4     4     5    1
     5     5     6    1
     6     6     7    1
     7     7     8   ar
     8     8     9   ar
     9     9    10   ar
    10    10    11    1
    11    11    12    1
    12    12    13    2
    13    12    14    2
    14    12    15    1
    15    15    16   ar
    16    16    17    1
    17    16    18   ar
    18    18    19    1
    19    18    20   ar
    20    20    21    1
    21    20    22   ar
    22    22    23    1
    23    22    24   ar
    24    15    24   ar
    25    24    25    1
    26    10    26   ar
    27    26    27   ar
    28     7    27   ar
    29     4    27    1
    30     1    28    1
    31     1    29    1
    32     5    30    1
    33     5    31    1
    34     6    32    1
    35     6    33    1
    36    11    34    1
    37     8    35    1
    38     9    36    1
    39    26    37    1
@<TRIPOS>MOLECULE
mol93_2_1
 37 39 0 0 0
SMALL
USER_CHARGES
****
VDW energy = -216.45
@<TRIPOS>ATOM
   1 N1       -1.6879    -5.6444    -0.3156  N.am    1  <O>11      -0.3129
   2 C1       -2.5742    -5.3829     0.6945  C.2     1  <O>11       0.3039
   3 O1       -2.5158    -4.3227     1.2994  O.2     1  <O>11      -0.2525
   4 N2       -3.5190    -6.3020     1.0240  N.am    1  <O>11      -0.2551
   5 C2       -3.8037    -7.6368     0.4634  C.3     1  <O>11       0.0253
   6 C3       -4.9432    -8.2615     1.2773  C.3     1  <O>11      -0.0096
   7 C4       -5.2901    -7.1600     2.2237  C.ar    1  <O>11      -0.0243
   8 C5       -6.2939    -7.1669     3.1819  C.ar    1  <O>11      -0.0550
   9 C6       -6.4497    -6.0395     3.9868  C.ar    1  <O>11      -0.0390
  10 C7       -5.6054    -4.9321     3.8268  C.ar    1  <O>11       0.0498
  11 N3       -5.7865    -3.7795     4.6716  N.pl3   1  <O>11      -0.2160
  12 S1       -6.8005    -2.5620     4.2027  S.O2    1  <O>11       0.0780
  13 O2       -6.8114    -1.3731     5.3634  O.2     1  <O>11      -0.1498
  14 O3       -8.3369    -3.1643     4.0112  O.2     1  <O>11      -0.1498
  15 C8       -6.2369    -1.8833     2.6688  C.ar    1  <O>11       0.1843
  16 C9       -4.9572    -1.3093     2.5741  C.ar    1  <O>11       0.1907
  17 F1       -4.1377    -1.2879     3.6761  F       1  <O>11      -0.2002
  18 C10      -4.5172    -0.7629     1.3634  C.ar    1  <O>11       0.1983
  19 F2       -3.2671    -0.2039     1.2859  F       1  <O>11      -0.1993
  20 C11      -5.3454    -0.7851     0.2398  C.ar    1  <O>11       0.1992
  21 F3       -4.9212    -0.2472    -0.9484  F       1  <O>11      -0.1993
  22 C12      -6.6161    -1.3602     0.3333  C.ar    1  <O>11       0.1983
  23 F4       -7.4257    -1.3798    -0.7746  F       1  <O>11      -0.1993
  24 C13      -7.0649    -1.9114     1.5342  C.ar    1  <O>11       0.1907
  25 F5       -8.3065    -2.4836     1.6209  F       1  <O>11      -0.2002
  26 C14      -4.5960    -4.9375     2.8574  C.ar    1  <O>11      -0.0176
  27 C15      -4.4471    -6.0597     2.0589  C.ar    1  <O>11       0.0427
  28 H1       -1.7367    -6.5293    -0.8205  H       1  <O>11       0.1465
  29 H2       -0.9788    -4.9543    -0.5633  H       1  <O>11       0.1465
  30 H3       -4.1035    -7.5433    -0.5800  H       1  <O>11       0.0472
  31 H4       -2.9149    -8.2636     0.5318  H       1  <O>11       0.0472
  32 H5       -5.7905    -8.5164     0.6406  H       1  <O>11       0.0329
  33 H6       -4.6078    -9.1500     1.8109  H       1  <O>11       0.0329
  34 H7       -5.2889    -3.7150     5.5601  H       1  <O>11       0.1737
  35 H8       -6.9101    -7.9869     3.2959  H       1  <O>11       0.0621
  36 H9       -7.1909    -6.0200     4.7046  H       1  <O>11       0.0637
  37 H10      -3.9749    -4.1218     2.7398  H       1  <O>11       0.0655
@<TRIPOS>BOND
     1     1     2   am
     2     2     3    2
     3     2     4   am
     4     4     5    1
     5     5     6    1
     6     6     7    1
     7     7     8   ar
     8     8     9   ar
     9     9    10   ar
    10    10    11    1
    11    11    12    1
    12    12    13    2
    13    12    14    2
    14    12    15    1
    15    15    16   ar
    16    16    17    1
    17    16    18   ar
    18    18    19    1
    19    18    20   ar
    20    20    21    1
    21    20    22   ar
    22    22    23    1
    23    22    24   ar
    24    15    24   ar
    25    24    25    1
    26    10    26   ar
    27    26    27   ar
    28     7    27   ar
    29     4    27    1
    30     1    28    1
    31     1    29    1
    32     5    30    1
    33     5    31    1
    34     6    32    1
    35     6    33    1
    36    11    34    1
    37     8    35    1
    38     9    36    1
    39    26    37    1
@<TRIPOS>MOLECULE
mol93_2_2
 37 39 0 0 0
SMALL
USER_CHARGES
****
VDW energy = -213.24
@<TRIPOS>ATOM
   1 N1       -1.6879    -5.6444    -0.3156  N.am    1  <O>11      -0.3129
   2 C1       -2.5742    -5.3829     0.6945  C.2     1  <O>11       0.3039
   3 O1       -2.5158    -4.3227     1.2994  O.2     1  <O>11      -0.2525
   4 N2       -3.5190    -6.3020     1.0240  N.am    1  <O>11      -0.2551
   5 C2       -3.8037    -7.6368     0.4634  C.3     1  <O>11       0.0253
   6 C3       -4.9432    -8.2615     1.2773  C.3     1  <O>11      -0.0096
   7 C4       -5.2901    -7.1600     2.2237  C.ar    1  <O>11      -0.0243
   8 C5       -6.2939    -7.1669     3.1819  C.ar    1  <O>11      -0.0550
   9 C6       -6.4497    -6.0395     3.9868  C.ar    1  <O>11      -0.0390
  10 C7       -5.6054    -4.9321     3.8268  C.ar    1  <O>11       0.0498
  11 N3       -5.7865    -3.7795     4.6716  N.pl3   1  <O>11      -0.2160
  12 S1       -7.1670    -2.8788     4.5564  S.O2    1  <O>11       0.0780
  13 O2       -7.1001    -1.6223     5.6416  O.2     1  <O>11      -0.1498
  14 O3       -8.4820    -3.8356     4.8960  O.2     1  <O>11      -0.1498
  15 C8       -7.3145    -2.2334     2.9154  C.ar    1  <O>11       0.1843
  16 C9       -6.3190    -1.3899     2.3922  C.ar    1  <O>11       0.1907
  17 F1       -5.2214    -1.0772     3.1564  F       1  <O>11      -0.2002
  18 C10      -6.4425    -0.8713     1.0985  C.ar    1  <O>11       0.1983
  19 F2       -5.4648    -0.0476     0.6017  F       1  <O>11      -0.1993
  20 C11      -7.5548    -1.1888     0.3169  C.ar    1  <O>11       0.1992
  21 F3       -7.6834    -0.6799    -0.9502  F       1  <O>11      -0.1993
  22 C12      -8.5422    -2.0312     0.8360  C.ar    1  <O>11       0.1983
  23 F4       -9.6332    -2.3406     0.0630  F       1  <O>11      -0.1993
  24 C13      -8.4287    -2.5576     2.1235  C.ar    1  <O>11       0.1907
  25 F5       -9.3924    -3.3911     2.6263  F       1  <O>11      -0.2002
  26 C14      -4.5960    -4.9375     2.8574  C.ar    1  <O>11      -0.0176
  27 C15      -4.4471    -6.0597     2.0589  C.ar    1  <O>11       0.0427
  28 H1       -1.7367    -6.5293    -0.8205  H       1  <O>11       0.1465
  29 H2       -0.9788    -4.9543    -0.5633  H       1  <O>11       0.1465
  30 H3       -4.1035    -7.5433    -0.5800  H       1  <O>11       0.0472
  31 H4       -2.9149    -8.2636     0.5318  H       1  <O>11       0.0472
  32 H5       -5.7905    -8.5164     0.6406  H       1  <O>11       0.0329
  33 H6       -4.6078    -9.1500     1.8109  H       1  <O>11       0.0329
  34 H7       -5.0624    -3.5194     5.3418  H       1  <O>11       0.1737
  35 H8       -6.9101    -7.9869     3.2959  H       1  <O>11       0.0621
  36 H9       -7.1909    -6.0200     4.7046  H       1  <O>11       0.0637
  37 H10      -3.9749    -4.1218     2.7398  H       1  <O>11       0.0655
@<TRIPOS>BOND
     1     1     2   am
     2     2     3    2
     3     2     4   am
     4     4     5    1
     5     5     6    1
     6     6     7    1
     7     7     8   ar
     8     8     9   ar
     9     9    10   ar
    10    10    11    1
    11    11    12    1
    12    12    13    2
    13    12    14    2
    14    12    15    1
    15    15    16   ar
    16    16    17    1
    17    16    18   ar
    18    18    19    1
    19    18    20   ar
    20    20    21    1
    21    20    22   ar
    22    22    23    1
    23    22    24   ar
    24    15    24   ar
    25    24    25    1
    26    10    26   ar
    27    26    27   ar
    28     7    27   ar
    29     4    27    1
    30     1    28    1
    31     1    29    1
    32     5    30    1
    33     5    31    1
    34     6    32    1
    35     6    33    1
    36    11    34    1
    37     8    35    1
    38     9    36    1
    39    26    37    1
@<TRIPOS>MOLECULE
mol93_2_3
 37 39 0 0 0
SMALL
USER_CHARGES
****
VDW energy = -211.05
@<TRIPOS>ATOM
   1 N1       -1.6879    -5.6444    -0.3156  N.am    1  <O>11      -0.3129
   2 C1       -2.5742    -5.3829     0.6945  C.2     1  <O>11       0.3039
   3 O1       -2.5158    -4.3227     1.2994  O.2     1  <O>11      -0.2525
   4 N2       -3.5190    -6.3020     1.0240  N.am    1  <O>11      -0.2551
   5 C2       -3.8037    -7.6368     0.4634  C.3     1  <O>11       0.0253
   6 C3       -4.9432    -8.2615     1.2773  C.3     1  <O>11      -0.0096
   7 C4       -5.2901    -7.1600     2.2237  C.ar    1  <O>11      -0.0243
   8 C5       -6.2939    -7.1669     3.1819  C.ar    1  <O>11      -0.0550
   9 C6       -6.4497    -6.0395     3.9868  C.ar    1  <O>11      -0.0390
  10 C7       -5.6054    -4.9321     3.8268  C.ar    1  <O>11       0.0498
  11 N3       -5.7865    -3.7795     4.6716  N.pl3   1  <O>11      -0.2160
  12 S1       -6.8005    -2.5620     4.2027  S.O2    1  <O>11       0.0780
  13 O2       -6.2715    -1.9254     2.7619  O.2     1  <O>11      -0.1498
  14 O3       -6.8120    -1.3734     5.3633  O.2     1  <O>11      -0.1498
  15 C8       -8.4369    -3.2035     3.9984  C.ar    1  <O>11       0.1843
  16 C9       -9.1061    -3.7993     5.0817  C.ar    1  <O>11       0.1907
  17 F1       -8.4889    -3.8711     6.3066  F       1  <O>11      -0.2002
  18 C10     -10.3958    -4.3162     4.9158  C.ar    1  <O>11       0.1983
  19 F2      -11.0360    -4.8969     5.9807  F       1  <O>11      -0.1993
  20 C11     -11.0283    -4.2428     3.6735  C.ar    1  <O>11       0.1992
  21 F3      -12.2906    -4.7516     3.5038  F       1  <O>11      -0.1993
  22 C12     -10.3642    -3.6462     2.5978  C.ar    1  <O>11       0.1983
  23 F4      -10.9910    -3.5761     1.3790  F       1  <O>11      -0.1993
  24 C13      -9.0792    -3.1239     2.7515  C.ar    1  <O>11       0.1907
  25 F5       -8.4343    -2.5305     1.6988  F       1  <O>11      -0.2002
  26 C14      -4.5960    -4.9375     2.8574  C.ar    1  <O>11      -0.0176
  27 C15      -4.4471    -6.0597     2.0589  C.ar    1  <O>11       0.0427
  28 H1       -1.7367    -6.5293    -0.8205  H       1  <O>11       0.1465
  29 H2       -0.9788    -4.9543    -0.5633  H       1  <O>11       0.1465
  30 H3       -4.1035    -7.5433    -0.5800  H       1  <O>11       0.0472
  31 H4       -2.9149    -8.2636     0.5318  H       1  <O>11       0.0472
  32 H5       -5.7905    -8.5164     0.6406  H       1  <O>11       0.0329
  33 H6       -4.6078    -9.1500     1.8109  H       1  <O>11       0.0329
  34 H7       -5.2889    -3.7150     5.5601  H       1  <O>11       0.1737
  35 H8       -6.9101    -7.9869     3.2959  H       1  <O>11       0.0621
  36 H9       -7.1909    -6.0200     4.7046  H       1  <O>11       0.0637
  37 H10      -3.9749    -4.1218     2.7398  H       1  <O>11       0.0655
@<TRIPOS>BOND
     1     1     2   am
     2     2     3    2
     3     2     4   am
     4     4     5    1
     5     5     6    1
     6     6     7    1
     7     7     8   ar
     8     8     9   ar
     9     9    10   ar
    10    10    11    1
    11    11    12    1
    12    12    13    2
    13    12    14    2
    14    12    15    1
    15    15    16   ar
    16    16    17    1
    17    16    18   ar
    18    18    19    1
    19    18    20   ar
    20    20    21    1
    21    20    22   ar
    22    22    23    1
    23    22    24   ar
    24    15    24   ar
    25    24    25    1
    26    10    26   ar
    27    26    27   ar
    28     7    27   ar
    29     4    27    1
    30     1    28    1
    31     1    29    1
    32     5    30    1
    33     5    31    1
    34     6    32    1
    35     6    33    1
    36    11    34    1
    37     8    35    1
    38     9    36    1
    39    26    37    1
@<TRIPOS>MOLECULE
mol93_2_4
 37 39 0 0 0
SMALL
USER_CHARGES
****
VDW energy = -211.01
@<TRIPOS>ATOM
   1 N1       -1.6879    -5.6444    -0.3156  N.am    1  <O>11      -0.3129
   2 C1       -2.5742    -5.3829     0.6945  C.2     1  <O>11       0.3039
   3 O1       -2.5158    -4.3227     1.2994  O.2     1  <O>11      -0.2525
   4 N2       -3.5190    -6.3020     1.0240  N.am    1  <O>11      -0.2551
   5 C2       -3.8037    -7.6368     0.4634  C.3     1  <O>11       0.0253
   6 C3       -4.9432    -8.2615     1.2773  C.3     1  <O>11      -0.0096
   7 C4       -5.2901    -7.1600     2.2237  C.ar    1  <O>11      -0.0243
   8 C5       -6.2939    -7.1669     3.1819  C.ar    1  <O>11      -0.0550
   9 C6       -6.4497    -6.0395     3.9868  C.ar    1  <O>11      -0.0390
  10 C7       -5.6054    -4.9321     3.8268  C.ar    1  <O>11       0.0498
  11 N3       -5.7865    -3.7795     4.6716  N.pl3   1  <O>11      -0.2160
  12 S1       -4.9803    -3.6741     6.1101  S.O2    1  <O>11       0.0780
  13 O2       -5.3800    -2.2491     6.8653  O.2     1  <O>11      -0.1498
  14 O3       -3.3431    -3.7137     5.8311  O.2     1  <O>11      -0.1498
  15 C8       -5.4364    -5.0367     7.1427  C.ar    1  <O>11       0.1843
  16 C9       -6.7772    -5.2221     7.5223  C.ar    1  <O>11       0.1907
  17 F1       -7.7376    -4.3466     7.0776  F       1  <O>11      -0.2002
  18 C10      -7.1347    -6.2937     8.3481  C.ar    1  <O>11       0.1983
  19 F2       -8.4463    -6.4610     8.7126  F       1  <O>11      -0.1993
  20 C11      -6.1626    -7.1878     8.8000  C.ar    1  <O>11       0.1992
  21 F3       -6.5063    -8.2375     9.6131  F       1  <O>11      -0.1993
  22 C12      -4.8301    -7.0057     8.4185  C.ar    1  <O>11       0.1983
  23 F4       -3.8787    -7.8882     8.8652  F       1  <O>11      -0.1993
  24 C13      -4.4616    -5.9429     7.5925  C.ar    1  <O>11       0.1907
  25 F5       -3.1570    -5.7723     7.2115  F       1  <O>11      -0.2002
  26 C14      -4.5960    -4.9375     2.8574  C.ar    1  <O>11      -0.0176
  27 C15      -4.4471    -6.0597     2.0589  C.ar    1  <O>11       0.0427
  28 H1       -1.7367    -6.5293    -0.8205  H       1  <O>11       0.1465
  29 H2       -0.9788    -4.9543    -0.5633  H       1  <O>11       0.1465
  30 H3       -4.1035    -7.5433    -0.5800  H       1  <O>11       0.0472
  31 H4       -2.9149    -8.2636     0.5318  H       1  <O>11       0.0472
  32 H5       -5.7905    -8.5164     0.6406  H       1  <O>11       0.0329
  33 H6       -4.6078    -9.1500     1.8109  H       1  <O>11       0.0329
  34 H7       -6.4123    -3.0276     4.3814  H       1  <O>11       0.1737
  35 H8       -6.9101    -7.9869     3.2959  H       1  <O>11       0.0621
  36 H9       -7.1909    -6.0200     4.7046  H       1  <O>11       0.0637
  37 H10      -3.9749    -4.1218     2.7398  H       1  <O>11       0.0655
@<TRIPOS>BOND
     1     1     2   am
     2     2     3    2
     3     2     4   am
     4     4     5    1
     5     5     6    1
     6     6     7    1
     7     7     8   ar
     8     8     9   ar
     9     9    10   ar
    10    10    11    1
    11    11    12    1
    12    12    13    2
    13    12    14    2
    14    12    15    1
    15    15    16   ar
    16    16    17    1
    17    16    18   ar
    18    18    19    1
    19    18    20   ar
    20    20    21    1
    21    20    22   ar
    22    22    23    1
    23    22    24   ar
    24    15    24   ar
    25    24    25    1
    26    10    26   ar
    27    26    27   ar
    28     7    27   ar
    29     4    27    1
    30     1    28    1
    31     1    29    1
    32     5    30    1
    33     5    31    1
    34     6    32    1
    35     6    33    1
    36    11    34    1
    37     8    35    1
    38     9    36    1
    39    26    37    1
@<TRIPOS>MOLECULE
mol93_2_5
 37 39 0 0 0
SMALL
USER_CHARGES
****
VDW energy = -210.50
@<TRIPOS>ATOM
   1 N1       -1.6879    -5.6444    -0.3156  N.am    1  <O>11      -0.3129
   2 C1       -2.5742    -5.3829     0.6945  C.2     1  <O>11       0.3039
   3 O1       -2.5158    -4.3227     1.2994  O.2     1  <O>11      -0.2525
   4 N2       -3.5190    -6.3020     1.0240  N.am    1  <O>11      -0.2551
   5 C2       -3.8037    -7.6368     0.4634  C.3     1  <O>11       0.0253
   6 C3       -4.9432    -8.2615     1.2773  C.3     1  <O>11      -0.0096
   7 C4       -5.2901    -7.1600     2.2237  C.ar    1  <O>11      -0.0243
   8 C5       -6.2939    -7.1669     3.1819  C.ar    1  <O>11      -0.0550
   9 C6       -6.4497    -6.0395     3.9868  C.ar    1  <O>11      -0.0390
  10 C7       -5.6054    -4.9321     3.8268  C.ar    1  <O>11       0.0498
  11 N3       -5.7865    -3.7795     4.6716  N.pl3   1  <O>11      -0.2160
  12 S1       -7.1670    -2.8788     4.5564  S.O2    1  <O>11       0.0780
  13 O2       -7.1001    -1.6223     5.6416  O.2     1  <O>11      -0.1498
  14 O3       -8.4820    -3.8356     4.8960  O.2     1  <O>11      -0.1498
  15 C8       -7.3145    -2.2334     2.9154  C.ar    1  <O>11       0.1843
  16 C9       -7.3888    -3.1040     1.8142  C.ar    1  <O>11       0.1907
  17 F1       -7.3591    -4.4621     2.0172  F       1  <O>11      -0.2002
  18 C10      -7.4943    -2.5921     0.5162  C.ar    1  <O>11       0.1983
  19 F2       -7.5635    -3.4531    -0.5491  F       1  <O>11      -0.1993
  20 C11      -7.5279    -1.2125     0.3052  C.ar    1  <O>11       0.1992
  21 F3       -7.6267    -0.7048    -0.9651  F       1  <O>11      -0.1993
  22 C12      -7.4586    -0.3472     1.4009  C.ar    1  <O>11       0.1983
  23 F4       -7.4928     1.0080     1.1876  F       1  <O>11      -0.1993
  24 C13      -7.3568    -0.8457     2.7004  C.ar    1  <O>11       0.1907
  25 F5       -7.2994     0.0038     3.7734  F       1  <O>11      -0.2002
  26 C14      -4.5960    -4.9375     2.8574  C.ar    1  <O>11      -0.0176
  27 C15      -4.4471    -6.0597     2.0589  C.ar    1  <O>11       0.0427
  28 H1       -1.7367    -6.5293    -0.8205  H       1  <O>11       0.1465
  29 H2       -0.9788    -4.9543    -0.5633  H       1  <O>11       0.1465
  30 H3       -4.1035    -7.5433    -0.5800  H       1  <O>11       0.0472
  31 H4       -2.9149    -8.2636     0.5318  H       1  <O>11       0.0472
  32 H5       -5.7905    -8.5164     0.6406  H       1  <O>11       0.0329
  33 H6       -4.6078    -9.1500     1.8109  H       1  <O>11       0.0329
  34 H7       -5.0624    -3.5194     5.3418  H       1  <O>11       0.1737
  35 H8       -6.9101    -7.9869     3.2959  H       1  <O>11       0.0621
  36 H9       -7.1909    -6.0200     4.7046  H       1  <O>11       0.0637
  37 H10      -3.9749    -4.1218     2.7398  H       1  <O>11       0.0655
@<TRIPOS>BOND
     1     1     2   am
     2     2     3    2
     3     2     4   am
     4     4     5    1
     5     5     6    1
     6     6     7    1
     7     7     8   ar
     8     8     9   ar
     9     9    10   ar
    10    10    11    1
    11    11    12    1
    12    12    13    2
    13    12    14    2
    14    12    15    1
    15    15    16   ar
    16    16    17    1
    17    16    18   ar
    18    18    19    1
    19    18    20   ar
    20    20    21    1
    21    20    22   ar
    22    22    23    1
    23    22    24   ar
    24    15    24   ar
    25    24    25    1
    26    10    26   ar
    27    26    27   ar
    28     7    27   ar
    29     4    27    1
    30     1    28    1
    31     1    29    1
    32     5    30    1
    33     5    31    1
    34     6    32    1
    35     6    33    1
    36    11    34    1
    37     8    35    1
    38     9    36    1
    39    26    37    1
@<TRIPOS>MOLECULE
mol93_2_6
 37 39 0 0 0
SMALL
USER_CHARGES
****
VDW energy = -210.39
@<TRIPOS>ATOM
   1 N1       -1.6879    -5.6444    -0.3156  N.am    1  <O>11      -0.3129
   2 C1       -2.5742    -5.3829     0.6945  C.2     1  <O>11       0.3039
   3 O1       -2.5158    -4.3227     1.2994  O.2     1  <O>11      -0.2525
   4 N2       -3.5190    -6.3020     1.0240  N.am    1  <O>11      -0.2551
   5 C2       -3.8037    -7.6368     0.4634  C.3     1  <O>11       0.0253
   6 C3       -4.9432    -8.2615     1.2773  C.3     1  <O>11      -0.0096
   7 C4       -5.2901    -7.1600     2.2237  C.ar    1  <O>11      -0.0243
   8 C5       -6.2939    -7.1669     3.1819  C.ar    1  <O>11      -0.0550
   9 C6       -6.4497    -6.0395     3.9868  C.ar    1  <O>11      -0.0390
  10 C7       -5.6054    -4.9321     3.8268  C.ar    1  <O>11       0.0498
  11 N3       -5.7865    -3.7795     4.6716  N.pl3   1  <O>11      -0.2160
  12 S1       -5.5068    -3.8932     6.2961  S.O2    1  <O>11       0.0780
  13 O2       -6.5182    -5.0361     6.9531  O.2     1  <O>11      -0.1498
  14 O3       -5.7939    -2.4215     7.0115  O.2     1  <O>11      -0.1498
  15 C8       -3.8242    -4.3659     6.5730  C.ar    1  <O>11       0.1843
  16 C9       -3.3350    -5.5809     6.0625  C.ar    1  <O>11       0.1907
  17 F1       -4.1663    -6.3972     5.3348  F       1  <O>11      -0.2002
  18 C10      -2.0074    -5.9587     6.2916  C.ar    1  <O>11       0.1983
  19 F2       -1.5442    -7.1481     5.7897  F       1  <O>11      -0.1993
  20 C11      -1.1580    -5.1309     7.0280  C.ar    1  <O>11       0.1992
  21 F3        0.1431    -5.4980     7.2596  F       1  <O>11      -0.1993
  22 C12      -1.6436    -3.9206     7.5315  C.ar    1  <O>11       0.1983
  23 F4       -0.8040    -3.1105     8.2541  F       1  <O>11      -0.1993
  24 C13      -2.9648    -3.5313     7.3067  C.ar    1  <O>11       0.1907
  25 F5       -3.4357    -2.3401     7.7922  F       1  <O>11      -0.2002
  26 C14      -4.5960    -4.9375     2.8574  C.ar    1  <O>11      -0.0176
  27 C15      -4.4471    -6.0597     2.0589  C.ar    1  <O>11       0.0427
  28 H1       -1.7367    -6.5293    -0.8205  H       1  <O>11       0.1465
  29 H2       -0.9788    -4.9543    -0.5633  H       1  <O>11       0.1465
  30 H3       -4.1035    -7.5433    -0.5800  H       1  <O>11       0.0472
  31 H4       -2.9149    -8.2636     0.5318  H       1  <O>11       0.0472
  32 H5       -5.7905    -8.5164     0.6406  H       1  <O>11       0.0329
  33 H6       -4.6078    -9.1500     1.8109  H       1  <O>11       0.0329
  34 H7       -6.0870    -2.8924     4.2667  H       1  <O>11       0.1737
  35 H8       -6.9101    -7.9869     3.2959  H       1  <O>11       0.0621
  36 H9       -7.1909    -6.0200     4.7046  H       1  <O>11       0.0637
  37 H10      -3.9749    -4.1218     2.7398  H       1  <O>11       0.0655
@<TRIPOS>BOND
     1     1     2   am
     2     2     3    2
     3     2     4   am
     4     4     5    1
     5     5     6    1
     6     6     7    1
     7     7     8   ar
     8     8     9   ar
     9     9    10   ar
    10    10    11    1
    11    11    12    1
    12    12    13    2
    13    12    14    2
    14    12    15    1
    15    15    16   ar
    16    16    17    1
    17    16    18   ar
    18    18    19    1
    19    18    20   ar
    20    20    21    1
    21    20    22   ar
    22    22    23    1
    23    22    24   ar
    24    15    24   ar
    25    24    25    1
    26    10    26   ar
    27    26    27   ar
    28     7    27   ar
    29     4    27    1
    30     1    28    1
    31     1    29    1
    32     5    30    1
    33     5    31    1
    34     6    32    1
    35     6    33    1
    36    11    34    1
    37     8    35    1
    38     9    36    1
    39    26    37    1
@<TRIPOS>MOLECULE
mol93_2_7
 37 39 0 0 0
SMALL
USER_CHARGES
****
VDW energy = -209.95
@<TRIPOS>ATOM
   1 N1       -1.6879    -5.6444    -0.3156  N.am    1  <O>11      -0.3129
   2 C1       -2.5742    -5.3829     0.6945  C.2     1  <O>11       0.3039
   3 O1       -2.5158    -4.3227     1.2994  O.2     1  <O>11      -0.2525
   4 N2       -3.5190    -6.3020     1.0240  N.am    1  <O>11      -0.2551
   5 C2       -3.8037    -7.6368     0.4634  C.3     1  <O>11       0.0253
   6 C3       -4.9432    -8.2615     1.2773  C.3     1  <O>11      -0.0096
   7 C4       -5.2901    -7.1600     2.2237  C.ar    1  <O>11      -0.0243
   8 C5       -6.2939    -7.1669     3.1819  C.ar    1  <O>11      -0.0550
   9 C6       -6.4497    -6.0395     3.9868  C.ar    1  <O>11      -0.0390
  10 C7       -5.6054    -4.9321     3.8268  C.ar    1  <O>11       0.0498
  11 N3       -5.7865    -3.7795     4.6716  N.pl3   1  <O>11      -0.2160
  12 S1       -6.8005    -2.5620     4.2027  S.O2    1  <O>11       0.0780
  13 O2       -6.8114    -1.3731     5.3634  O.2     1  <O>11      -0.1498
  14 O3       -8.3369    -3.1643     4.0112  O.2     1  <O>11      -0.1498
  15 C8       -6.2369    -1.8833     2.6688  C.ar    1  <O>11       0.1843
  16 C9       -6.1381    -2.6966     1.5264  C.ar    1  <O>11       0.1907
  17 F1       -6.4934    -4.0213     1.6013  F       1  <O>11      -0.2002
  18 C10      -5.6817    -2.1612     0.3168  C.ar    1  <O>11       0.1983
  19 F2       -5.5880    -2.9668    -0.7892  F       1  <O>11      -0.1993
  20 C11      -5.3224    -0.8147     0.2351  C.ar    1  <O>11       0.1992
  21 F3       -4.8702    -0.2853    -0.9465  F       1  <O>11      -0.1993
  22 C12      -5.4252    -0.0053     1.3703  C.ar    1  <O>11       0.1983
  23 F4       -5.0712     1.3178     1.2840  F       1  <O>11      -0.1993
  24 C13      -5.8823    -0.5268     2.5814  C.ar    1  <O>11       0.1907
  25 F5       -5.9920     0.2705     3.6898  F       1  <O>11      -0.2002
  26 C14      -4.5960    -4.9375     2.8574  C.ar    1  <O>11      -0.0176
  27 C15      -4.4471    -6.0597     2.0589  C.ar    1  <O>11       0.0427
  28 H1       -1.7367    -6.5293    -0.8205  H       1  <O>11       0.1465
  29 H2       -0.9788    -4.9543    -0.5633  H       1  <O>11       0.1465
  30 H3       -4.1035    -7.5433    -0.5800  H       1  <O>11       0.0472
  31 H4       -2.9149    -8.2636     0.5318  H       1  <O>11       0.0472
  32 H5       -5.7905    -8.5164     0.6406  H       1  <O>11       0.0329
  33 H6       -4.6078    -9.1500     1.8109  H       1  <O>11       0.0329
  34 H7       -5.2889    -3.7150     5.5601  H       1  <O>11       0.1737
  35 H8       -6.9101    -7.9869     3.2959  H       1  <O>11       0.0621
  36 H9       -7.1909    -6.0200     4.7046  H       1  <O>11       0.0637
  37 H10      -3.9749    -4.1218     2.7398  H       1  <O>11       0.0655
@<TRIPOS>BOND
     1     1     2   am
     2     2     3    2
     3     2     4   am
     4     4     5    1
     5     5     6    1
     6     6     7    1
     7     7     8   ar
     8     8     9   ar
     9     9    10   ar
    10    10    11    1
    11    11    12    1
    12    12    13    2
    13    12    14    2
    14    12    15    1
    15    15    16   ar
    16    16    17    1
    17    16    18   ar
    18    18    19    1
    19    18    20   ar
    20    20    21    1
    21    20    22   ar
    22    22    23    1
    23    22    24   ar
    24    15    24   ar
    25    24    25    1
    26    10    26   ar
    27    26    27   ar
    28     7    27   ar
    29     4    27    1
    30     1    28    1
    31     1    29    1
    32     5    30    1
    33     5    31    1
    34     6    32    1
    35     6    33    1
    36    11    34    1
    37     8    35    1
    38     9    36    1
    39    26    37    1
@<TRIPOS>MOLECULE
mol93_2_8
 37 39 0 0 0
SMALL
USER_CHARGES
****
VDW energy = -209.79
@<TRIPOS>ATOM
   1 N1       -1.6879    -5.6444    -0.3156  N.am    1  <O>11      -0.3129
   2 C1       -2.5742    -5.3829     0.6945  C.2     1  <O>11       0.3039
   3 O1       -2.5158    -4.3227     1.2994  O.2     1  <O>11      -0.2525
   4 N2       -3.5190    -6.3020     1.0240  N.am    1  <O>11      -0.2551
   5 C2       -3.8037    -7.6368     0.4634  C.3     1  <O>11       0.0253
   6 C3       -4.9432    -8.2615     1.2773  C.3     1  <O>11      -0.0096
   7 C4       -5.2901    -7.1600     2.2237  C.ar    1  <O>11      -0.0243
   8 C5       -6.2939    -7.1669     3.1819  C.ar    1  <O>11      -0.0550
   9 C6       -6.4497    -6.0395     3.9868  C.ar    1  <O>11      -0.0390
  10 C7       -5.6054    -4.9321     3.8268  C.ar    1  <O>11       0.0498
  11 N3       -5.7865    -3.7795     4.6716  N.pl3   1  <O>11      -0.2160
  12 S1       -4.8020    -2.4640     4.4973  S.O2    1  <O>11       0.0780
  13 O2       -3.2248    -2.9140     4.7637  O.2     1  <O>11      -0.1498
  14 O3       -5.2387    -1.2964     5.5955  O.2     1  <O>11      -0.1498
  15 C8       -4.9624    -1.8208     2.8566  C.ar    1  <O>11       0.1843
  16 C9       -6.1748    -1.9537     2.1575  C.ar    1  <O>11       0.1907
  17 F1       -7.2422    -2.5752     2.7583  F       1  <O>11      -0.2002
  18 C10      -6.2968    -1.4545     0.8560  C.ar    1  <O>11       0.1983
  19 F2       -7.4848    -1.5932     0.1848  F       1  <O>11      -0.1993
  20 C11      -5.2156    -0.8193     0.2424  C.ar    1  <O>11       0.1992
  21 F3       -5.3279    -0.3319    -1.0346  F       1  <O>11      -0.1993
  22 C12      -4.0117    -0.6834     0.9398  C.ar    1  <O>11       0.1983
  23 F4       -2.9524    -0.0575     0.3319  F       1  <O>11      -0.1993
  24 C13      -3.8788    -1.1740     2.2395  C.ar    1  <O>11       0.1907
  25 F5       -2.7014    -1.0306     2.9247  F       1  <O>11      -0.2002
  26 C14      -4.5960    -4.9375     2.8574  C.ar    1  <O>11      -0.0176
  27 C15      -4.4471    -6.0597     2.0589  C.ar    1  <O>11       0.0427
  28 H1       -1.7367    -6.5293    -0.8205  H       1  <O>11       0.1465
  29 H2       -0.9788    -4.9543    -0.5633  H       1  <O>11       0.1465
  30 H3       -4.1035    -7.5433    -0.5800  H       1  <O>11       0.0472
  31 H4       -2.9149    -8.2636     0.5318  H       1  <O>11       0.0472
  32 H5       -5.7905    -8.5164     0.6406  H       1  <O>11       0.0329
  33 H6       -4.6078    -9.1500     1.8109  H       1  <O>11       0.0329
  34 H7       -6.5233    -3.7751     5.3775  H       1  <O>11       0.1737
  35 H8       -6.9101    -7.9869     3.2959  H       1  <O>11       0.0621
  36 H9       -7.1909    -6.0200     4.7046  H       1  <O>11       0.0637
  37 H10      -3.9749    -4.1218     2.7398  H       1  <O>11       0.0655
@<TRIPOS>BOND
     1     1     2   am
     2     2     3    2
     3     2     4   am
     4     4     5    1
     5     5     6    1
     6     6     7    1
     7     7     8   ar
     8     8     9   ar
     9     9    10   ar
    10    10    11    1
    11    11    12    1
    12    12    13    2
    13    12    14    2
    14    12    15    1
    15    15    16   ar
    16    16    17    1
    17    16    18   ar
    18    18    19    1
    19    18    20   ar
    20    20    21    1
    21    20    22   ar
    22    22    23    1
    23    22    24   ar
    24    15    24   ar
    25    24    25    1
    26    10    26   ar
    27    26    27   ar
    28     7    27   ar
    29     4    27    1
    30     1    28    1
    31     1    29    1
    32     5    30    1
    33     5    31    1
    34     6    32    1
    35     6    33    1
    36    11    34    1
    37     8    35    1
    38     9    36    1
    39    26    37    1
@<TRIPOS>MOLECULE
mol93_2_9
 37 39 0 0 0
SMALL
USER_CHARGES
****
VDW energy = -209.67
@<TRIPOS>ATOM
   1 N1       -1.6879    -5.6444    -0.3156  N.am    1  <O>11      -0.3129
   2 C1       -2.5742    -5.3829     0.6945  C.2     1  <O>11       0.3039
   3 O1       -2.5158    -4.3227     1.2994  O.2     1  <O>11      -0.2525
   4 N2       -3.5190    -6.3020     1.0240  N.am    1  <O>11      -0.2551
   5 C2       -3.8037    -7.6368     0.4634  C.3     1  <O>11       0.0253
   6 C3       -4.9432    -8.2615     1.2773  C.3     1  <O>11      -0.0096
   7 C4       -5.2901    -7.1600     2.2237  C.ar    1  <O>11      -0.0243
   8 C5       -6.2939    -7.1669     3.1819  C.ar    1  <O>11      -0.0550
   9 C6       -6.4497    -6.0395     3.9868  C.ar    1  <O>11      -0.0390
  10 C7       -5.6054    -4.9321     3.8268  C.ar    1  <O>11       0.0498
  11 N3       -5.7865    -3.7795     4.6716  N.pl3   1  <O>11      -0.2160
  12 S1       -4.9803    -3.6741     6.1101  S.O2    1  <O>11       0.0780
  13 O2       -5.4082    -4.9542     7.0792  O.2     1  <O>11      -0.1498
  14 O3       -5.3794    -2.2491     6.8651  O.2     1  <O>11      -0.1498
  15 C8       -3.2364    -3.7166     5.8130  C.ar    1  <O>11       0.1843
  16 C9       -2.6509    -4.8273     5.1809  C.ar    1  <O>11       0.1907
  17 F1       -3.4407    -5.8777     4.7816  F       1  <O>11      -0.2002
  18 C10      -1.2702    -4.8644     4.9566  C.ar    1  <O>11       0.1983
  19 F2       -0.7120    -5.9554     4.3409  F       1  <O>11      -0.1993
  20 C11      -0.4638    -3.7978     5.3579  C.ar    1  <O>11       0.1992
  21 F3        0.8906    -3.8304     5.1448  F       1  <O>11      -0.1993
  22 C12      -1.0472    -2.6915     5.9824  C.ar    1  <O>11       0.1983
  23 F4       -0.2498    -1.6455     6.3741  F       1  <O>11      -0.1993
  24 C13      -2.4235    -2.6412     6.2084  C.ar    1  <O>11       0.1907
  25 F5       -2.9944    -1.5517     6.8112  F       1  <O>11      -0.2002
  26 C14      -4.5960    -4.9375     2.8574  C.ar    1  <O>11      -0.0176
  27 C15      -4.4471    -6.0597     2.0589  C.ar    1  <O>11       0.0427
  28 H1       -1.7367    -6.5293    -0.8205  H       1  <O>11       0.1465
  29 H2       -0.9788    -4.9543    -0.5633  H       1  <O>11       0.1465
  30 H3       -4.1035    -7.5433    -0.5800  H       1  <O>11       0.0472
  31 H4       -2.9149    -8.2636     0.5318  H       1  <O>11       0.0472
  32 H5       -5.7905    -8.5164     0.6406  H       1  <O>11       0.0329
  33 H6       -4.6078    -9.1500     1.8109  H       1  <O>11       0.0329
  34 H7       -6.4123    -3.0276     4.3814  H       1  <O>11       0.1737
  35 H8       -6.9101    -7.9869     3.2959  H       1  <O>11       0.0621
  36 H9       -7.1909    -6.0200     4.7046  H       1  <O>11       0.0637
  37 H10      -3.9749    -4.1218     2.7398  H       1  <O>11       0.0655
@<TRIPOS>BOND
     1     1     2   am
     2     2     3    2
     3     2     4   am
     4     4     5    1
     5     5     6    1
     6     6     7    1
     7     7     8   ar
     8     8     9   ar
     9     9    10   ar
    10    10    11    1
    11    11    12    1
    12    12    13    2
    13    12    14    2
    14    12    15    1
    15    15    16   ar
    16    16    17    1
    17    16    18   ar
    18    18    19    1
    19    18    20   ar
    20    20    21    1
    21    20    22   ar
    22    22    23    1
    23    22    24   ar
    24    15    24   ar
    25    24    25    1
    26    10    26   ar
    27    26    27   ar
    28     7    27   ar
    29     4    27    1
    30     1    28    1
    31     1    29    1
    32     5    30    1
    33     5    31    1
    34     6    32    1
    35     6    33    1
    36    11    34    1
    37     8    35    1
    38     9    36    1
    39    26    37    1
@<TRIPOS>MOLECULE
mol93_2_10
 37 39 0 0 0
SMALL
USER_CHARGES
****
VDW energy = -209.54
@<TRIPOS>ATOM
   1 N1       -1.6879    -5.6444    -0.3156  N.am    1  <O>11      -0.3129
   2 C1       -2.5742    -5.3829     0.6945  C.2     1  <O>11       0.3039
   3 O1       -2.5158    -4.3227     1.2994  O.2     1  <O>11      -0.2525
   4 N2       -3.5190    -6.3020     1.0240  N.am    1  <O>11      -0.2551
   5 C2       -3.8037    -7.6368     0.4634  C.3     1  <O>11       0.0253
   6 C3       -4.9432    -8.2615     1.2773  C.3     1  <O>11      -0.0096
   7 C4       -5.2901    -7.1600     2.2237  C.ar    1  <O>11      -0.0243
   8 C5       -6.2939    -7.1669     3.1819  C.ar    1  <O>11      -0.0550
   9 C6       -6.4497    -6.0395     3.9868  C.ar    1  <O>11      -0.0390
  10 C7       -5.6054    -4.9321     3.8268  C.ar    1  <O>11       0.0498
  11 N3       -5.7865    -3.7795     4.6716  N.pl3   1  <O>11      -0.2160
  12 S1       -5.5068    -3.8932     6.2961  S.O2    1  <O>11       0.0780
  13 O2       -5.7945    -2.4213     7.0115  O.2     1  <O>11      -0.1498
  14 O3       -3.9270    -4.3368     6.5560  O.2     1  <O>11      -0.1498
  15 C8       -6.5843    -5.1097     6.9961  C.ar    1  <O>11       0.1843
  16 C9       -7.9791    -4.9589     6.9056  C.ar    1  <O>11       0.1907
  17 F1       -8.5049    -3.8671     6.2590  F       1  <O>11      -0.2002
  18 C10      -8.8300    -5.9160     7.4694  C.ar    1  <O>11       0.1983
  19 F2      -10.1888    -5.7549     7.3756  F       1  <O>11      -0.1993
  20 C11      -8.3002    -7.0288     8.1249  C.ar    1  <O>11       0.1992
  21 F3       -9.1292    -7.9679     8.6832  F       1  <O>11      -0.1993
  22 C12      -6.9132    -7.1806     8.2107  C.ar    1  <O>11       0.1983
  23 F4       -6.3978    -8.2769     8.8556  F       1  <O>11      -0.1993
  24 C13      -6.0542    -6.2348     7.6494  C.ar    1  <O>11       0.1907
  25 F5       -4.6954    -6.3908     7.7256  F       1  <O>11      -0.2002
  26 C14      -4.5960    -4.9375     2.8574  C.ar    1  <O>11      -0.0176
  27 C15      -4.4471    -6.0597     2.0589  C.ar    1  <O>11       0.0427
  28 H1       -1.7367    -6.5293    -0.8205  H       1  <O>11       0.1465
  29 H2       -0.9788    -4.9543    -0.5633  H       1  <O>11       0.1465
  30 H3       -4.1035    -7.5433    -0.5800  H       1  <O>11       0.0472
  31 H4       -2.9149    -8.2636     0.5318  H       1  <O>11       0.0472
  32 H5       -5.7905    -8.5164     0.6406  H       1  <O>11       0.0329
  33 H6       -4.6078    -9.1500     1.8109  H       1  <O>11       0.0329
  34 H7       -6.0870    -2.8924     4.2667  H       1  <O>11       0.1737
  35 H8       -6.9101    -7.9869     3.2959  H       1  <O>11       0.0621
  36 H9       -7.1909    -6.0200     4.7046  H       1  <O>11       0.0637
  37 H10      -3.9749    -4.1218     2.7398  H       1  <O>11       0.0655
@<TRIPOS>BOND
     1     1     2   am
     2     2     3    2
     3     2     4   am
     4     4     5    1
     5     5     6    1
     6     6     7    1
     7     7     8   ar
     8     8     9   ar
     9     9    10   ar
    10    10    11    1
    11    11    12    1
    12    12    13    2
    13    12    14    2
    14    12    15    1
    15    15    16   ar
    16    16    17    1
    17    16    18   ar
    18    18    19    1
    19    18    20   ar
    20    20    21    1
    21    20    22   ar
    22    22    23    1
    23    22    24   ar
    24    15    24   ar
    25    24    25    1
    26    10    26   ar
    27    26    27   ar
    28     7    27   ar
    29     4    27    1
    30     1    28    1
    31     1    29    1
    32     5    30    1
    33     5    31    1
    34     6    32    1
    35     6    33    1
    36    11    34    1
    37     8    35    1
    38     9    36    1
    39    26    37    1
@<TRIPOS>MOLECULE
mol93_2_11
 37 39 0 0 0
SMALL
USER_CHARGES
****
VDW energy = -209.50
@<TRIPOS>ATOM
   1 N1       -1.6879    -5.6444    -0.3156  N.am    1  <O>11      -0.3129
   2 C1       -2.5742    -5.3829     0.6945  C.2     1  <O>11       0.3039
   3 O1       -2.5158    -4.3227     1.2994  O.2     1  <O>11      -0.2525
   4 N2       -3.5190    -6.3020     1.0240  N.am    1  <O>11      -0.2551
   5 C2       -3.8037    -7.6368     0.4634  C.3     1  <O>11       0.0253
   6 C3       -4.9432    -8.2615     1.2773  C.3     1  <O>11      -0.0096
   7 C4       -5.2901    -7.1600     2.2237  C.ar    1  <O>11      -0.0243
   8 C5       -6.2939    -7.1669     3.1819  C.ar    1  <O>11      -0.0550
   9 C6       -6.4497    -6.0395     3.9868  C.ar    1  <O>11      -0.0390
  10 C7       -5.6054    -4.9321     3.8268  C.ar    1  <O>11       0.0498
  11 N3       -5.7865    -3.7795     4.6716  N.pl3   1  <O>11      -0.2160
  12 S1       -6.8005    -2.5620     4.2027  S.O2    1  <O>11       0.0780
  13 O2       -8.3370    -3.1647     4.0108  O.2     1  <O>11      -0.1498
  14 O3       -6.2710    -1.9244     2.7629  O.2     1  <O>11      -0.1498
  15 C8       -6.8137    -1.2966     5.4395  C.ar    1  <O>11       0.1843
  16 C9       -5.6759    -1.0673     6.2327  C.ar    1  <O>11       0.1907
  17 F1       -4.5457    -1.8226     6.0358  F       1  <O>11      -0.2002
  18 C10      -5.6916    -0.0738     7.2179  C.ar    1  <O>11       0.1983
  19 F2       -4.5752     0.1374     7.9861  F       1  <O>11      -0.1993
  20 C11      -6.8370     0.6984     7.4195  C.ar    1  <O>11       0.1992
  21 F3       -6.8597     1.6707     8.3866  F       1  <O>11      -0.1993
  22 C12      -7.9666     0.4731     6.6274  C.ar    1  <O>11       0.1983
  23 F4       -9.0895     1.2356     6.8295  F       1  <O>11      -0.1993
  24 C13      -7.9621    -0.5125     5.6393  C.ar    1  <O>11       0.1907
  25 F5       -9.0665    -0.7246     4.8573  F       1  <O>11      -0.2002
  26 C14      -4.5960    -4.9375     2.8574  C.ar    1  <O>11      -0.0176
  27 C15      -4.4471    -6.0597     2.0589  C.ar    1  <O>11       0.0427
  28 H1       -1.7367    -6.5293    -0.8205  H       1  <O>11       0.1465
  29 H2       -0.9788    -4.9543    -0.5633  H       1  <O>11       0.1465
  30 H3       -4.1035    -7.5433    -0.5800  H       1  <O>11       0.0472
  31 H4       -2.9149    -8.2636     0.5318  H       1  <O>11       0.0472
  32 H5       -5.7905    -8.5164     0.6406  H       1  <O>11       0.0329
  33 H6       -4.6078    -9.1500     1.8109  H       1  <O>11       0.0329
  34 H7       -5.2889    -3.7150     5.5601  H       1  <O>11       0.1737
  35 H8       -6.9101    -7.9869     3.2959  H       1  <O>11       0.0621
  36 H9       -7.1909    -6.0200     4.7046  H       1  <O>11       0.0637
  37 H10      -3.9749    -4.1218     2.7398  H       1  <O>11       0.0655
@<TRIPOS>BOND
     1     1     2   am
     2     2     3    2
     3     2     4   am
     4     4     5    1
     5     5     6    1
     6     6     7    1
     7     7     8   ar
     8     8     9   ar
     9     9    10   ar
    10    10    11    1
    11    11    12    1
    12    12    13    2
    13    12    14    2
    14    12    15    1
    15    15    16   ar
    16    16    17    1
    17    16    18   ar
    18    18    19    1
    19    18    20   ar
    20    20    21    1
    21    20    22   ar
    22    22    23    1
    23    22    24   ar
    24    15    24   ar
    25    24    25    1
    26    10    26   ar
    27    26    27   ar
    28     7    27   ar
    29     4    27    1
    30     1    28    1
    31     1    29    1
    32     5    30    1
    33     5    31    1
    34     6    32    1
    35     6    33    1
    36    11    34    1
    37     8    35    1
    38     9    36    1
    39    26    37    1
@<TRIPOS>MOLECULE
mol93_2_12
 37 39 0 0 0
SMALL
USER_CHARGES
****
VDW energy = -209.41
@<TRIPOS>ATOM
   1 N1       -1.6879    -5.6444    -0.3156  N.am    1  <O>11      -0.3129
   2 C1       -2.5742    -5.3829     0.6945  C.2     1  <O>11       0.3039
   3 O1       -2.5158    -4.3227     1.2994  O.2     1  <O>11      -0.2525
   4 N2       -3.5190    -6.3020     1.0240  N.am    1  <O>11      -0.2551
   5 C2       -3.8037    -7.6368     0.4634  C.3     1  <O>11       0.0253
   6 C3       -4.9432    -8.2615     1.2773  C.3     1  <O>11      -0.0096
   7 C4       -5.2901    -7.1600     2.2237  C.ar    1  <O>11      -0.0243
   8 C5       -6.2939    -7.1669     3.1819  C.ar    1  <O>11      -0.0550
   9 C6       -6.4497    -6.0395     3.9868  C.ar    1  <O>11      -0.0390
  10 C7       -5.6054    -4.9321     3.8268  C.ar    1  <O>11       0.0498
  11 N3       -5.7865    -3.7795     4.6716  N.pl3   1  <O>11      -0.2160
  12 S1       -6.8005    -2.5620     4.2027  S.O2    1  <O>11       0.0780
  13 O2       -8.3370    -3.1647     4.0108  O.2     1  <O>11      -0.1498
  14 O3       -6.2710    -1.9244     2.7629  O.2     1  <O>11      -0.1498
  15 C8       -6.8137    -1.2966     5.4395  C.ar    1  <O>11       0.1843
  16 C9       -7.9621    -0.5105     5.6385  C.ar    1  <O>11       0.1907
  17 F1       -9.0820    -0.7367     4.8762  F       1  <O>11      -0.2002
  18 C10      -7.9674     0.4972     6.6093  C.ar    1  <O>11       0.1983
  19 F2       -9.0939     1.2581     6.7911  F       1  <O>11      -0.1993
  20 C11      -6.8325     0.7287     7.3885  C.ar    1  <O>11       0.1992
  21 F3       -6.8302     1.7180     8.3385  F       1  <O>11      -0.1993
  22 C12      -5.6923    -0.0562     7.1933  C.ar    1  <O>11       0.1983
  23 F4       -4.5797     0.1753     7.9627  F       1  <O>11      -0.1993
  24 C13      -5.6759    -1.0666     6.2307  C.ar    1  <O>11       0.1907
  25 F5       -4.5611    -1.8413     6.0482  F       1  <O>11      -0.2002
  26 C14      -4.5960    -4.9375     2.8574  C.ar    1  <O>11      -0.0176
  27 C15      -4.4471    -6.0597     2.0589  C.ar    1  <O>11       0.0427
  28 H1       -1.7367    -6.5293    -0.8205  H       1  <O>11       0.1465
  29 H2       -0.9788    -4.9543    -0.5633  H       1  <O>11       0.1465
  30 H3       -4.1035    -7.5433    -0.5800  H       1  <O>11       0.0472
  31 H4       -2.9149    -8.2636     0.5318  H       1  <O>11       0.0472
  32 H5       -5.7905    -8.5164     0.6406  H       1  <O>11       0.0329
  33 H6       -4.6078    -9.1500     1.8109  H       1  <O>11       0.0329
  34 H7       -5.2889    -3.7150     5.5601  H       1  <O>11       0.1737
  35 H8       -6.9101    -7.9869     3.2959  H       1  <O>11       0.0621
  36 H9       -7.1909    -6.0200     4.7046  H       1  <O>11       0.0637
  37 H10      -3.9749    -4.1218     2.7398  H       1  <O>11       0.0655
@<TRIPOS>BOND
     1     1     2   am
     2     2     3    2
     3     2     4   am
     4     4     5    1
     5     5     6    1
     6     6     7    1
     7     7     8   ar
     8     8     9   ar
     9     9    10   ar
    10    10    11    1
    11    11    12    1
    12    12    13    2
    13    12    14    2
    14    12    15    1
    15    15    16   ar
    16    16    17    1
    17    16    18   ar
    18    18    19    1
    19    18    20   ar
    20    20    21    1
    21    20    22   ar
    22    22    23    1
    23    22    24   ar
    24    15    24   ar
    25    24    25    1
    26    10    26   ar
    27    26    27   ar
    28     7    27   ar
    29     4    27    1
    30     1    28    1
    31     1    29    1
    32     5    30    1
    33     5    31    1
    34     6    32    1
    35     6    33    1
    36    11    34    1
    37     8    35    1
    38     9    36    1
    39    26    37    1
@<TRIPOS>MOLECULE
mol93_2_13
 37 39 0 0 0
SMALL
USER_CHARGES
****
VDW energy = -209.25
@<TRIPOS>ATOM
   1 N1       -1.6879    -5.6444    -0.3156  N.am    1  <O>11      -0.3129
   2 C1       -2.5742    -5.3829     0.6945  C.2     1  <O>11       0.3039
   3 O1       -2.5158    -4.3227     1.2994  O.2     1  <O>11      -0.2525
   4 N2       -3.5190    -6.3020     1.0240  N.am    1  <O>11      -0.2551
   5 C2       -3.8037    -7.6368     0.4634  C.3     1  <O>11       0.0253
   6 C3       -4.9432    -8.2615     1.2773  C.3     1  <O>11      -0.0096
   7 C4       -5.2901    -7.1600     2.2237  C.ar    1  <O>11      -0.0243
   8 C5       -6.2939    -7.1669     3.1819  C.ar    1  <O>11      -0.0550
   9 C6       -6.4497    -6.0395     3.9868  C.ar    1  <O>11      -0.0390
  10 C7       -5.6054    -4.9321     3.8268  C.ar    1  <O>11       0.0498
  11 N3       -5.7865    -3.7795     4.6716  N.pl3   1  <O>11      -0.2160
  12 S1       -7.1670    -2.8788     4.5564  S.O2    1  <O>11       0.0780
  13 O2       -8.4821    -3.8361     4.8957  O.2     1  <O>11      -0.1498
  14 O3       -7.3051    -2.2723     3.0159  O.2     1  <O>11      -0.1498
  15 C8       -7.0968    -1.5417     5.7132  C.ar    1  <O>11       0.1843
  16 C9       -5.8596    -0.9826     6.0778  C.ar    1  <O>11       0.1907
  17 F1       -4.7022    -1.4706     5.5220  F       1  <O>11      -0.2002
  18 C10      -5.8048     0.0673     7.0012  C.ar    1  <O>11       0.1983
  19 F2       -4.5906     0.6016     7.3495  F       1  <O>11      -0.1993
  20 C11      -6.9787     0.5685     7.5664  C.ar    1  <O>11       0.1992
  21 F3       -6.9309     1.5945     8.4753  F       1  <O>11      -0.1993
  22 C12      -8.2092     0.0152     7.2001  C.ar    1  <O>11       0.1983
  23 F4       -9.3600     0.5124     7.7583  F       1  <O>11      -0.1993
  24 C13      -8.2771    -1.0298     6.2776  C.ar    1  <O>11       0.1907
  25 F5       -9.4845    -1.5635     5.9123  F       1  <O>11      -0.2002
  26 C14      -4.5960    -4.9375     2.8574  C.ar    1  <O>11      -0.0176
  27 C15      -4.4471    -6.0597     2.0589  C.ar    1  <O>11       0.0427
  28 H1       -1.7367    -6.5293    -0.8205  H       1  <O>11       0.1465
  29 H2       -0.9788    -4.9543    -0.5633  H       1  <O>11       0.1465
  30 H3       -4.1035    -7.5433    -0.5800  H       1  <O>11       0.0472
  31 H4       -2.9149    -8.2636     0.5318  H       1  <O>11       0.0472
  32 H5       -5.7905    -8.5164     0.6406  H       1  <O>11       0.0329
  33 H6       -4.6078    -9.1500     1.8109  H       1  <O>11       0.0329
  34 H7       -5.0624    -3.5194     5.3418  H       1  <O>11       0.1737
  35 H8       -6.9101    -7.9869     3.2959  H       1  <O>11       0.0621
  36 H9       -7.1909    -6.0200     4.7046  H       1  <O>11       0.0637
  37 H10      -3.9749    -4.1218     2.7398  H       1  <O>11       0.0655
@<TRIPOS>BOND
     1     1     2   am
     2     2     3    2
     3     2     4   am
     4     4     5    1
     5     5     6    1
     6     6     7    1
     7     7     8   ar
     8     8     9   ar
     9     9    10   ar
    10    10    11    1
    11    11    12    1
    12    12    13    2
    13    12    14    2
    14    12    15    1
    15    15    16   ar
    16    16    17    1
    17    16    18   ar
    18    18    19    1
    19    18    20   ar
    20    20    21    1
    21    20    22   ar
    22    22    23    1
    23    22    24   ar
    24    15    24   ar
    25    24    25    1
    26    10    26   ar
    27    26    27   ar
    28     7    27   ar
    29     4    27    1
    30     1    28    1
    31     1    29    1
    32     5    30    1
    33     5    31    1
    34     6    32    1
    35     6    33    1
    36    11    34    1
    37     8    35    1
    38     9    36    1
    39    26    37    1
@<TRIPOS>MOLECULE
mol93_2_14
 37 39 0 0 0
SMALL
USER_CHARGES
****
VDW energy = -209.15
@<TRIPOS>ATOM
   1 N1       -1.6879    -5.6444    -0.3156  N.am    1  <O>11      -0.3129
   2 C1       -2.5742    -5.3829     0.6945  C.2     1  <O>11       0.3039
   3 O1       -2.5158    -4.3227     1.2994  O.2     1  <O>11      -0.2525
   4 N2       -3.5190    -6.3020     1.0240  N.am    1  <O>11      -0.2551
   5 C2       -3.8037    -7.6368     0.4634  C.3     1  <O>11       0.0253
   6 C3       -4.9432    -8.2615     1.2773  C.3     1  <O>11      -0.0096
   7 C4       -5.2901    -7.1600     2.2237  C.ar    1  <O>11      -0.0243
   8 C5       -6.2939    -7.1669     3.1819  C.ar    1  <O>11      -0.0550
   9 C6       -6.4497    -6.0395     3.9868  C.ar    1  <O>11      -0.0390
  10 C7       -5.6054    -4.9321     3.8268  C.ar    1  <O>11       0.0498
  11 N3       -5.7865    -3.7795     4.6716  N.pl3   1  <O>11      -0.2160
  12 S1       -7.1670    -2.8788     4.5564  S.O2    1  <O>11       0.0780
  13 O2       -8.4821    -3.8361     4.8957  O.2     1  <O>11      -0.1498
  14 O3       -7.3051    -2.2723     3.0159  O.2     1  <O>11      -0.1498
  15 C8       -7.0968    -1.5417     5.7132  C.ar    1  <O>11       0.1843
  16 C9       -8.2778    -1.0280     6.2768  C.ar    1  <O>11       0.1907
  17 F1       -9.4896    -1.5771     5.9354  F       1  <O>11      -0.2002
  18 C10      -8.2217     0.0367     7.1830  C.ar    1  <O>11       0.1983
  19 F2       -9.3820     0.5295     7.7233  F       1  <O>11      -0.1993
  20 C11      -6.9921     0.5960     7.5353  C.ar    1  <O>11       0.1992
  21 F3       -6.9312     1.6426     8.4196  F       1  <O>11      -0.1993
  22 C12      -5.8177     0.0818     6.9781  C.ar    1  <O>11       0.1983
  23 F4       -4.6117     0.6350     7.3286  F       1  <O>11      -0.1993
  24 C13      -5.8604    -0.9821     6.0760  C.ar    1  <O>11       0.1907
  25 F5       -4.7076    -1.4911     5.5390  F       1  <O>11      -0.2002
  26 C14      -4.5960    -4.9375     2.8574  C.ar    1  <O>11      -0.0176
  27 C15      -4.4471    -6.0597     2.0589  C.ar    1  <O>11       0.0427
  28 H1       -1.7367    -6.5293    -0.8205  H       1  <O>11       0.1465
  29 H2       -0.9788    -4.9543    -0.5633  H       1  <O>11       0.1465
  30 H3       -4.1035    -7.5433    -0.5800  H       1  <O>11       0.0472
  31 H4       -2.9149    -8.2636     0.5318  H       1  <O>11       0.0472
  32 H5       -5.7905    -8.5164     0.6406  H       1  <O>11       0.0329
  33 H6       -4.6078    -9.1500     1.8109  H       1  <O>11       0.0329
  34 H7       -5.0624    -3.5194     5.3418  H       1  <O>11       0.1737
  35 H8       -6.9101    -7.9869     3.2959  H       1  <O>11       0.0621
  36 H9       -7.1909    -6.0200     4.7046  H       1  <O>11       0.0637
  37 H10      -3.9749    -4.1218     2.7398  H       1  <O>11       0.0655
@<TRIPOS>BOND
     1     1     2   am
     2     2     3    2
     3     2     4   am
     4     4     5    1
     5     5     6    1
     6     6     7    1
     7     7     8   ar
     8     8     9   ar
     9     9    10   ar
    10    10    11    1
    11    11    12    1
    12    12    13    2
    13    12    14    2
    14    12    15    1
    15    15    16   ar
    16    16    17    1
    17    16    18   ar
    18    18    19    1
    19    18    20   ar
    20    20    21    1
    21    20    22   ar
    22    22    23    1
    23    22    24   ar
    24    15    24   ar
    25    24    25    1
    26    10    26   ar
    27    26    27   ar
    28     7    27   ar
    29     4    27    1
    30     1    28    1
    31     1    29    1
    32     5    30    1
    33     5    31    1
    34     6    32    1
    35     6    33    1
    36    11    34    1
    37     8    35    1
    38     9    36    1
    39    26    37    1
@<TRIPOS>MOLECULE
mol93_2_15
 37 39 0 0 0
SMALL
USER_CHARGES
****
VDW energy = -208.93
@<TRIPOS>ATOM
   1 N1       -1.6879    -5.6444    -0.3156  N.am    1  <O>11      -0.3129
   2 C1       -2.5742    -5.3829     0.6945  C.2     1  <O>11       0.3039
   3 O1       -2.5158    -4.3227     1.2994  O.2     1  <O>11      -0.2525
   4 N2       -3.5190    -6.3020     1.0240  N.am    1  <O>11      -0.2551
   5 C2       -3.8037    -7.6368     0.4634  C.3     1  <O>11       0.0253
   6 C3       -4.9432    -8.2615     1.2773  C.3     1  <O>11      -0.0096
   7 C4       -5.2901    -7.1600     2.2237  C.ar    1  <O>11      -0.0243
   8 C5       -6.2939    -7.1669     3.1819  C.ar    1  <O>11      -0.0550
   9 C6       -6.4497    -6.0395     3.9868  C.ar    1  <O>11      -0.0390
  10 C7       -5.6054    -4.9321     3.8268  C.ar    1  <O>11       0.0498
  11 N3       -5.7865    -3.7795     4.6716  N.pl3   1  <O>11      -0.2160
  12 S1       -7.1670    -2.8788     4.5564  S.O2    1  <O>11       0.0780
  13 O2       -8.4821    -3.8361     4.8957  O.2     1  <O>11      -0.1498
  14 O3       -7.3051    -2.2723     3.0159  O.2     1  <O>11      -0.1498
  15 C8       -7.0968    -1.5417     5.7132  C.ar    1  <O>11       0.1843
  16 C9       -6.9786    -1.7997     7.0901  C.ar    1  <O>11       0.1907
  17 F1       -6.9046    -3.0970     7.5354  F       1  <O>11      -0.2002
  18 C10      -6.9344    -0.7417     8.0047  C.ar    1  <O>11       0.1983
  19 F2       -6.8213    -1.0081     9.3453  F       1  <O>11      -0.1993
  20 C11      -7.0061     0.5785     7.5565  C.ar    1  <O>11       0.1992
  21 F3       -6.9678     1.6196     8.4485  F       1  <O>11      -0.1993
  22 C12      -7.1192     0.8347     6.1869  C.ar    1  <O>11       0.1983
  23 F4       -7.1885     2.1344     5.7519  F       1  <O>11      -0.1993
  24 C13      -7.1606    -0.2120     5.2647  C.ar    1  <O>11       0.1907
  25 F5       -7.2610     0.0416     3.9223  F       1  <O>11      -0.2002
  26 C14      -4.5960    -4.9375     2.8574  C.ar    1  <O>11      -0.0176
  27 C15      -4.4471    -6.0597     2.0589  C.ar    1  <O>11       0.0427
  28 H1       -1.7367    -6.5293    -0.8205  H       1  <O>11       0.1465
  29 H2       -0.9788    -4.9543    -0.5633  H       1  <O>11       0.1465
  30 H3       -4.1035    -7.5433    -0.5800  H       1  <O>11       0.0472
  31 H4       -2.9149    -8.2636     0.5318  H       1  <O>11       0.0472
  32 H5       -5.7905    -8.5164     0.6406  H       1  <O>11       0.0329
  33 H6       -4.6078    -9.1500     1.8109  H       1  <O>11       0.0329
  34 H7       -5.0624    -3.5194     5.3418  H       1  <O>11       0.1737
  35 H8       -6.9101    -7.9869     3.2959  H       1  <O>11       0.0621
  36 H9       -7.1909    -6.0200     4.7046  H       1  <O>11       0.0637
  37 H10      -3.9749    -4.1218     2.7398  H       1  <O>11       0.0655
@<TRIPOS>BOND
     1     1     2   am
     2     2     3    2
     3     2     4   am
     4     4     5    1
     5     5     6    1
     6     6     7    1
     7     7     8   ar
     8     8     9   ar
     9     9    10   ar
    10    10    11    1
    11    11    12    1
    12    12    13    2
    13    12    14    2
    14    12    15    1
    15    15    16   ar
    16    16    17    1
    17    16    18   ar
    18    18    19    1
    19    18    20   ar
    20    20    21    1
    21    20    22   ar
    22    22    23    1
    23    22    24   ar
    24    15    24   ar
    25    24    25    1
    26    10    26   ar
    27    26    27   ar
    28     7    27   ar
    29     4    27    1
    30     1    28    1
    31     1    29    1
    32     5    30    1
    33     5    31    1
    34     6    32    1
    35     6    33    1
    36    11    34    1
    37     8    35    1
    38     9    36    1
    39    26    37    1
@<TRIPOS>MOLECULE
mol93_2_16
 37 39 0 0 0
SMALL
USER_CHARGES
****
VDW energy = -208.89
@<TRIPOS>ATOM
   1 N1       -1.6879    -5.6444    -0.3156  N.am    1  <O>11      -0.3129
   2 C1       -2.5742    -5.3829     0.6945  C.2     1  <O>11       0.3039
   3 O1       -2.5158    -4.3227     1.2994  O.2     1  <O>11      -0.2525
   4 N2       -3.5190    -6.3020     1.0240  N.am    1  <O>11      -0.2551
   5 C2       -3.8037    -7.6368     0.4634  C.3     1  <O>11       0.0253
   6 C3       -4.9432    -8.2615     1.2773  C.3     1  <O>11      -0.0096
   7 C4       -5.2901    -7.1600     2.2237  C.ar    1  <O>11      -0.0243
   8 C5       -6.2939    -7.1669     3.1819  C.ar    1  <O>11      -0.0550
   9 C6       -6.4497    -6.0395     3.9868  C.ar    1  <O>11      -0.0390
  10 C7       -5.6054    -4.9321     3.8268  C.ar    1  <O>11       0.0498
  11 N3       -5.7865    -3.7795     4.6716  N.pl3   1  <O>11      -0.2160
  12 S1       -6.8005    -2.5620     4.2027  S.O2    1  <O>11       0.0780
  13 O2       -8.3370    -3.1647     4.0108  O.2     1  <O>11      -0.1498
  14 O3       -6.2710    -1.9244     2.7629  O.2     1  <O>11      -0.1498
  15 C8       -6.8137    -1.2966     5.4395  C.ar    1  <O>11       0.1843
  16 C9       -7.2259    -1.5901     6.7510  C.ar    1  <O>11       0.1907
  17 F1       -7.6077    -2.8693     7.0741  F       1  <O>11      -0.2002
  18 C10      -7.2465    -0.5859     7.7252  C.ar    1  <O>11       0.1983
  19 F2       -7.6533    -0.8859     9.0002  F       1  <O>11      -0.1993
  20 C11      -6.8564     0.7150     7.4023  C.ar    1  <O>11       0.1992
  21 F3       -6.8787     1.7045     8.3518  F       1  <O>11      -0.1993
  22 C12      -6.4422     1.0054     6.0991  C.ar    1  <O>11       0.1983
  23 F4       -6.0591     2.2858     5.7874  F       1  <O>11      -0.1993
  24 C13      -6.4140     0.0117     5.1196  C.ar    1  <O>11       0.1907
  25 F5       -5.9980     0.2960     3.8459  F       1  <O>11      -0.2002
  26 C14      -4.5960    -4.9375     2.8574  C.ar    1  <O>11      -0.0176
  27 C15      -4.4471    -6.0597     2.0589  C.ar    1  <O>11       0.0427
  28 H1       -1.7367    -6.5293    -0.8205  H       1  <O>11       0.1465
  29 H2       -0.9788    -4.9543    -0.5633  H       1  <O>11       0.1465
  30 H3       -4.1035    -7.5433    -0.5800  H       1  <O>11       0.0472
  31 H4       -2.9149    -8.2636     0.5318  H       1  <O>11       0.0472
  32 H5       -5.7905    -8.5164     0.6406  H       1  <O>11       0.0329
  33 H6       -4.6078    -9.1500     1.8109  H       1  <O>11       0.0329
  34 H7       -5.2889    -3.7150     5.5601  H       1  <O>11       0.1737
  35 H8       -6.9101    -7.9869     3.2959  H       1  <O>11       0.0621
  36 H9       -7.1909    -6.0200     4.7046  H       1  <O>11       0.0637
  37 H10      -3.9749    -4.1218     2.7398  H       1  <O>11       0.0655
@<TRIPOS>BOND
     1     1     2   am
     2     2     3    2
     3     2     4   am
     4     4     5    1
     5     5     6    1
     6     6     7    1
     7     7     8   ar
     8     8     9   ar
     9     9    10   ar
    10    10    11    1
    11    11    12    1
    12    12    13    2
    13    12    14    2
    14    12    15    1
    15    15    16   ar
    16    16    17    1
    17    16    18   ar
    18    18    19    1
    19    18    20   ar
    20    20    21    1
    21    20    22   ar
    22    22    23    1
    23    22    24   ar
    24    15    24   ar
    25    24    25    1
    26    10    26   ar
    27    26    27   ar
    28     7    27   ar
    29     4    27    1
    30     1    28    1
    31     1    29    1
    32     5    30    1
    33     5    31    1
    34     6    32    1
    35     6    33    1
    36    11    34    1
    37     8    35    1
    38     9    36    1
    39    26    37    1
@<TRIPOS>MOLECULE
mol93_2_17
 37 39 0 0 0
SMALL
USER_CHARGES
****
VDW energy = -208.49
@<TRIPOS>ATOM
   1 N1       -1.6879    -5.6444    -0.3156  N.am    1  <O>11      -0.3129
   2 C1       -2.5742    -5.3829     0.6945  C.2     1  <O>11       0.3039
   3 O1       -2.5158    -4.3227     1.2994  O.2     1  <O>11      -0.2525
   4 N2       -3.5190    -6.3020     1.0240  N.am    1  <O>11      -0.2551
   5 C2       -3.8037    -7.6368     0.4634  C.3     1  <O>11       0.0253
   6 C3       -4.9432    -8.2615     1.2773  C.3     1  <O>11      -0.0096
   7 C4       -5.2901    -7.1600     2.2237  C.ar    1  <O>11      -0.0243
   8 C5       -6.2939    -7.1669     3.1819  C.ar    1  <O>11      -0.0550
   9 C6       -6.4497    -6.0395     3.9868  C.ar    1  <O>11      -0.0390
  10 C7       -5.6054    -4.9321     3.8268  C.ar    1  <O>11       0.0498
  11 N3       -5.7865    -3.7795     4.6716  N.pl3   1  <O>11      -0.2160
  12 S1       -6.8005    -2.5620     4.2027  S.O2    1  <O>11       0.0780
  13 O2       -8.3370    -3.1647     4.0108  O.2     1  <O>11      -0.1498
  14 O3       -6.2710    -1.9244     2.7629  O.2     1  <O>11      -0.1498
  15 C8       -6.8137    -1.2966     5.4395  C.ar    1  <O>11       0.1843
  16 C9       -5.6256    -0.6295     5.7852  C.ar    1  <O>11       0.1907
  17 F1       -4.4525    -0.9550     5.1491  F       1  <O>11      -0.2002
  18 C10      -5.6354     0.3633     6.7713  C.ar    1  <O>11       0.1983
  19 F2       -4.4684     1.0043     7.1002  F       1  <O>11      -0.1993
  20 C11      -6.8258     0.6997     7.4183  C.ar    1  <O>11       0.1992
  21 F3       -6.8409     1.6688     8.3887  F       1  <O>11      -0.1993
  22 C12      -8.0079     0.0392     7.0709  C.ar    1  <O>11       0.1983
  23 F4       -9.1753     0.3745     7.7098  F       1  <O>11      -0.1993
  24 C13      -8.0115    -0.9502     6.0866  C.ar    1  <O>11       0.1907
  25 F5       -9.1728    -1.5889     5.7405  F       1  <O>11      -0.2002
  26 C14      -4.5960    -4.9375     2.8574  C.ar    1  <O>11      -0.0176
  27 C15      -4.4471    -6.0597     2.0589  C.ar    1  <O>11       0.0427
  28 H1       -1.7367    -6.5293    -0.8205  H       1  <O>11       0.1465
  29 H2       -0.9788    -4.9543    -0.5633  H       1  <O>11       0.1465
  30 H3       -4.1035    -7.5433    -0.5800  H       1  <O>11       0.0472
  31 H4       -2.9149    -8.2636     0.5318  H       1  <O>11       0.0472
  32 H5       -5.7905    -8.5164     0.6406  H       1  <O>11       0.0329
  33 H6       -4.6078    -9.1500     1.8109  H       1  <O>11       0.0329
  34 H7       -5.2889    -3.7150     5.5601  H       1  <O>11       0.1737
  35 H8       -6.9101    -7.9869     3.2959  H       1  <O>11       0.0621
  36 H9       -7.1909    -6.0200     4.7046  H       1  <O>11       0.0637
  37 H10      -3.9749    -4.1218     2.7398  H       1  <O>11       0.0655
@<TRIPOS>BOND
     1     1     2   am
     2     2     3    2
     3     2     4   am
     4     4     5    1
     5     5     6    1
     6     6     7    1
     7     7     8   ar
     8     8     9   ar
     9     9    10   ar
    10    10    11    1
    11    11    12    1
    12    12    13    2
    13    12    14    2
    14    12    15    1
    15    15    16   ar
    16    16    17    1
    17    16    18   ar
    18    18    19    1
    19    18    20   ar
    20    20    21    1
    21    20    22   ar
    22    22    23    1
    23    22    24   ar
    24    15    24   ar
    25    24    25    1
    26    10    26   ar
    27    26    27   ar
    28     7    27   ar
    29     4    27    1
    30     1    28    1
    31     1    29    1
    32     5    30    1
    33     5    31    1
    34     6    32    1
    35     6    33    1
    36    11    34    1
    37     8    35    1
    38     9    36    1
    39    26    37    1
@<TRIPOS>MOLECULE
mol93_2_18
 37 39 0 0 0
SMALL
USER_CHARGES
****
VDW energy = -208.45
@<TRIPOS>ATOM
   1 N1       -1.6879    -5.6444    -0.3156  N.am    1  <O>11      -0.3129
   2 C1       -2.5742    -5.3829     0.6945  C.2     1  <O>11       0.3039
   3 O1       -2.5158    -4.3227     1.2994  O.2     1  <O>11      -0.2525
   4 N2       -3.5190    -6.3020     1.0240  N.am    1  <O>11      -0.2551
   5 C2       -3.8037    -7.6368     0.4634  C.3     1  <O>11       0.0253
   6 C3       -4.9432    -8.2615     1.2773  C.3     1  <O>11      -0.0096
   7 C4       -5.2901    -7.1600     2.2237  C.ar    1  <O>11      -0.0243
   8 C5       -6.2939    -7.1669     3.1819  C.ar    1  <O>11      -0.0550
   9 C6       -6.4497    -6.0395     3.9868  C.ar    1  <O>11      -0.0390
  10 C7       -5.6054    -4.9321     3.8268  C.ar    1  <O>11       0.0498
  11 N3       -5.7865    -3.7795     4.6716  N.pl3   1  <O>11      -0.2160
  12 S1       -4.9803    -3.6741     6.1101  S.O2    1  <O>11       0.0780
  13 O2       -3.3428    -3.7142     5.8309  O.2     1  <O>11      -0.1498
  14 O3       -5.4091    -4.9531     7.0798  O.2     1  <O>11      -0.1498
  15 C8       -5.4044    -2.1558     6.9137  C.ar    1  <O>11       0.1843
  16 C9       -5.1396    -0.9242     6.2897  C.ar    1  <O>11       0.1907
  17 F1       -4.5601    -0.9030     5.0446  F       1  <O>11      -0.2002
  18 C10      -5.4653     0.2759     6.9312  C.ar    1  <O>11       0.1983
  19 F2       -5.1991     1.4702     6.3117  F       1  <O>11      -0.1993
  20 C11      -6.0572     0.2593     8.1954  C.ar    1  <O>11       0.1992
  21 F3       -6.3747     1.4324     8.8310  F       1  <O>11      -0.1993
  22 C12      -6.3245    -0.9658     8.8136  C.ar    1  <O>11       0.1983
  23 F4       -6.9071    -0.9762    10.0561  F       1  <O>11      -0.1993
  24 C13      -6.0075    -2.1694     8.1824  C.ar    1  <O>11       0.1907
  25 F5       -6.2798    -3.3688     8.7855  F       1  <O>11      -0.2002
  26 C14      -4.5960    -4.9375     2.8574  C.ar    1  <O>11      -0.0176
  27 C15      -4.4471    -6.0597     2.0589  C.ar    1  <O>11       0.0427
  28 H1       -1.7367    -6.5293    -0.8205  H       1  <O>11       0.1465
  29 H2       -0.9788    -4.9543    -0.5633  H       1  <O>11       0.1465
  30 H3       -4.1035    -7.5433    -0.5800  H       1  <O>11       0.0472
  31 H4       -2.9149    -8.2636     0.5318  H       1  <O>11       0.0472
  32 H5       -5.7905    -8.5164     0.6406  H       1  <O>11       0.0329
  33 H6       -4.6078    -9.1500     1.8109  H       1  <O>11       0.0329
  34 H7       -6.4123    -3.0276     4.3814  H       1  <O>11       0.1737
  35 H8       -6.9101    -7.9869     3.2959  H       1  <O>11       0.0621
  36 H9       -7.1909    -6.0200     4.7046  H       1  <O>11       0.0637
  37 H10      -3.9749    -4.1218     2.7398  H       1  <O>11       0.0655
@<TRIPOS>BOND
     1     1     2   am
     2     2     3    2
     3     2     4   am
     4     4     5    1
     5     5     6    1
     6     6     7    1
     7     7     8   ar
     8     8     9   ar
     9     9    10   ar
    10    10    11    1
    11    11    12    1
    12    12    13    2
    13    12    14    2
    14    12    15    1
    15    15    16   ar
    16    16    17    1
    17    16    18   ar
    18    18    19    1
    19    18    20   ar
    20    20    21    1
    21    20    22   ar
    22    22    23    1
    23    22    24   ar
    24    15    24   ar
    25    24    25    1
    26    10    26   ar
    27    26    27   ar
    28     7    27   ar
    29     4    27    1
    30     1    28    1
    31     1    29    1
    32     5    30    1
    33     5    31    1
    34     6    32    1
    35     6    33    1
    36    11    34    1
    37     8    35    1
    38     9    36    1
    39    26    37    1
@<TRIPOS>MOLECULE
mol93_2_19
 37 39 0 0 0
SMALL
USER_CHARGES
****
VDW energy = -208.39
@<TRIPOS>ATOM
   1 N1       -1.6879    -5.6444    -0.3156  N.am    1  <O>11      -0.3129
   2 C1       -2.5742    -5.3829     0.6945  C.2     1  <O>11       0.3039
   3 O1       -2.5158    -4.3227     1.2994  O.2     1  <O>11      -0.2525
   4 N2       -3.5190    -6.3020     1.0240  N.am    1  <O>11      -0.2551
   5 C2       -3.8037    -7.6368     0.4634  C.3     1  <O>11       0.0253
   6 C3       -4.9432    -8.2615     1.2773  C.3     1  <O>11      -0.0096
   7 C4       -5.2901    -7.1600     2.2237  C.ar    1  <O>11      -0.0243
   8 C5       -6.2939    -7.1669     3.1819  C.ar    1  <O>11      -0.0550
   9 C6       -6.4497    -6.0395     3.9868  C.ar    1  <O>11      -0.0390
  10 C7       -5.6054    -4.9321     3.8268  C.ar    1  <O>11       0.0498
  11 N3       -5.7865    -3.7795     4.6716  N.pl3   1  <O>11      -0.2160
  12 S1       -7.1670    -2.8788     4.5564  S.O2    1  <O>11       0.0780
  13 O2       -8.4821    -3.8361     4.8957  O.2     1  <O>11      -0.1498
  14 O3       -7.3051    -2.2723     3.0159  O.2     1  <O>11      -0.1498
  15 C8       -7.0968    -1.5417     5.7132  C.ar    1  <O>11       0.1843
  16 C9       -6.0666    -0.5885     5.6348  C.ar    1  <O>11       0.1907
  17 F1       -5.1184    -0.6911     4.6463  F       1  <O>11      -0.2002
  18 C10      -6.0060     0.4620     6.5571  C.ar    1  <O>11       0.1983
  19 F2       -4.9939     1.3836     6.4701  F       1  <O>11      -0.1993
  20 C11      -6.9692     0.5722     7.5615  C.ar    1  <O>11       0.1992
  21 F3       -6.9125     1.5972     8.4710  F       1  <O>11      -0.1993
  22 C12      -7.9961    -0.3734     7.6363  C.ar    1  <O>11       0.1983
  23 F4       -8.9407    -0.2598     8.6253  F       1  <O>11      -0.1993
  24 C13      -8.0693    -1.4236     6.7202  C.ar    1  <O>11       0.1907
  25 F5       -9.0822    -2.3431     6.7890  F       1  <O>11      -0.2002
  26 C14      -4.5960    -4.9375     2.8574  C.ar    1  <O>11      -0.0176
  27 C15      -4.4471    -6.0597     2.0589  C.ar    1  <O>11       0.0427
  28 H1       -1.7367    -6.5293    -0.8205  H       1  <O>11       0.1465
  29 H2       -0.9788    -4.9543    -0.5633  H       1  <O>11       0.1465
  30 H3       -4.1035    -7.5433    -0.5800  H       1  <O>11       0.0472
  31 H4       -2.9149    -8.2636     0.5318  H       1  <O>11       0.0472
  32 H5       -5.7905    -8.5164     0.6406  H       1  <O>11       0.0329
  33 H6       -4.6078    -9.1500     1.8109  H       1  <O>11       0.0329
  34 H7       -5.0624    -3.5194     5.3418  H       1  <O>11       0.1737
  35 H8       -6.9101    -7.9869     3.2959  H       1  <O>11       0.0621
  36 H9       -7.1909    -6.0200     4.7046  H       1  <O>11       0.0637
  37 H10      -3.9749    -4.1218     2.7398  H       1  <O>11       0.0655
@<TRIPOS>BOND
     1     1     2   am
     2     2     3    2
     3     2     4   am
     4     4     5    1
     5     5     6    1
     6     6     7    1
     7     7     8   ar
     8     8     9   ar
     9     9    10   ar
    10    10    11    1
    11    11    12    1
    12    12    13    2
    13    12    14    2
    14    12    15    1
    15    15    16   ar
    16    16    17    1
    17    16    18   ar
    18    18    19    1
    19    18    20   ar
    20    20    21    1
    21    20    22   ar
    22    22    23    1
    23    22    24   ar
    24    15    24   ar
    25    24    25    1
    26    10    26   ar
    27    26    27   ar
    28     7    27   ar
    29     4    27    1
    30     1    28    1
    31     1    29    1
    32     5    30    1
    33     5    31    1
    34     6    32    1
    35     6    33    1
    36    11    34    1
    37     8    35    1
    38     9    36    1
    39    26    37    1
@<TRIPOS>MOLECULE
mol93_2_20
 37 39 0 0 0
SMALL
USER_CHARGES
****
VDW energy = -208.38
@<TRIPOS>ATOM
   1 N1       -1.6879    -5.6444    -0.3156  N.am    1  <O>11      -0.3129
   2 C1       -2.5742    -5.3829     0.6945  C.2     1  <O>11       0.3039
   3 O1       -2.5158    -4.3227     1.2994  O.2     1  <O>11      -0.2525
   4 N2       -3.5190    -6.3020     1.0240  N.am    1  <O>11      -0.2551
   5 C2       -3.8037    -7.6368     0.4634  C.3     1  <O>11       0.0253
   6 C3       -4.9432    -8.2615     1.2773  C.3     1  <O>11      -0.0096
   7 C4       -5.2901    -7.1600     2.2237  C.ar    1  <O>11      -0.0243
   8 C5       -6.2939    -7.1669     3.1819  C.ar    1  <O>11      -0.0550
   9 C6       -6.4497    -6.0395     3.9868  C.ar    1  <O>11      -0.0390
  10 C7       -5.6054    -4.9321     3.8268  C.ar    1  <O>11       0.0498
  11 N3       -5.7865    -3.7795     4.6716  N.pl3   1  <O>11      -0.2160
  12 S1       -5.5068    -3.8932     6.2961  S.O2    1  <O>11       0.0780
  13 O2       -3.9268    -4.3372     6.5558  O.2     1  <O>11      -0.1498
  14 O3       -6.5190    -5.0348     6.9534  O.2     1  <O>11      -0.1498
  15 C8       -5.8114    -2.3254     7.0579  C.ar    1  <O>11       0.1843
  16 C9       -5.0755    -1.1924     6.6693  C.ar    1  <O>11       0.1907
  17 F1       -4.1248    -1.3034     5.6842  F       1  <O>11      -0.2002
  18 C10      -5.3097     0.0444     7.2804  C.ar    1  <O>11       0.1983
  19 F2       -4.5828     1.1410     6.8930  F       1  <O>11      -0.1993
  20 C11      -6.2771     0.1628     8.2799  C.ar    1  <O>11       0.1992
  21 F3       -6.5081     1.3715     8.8856  F       1  <O>11      -0.1993
  22 C12      -7.0118    -0.9632     8.6628  C.ar    1  <O>11       0.1983
  23 F4       -7.9620    -0.8409     9.6454  F       1  <O>11      -0.1993
  24 C13      -6.7899    -2.2014     8.0583  C.ar    1  <O>11       0.1907
  25 F5       -7.5180    -3.3012     8.4278  F       1  <O>11      -0.2002
  26 C14      -4.5960    -4.9375     2.8574  C.ar    1  <O>11      -0.0176
  27 C15      -4.4471    -6.0597     2.0589  C.ar    1  <O>11       0.0427
  28 H1       -1.7367    -6.5293    -0.8205  H       1  <O>11       0.1465
  29 H2       -0.9788    -4.9543    -0.5633  H       1  <O>11       0.1465
  30 H3       -4.1035    -7.5433    -0.5800  H       1  <O>11       0.0472
  31 H4       -2.9149    -8.2636     0.5318  H       1  <O>11       0.0472
  32 H5       -5.7905    -8.5164     0.6406  H       1  <O>11       0.0329
  33 H6       -4.6078    -9.1500     1.8109  H       1  <O>11       0.0329
  34 H7       -6.0870    -2.8924     4.2667  H       1  <O>11       0.1737
  35 H8       -6.9101    -7.9869     3.2959  H       1  <O>11       0.0621
  36 H9       -7.1909    -6.0200     4.7046  H       1  <O>11       0.0637
  37 H10      -3.9749    -4.1218     2.7398  H       1  <O>11       0.0655
@<TRIPOS>BOND
     1     1     2   am
     2     2     3    2
     3     2     4   am
     4     4     5    1
     5     5     6    1
     6     6     7    1
     7     7     8   ar
     8     8     9   ar
     9     9    10   ar
    10    10    11    1
    11    11    12    1
    12    12    13    2
    13    12    14    2
    14    12    15    1
    15    15    16   ar
    16    16    17    1
    17    16    18   ar
    18    18    19    1
    19    18    20   ar
    20    20    21    1
    21    20    22   ar
    22    22    23    1
    23    22    24   ar
    24    15    24   ar
    25    24    25    1
    26    10    26   ar
    27    26    27   ar
    28     7    27   ar
    29     4    27    1
    30     1    28    1
    31     1    29    1
    32     5    30    1
    33     5    31    1
    34     6    32    1
    35     6    33    1
    36    11    34    1
    37     8    35    1
    38     9    36    1
    39    26    37    1
@<TRIPOS>MOLECULE
mol93_2_21
 37 39 0 0 0
SMALL
USER_CHARGES
****
VDW energy = -204.95
@<TRIPOS>ATOM
   1 N1       -1.6879    -5.6444    -0.3156  N.am    1  <O>11      -0.3129
   2 C1       -2.5742    -5.3829     0.6945  C.2     1  <O>11       0.3039
   3 O1       -2.5158    -4.3227     1.2994  O.2     1  <O>11      -0.2525
   4 N2       -3.5190    -6.3020     1.0240  N.am    1  <O>11      -0.2551
   5 C2       -3.8037    -7.6368     0.4634  C.3     1  <O>11       0.0253
   6 C3       -4.9432    -8.2615     1.2773  C.3     1  <O>11      -0.0096
   7 C4       -5.2901    -7.1600     2.2237  C.ar    1  <O>11      -0.0243
   8 C5       -6.2939    -7.1669     3.1819  C.ar    1  <O>11      -0.0550
   9 C6       -6.4497    -6.0395     3.9868  C.ar    1  <O>11      -0.0390
  10 C7       -5.6054    -4.9321     3.8268  C.ar    1  <O>11       0.0498
  11 N3       -5.7865    -3.7795     4.6716  N.pl3   1  <O>11      -0.2160
  12 S1       -6.8005    -2.5620     4.2027  S.O2    1  <O>11       0.0780
  13 O2       -8.3370    -3.1647     4.0108  O.2     1  <O>11      -0.1498
  14 O3       -6.2710    -1.9244     2.7629  O.2     1  <O>11      -0.1498
  15 C8       -6.8137    -1.2966     5.4395  C.ar    1  <O>11       0.1843
  16 C9       -7.6054    -0.1473     5.2706  C.ar    1  <O>11       0.1907
  17 F1       -8.3811    -0.0146     4.1449  F       1  <O>11      -0.2002
  18 C10      -7.6063     0.8578     6.2442  C.ar    1  <O>11       0.1983
  19 F2       -8.3817     1.9748     6.0653  F       1  <O>11      -0.1993
  20 C11      -6.8219     0.7260     7.3915  C.ar    1  <O>11       0.1992
  21 F3       -6.8153     1.7097     8.3471  F       1  <O>11      -0.1993
  22 C12      -6.0383    -0.4192     7.5610  C.ar    1  <O>11       0.1983
  23 F4       -5.2697    -0.5438     8.6911  F       1  <O>11      -0.1993
  24 C13      -6.0316    -1.4300     6.5988  C.ar    1  <O>11       0.1907
  25 F5       -5.2710    -2.5560     6.7718  F       1  <O>11      -0.2002
  26 C14      -4.5960    -4.9375     2.8574  C.ar    1  <O>11      -0.0176
  27 C15      -4.4471    -6.0597     2.0589  C.ar    1  <O>11       0.0427
  28 H1       -1.7367    -6.5293    -0.8205  H       1  <O>11       0.1465
  29 H2       -0.9788    -4.9543    -0.5633  H       1  <O>11       0.1465
  30 H3       -4.1035    -7.5433    -0.5800  H       1  <O>11       0.0472
  31 H4       -2.9149    -8.2636     0.5318  H       1  <O>11       0.0472
  32 H5       -5.7905    -8.5164     0.6406  H       1  <O>11       0.0329
  33 H6       -4.6078    -9.1500     1.8109  H       1  <O>11       0.0329
  34 H7       -5.2889    -3.7150     5.5601  H       1  <O>11       0.1737
  35 H8       -6.9101    -7.9869     3.2959  H       1  <O>11       0.0621
  36 H9       -7.1909    -6.0200     4.7046  H       1  <O>11       0.0637
  37 H10      -3.9749    -4.1218     2.7398  H       1  <O>11       0.0655
@<TRIPOS>BOND
     1     1     2   am
     2     2     3    2
     3     2     4   am
     4     4     5    1
     5     5     6    1
     6     6     7    1
     7     7     8   ar
     8     8     9   ar
     9     9    10   ar
    10    10    11    1
    11    11    12    1
    12    12    13    2
    13    12    14    2
    14    12    15    1
    15    15    16   ar
    16    16    17    1
    17    16    18   ar
    18    18    19    1
    19    18    20   ar
    20    20    21    1
    21    20    22   ar
    22    22    23    1
    23    22    24   ar
    24    15    24   ar
    25    24    25    1
    26    10    26   ar
    27    26    27   ar
    28     7    27   ar
    29     4    27    1
    30     1    28    1
    31     1    29    1
    32     5    30    1
    33     5    31    1
    34     6    32    1
    35     6    33    1
    36    11    34    1
    37     8    35    1
    38     9    36    1
    39    26    37    1
@<TRIPOS>MOLECULE
mol93_2_22
 37 39 0 0 0
SMALL
USER_CHARGES
****
VDW energy = -204.84
@<TRIPOS>ATOM
   1 N1       -1.6879    -5.6444    -0.3156  N.am    1  <O>11      -0.3129
   2 C1       -2.5742    -5.3829     0.6945  C.2     1  <O>11       0.3039
   3 O1       -2.5158    -4.3227     1.2994  O.2     1  <O>11      -0.2525
   4 N2       -3.5190    -6.3020     1.0240  N.am    1  <O>11      -0.2551
   5 C2       -3.8037    -7.6368     0.4634  C.3     1  <O>11       0.0253
   6 C3       -4.9432    -8.2615     1.2773  C.3     1  <O>11      -0.0096
   7 C4       -5.2901    -7.1600     2.2237  C.ar    1  <O>11      -0.0243
   8 C5       -6.2939    -7.1669     3.1819  C.ar    1  <O>11      -0.0550
   9 C6       -6.4497    -6.0395     3.9868  C.ar    1  <O>11      -0.0390
  10 C7       -5.6054    -4.9321     3.8268  C.ar    1  <O>11       0.0498
  11 N3       -5.7865    -3.7795     4.6716  N.pl3   1  <O>11      -0.2160
  12 S1       -4.9803    -3.6741     6.1101  S.O2    1  <O>11       0.0780
  13 O2       -3.3428    -3.7142     5.8309  O.2     1  <O>11      -0.1498
  14 O3       -5.4091    -4.9531     7.0798  O.2     1  <O>11      -0.1498
  15 C8       -5.4044    -2.1558     6.9137  C.ar    1  <O>11       0.1843
  16 C9       -4.8441    -1.8326     8.1618  C.ar    1  <O>11       0.1907
  17 F1       -3.9536    -2.6959     8.7520  F       1  <O>11      -0.2002
  18 C10      -5.1889    -0.6367     8.8014  C.ar    1  <O>11       0.1983
  19 F2       -4.6364    -0.3353    10.0199  F       1  <O>11      -0.1993
  20 C11      -6.0912     0.2452     8.2040  C.ar    1  <O>11       0.1992
  21 F3       -6.4363     1.4167     8.8281  F       1  <O>11      -0.1993
  22 C12      -6.6447    -0.0745     6.9607  C.ar    1  <O>11       0.1983
  23 F4       -7.5305     0.7966     6.3778  F       1  <O>11      -0.1993
  24 C13      -6.3059    -1.2624     6.3113  C.ar    1  <O>11       0.1907
  25 F5       -6.8415    -1.5688     5.0884  F       1  <O>11      -0.2002
  26 C14      -4.5960    -4.9375     2.8574  C.ar    1  <O>11      -0.0176
  27 C15      -4.4471    -6.0597     2.0589  C.ar    1  <O>11       0.0427
  28 H1       -1.7367    -6.5293    -0.8205  H       1  <O>11       0.1465
  29 H2       -0.9788    -4.9543    -0.5633  H       1  <O>11       0.1465
  30 H3       -4.1035    -7.5433    -0.5800  H       1  <O>11       0.0472
  31 H4       -2.9149    -8.2636     0.5318  H       1  <O>11       0.0472
  32 H5       -5.7905    -8.5164     0.6406  H       1  <O>11       0.0329
  33 H6       -4.6078    -9.1500     1.8109  H       1  <O>11       0.0329
  34 H7       -6.4123    -3.0276     4.3814  H       1  <O>11       0.1737
  35 H8       -6.9101    -7.9869     3.2959  H       1  <O>11       0.0621
  36 H9       -7.1909    -6.0200     4.7046  H       1  <O>11       0.0637
  37 H10      -3.9749    -4.1218     2.7398  H       1  <O>11       0.0655
@<TRIPOS>BOND
     1     1     2   am
     2     2     3    2
     3     2     4   am
     4     4     5    1
     5     5     6    1
     6     6     7    1
     7     7     8   ar
     8     8     9   ar
     9     9    10   ar
    10    10    11    1
    11    11    12    1
    12    12    13    2
    13    12    14    2
    14    12    15    1
    15    15    16   ar
    16    16    17    1
    17    16    18   ar
    18    18    19    1
    19    18    20   ar
    20    20    21    1
    21    20    22   ar
    22    22    23    1
    23    22    24   ar
    24    15    24   ar
    25    24    25    1
    26    10    26   ar
    27    26    27   ar
    28     7    27   ar
    29     4    27    1
    30     1    28    1
    31     1    29    1
    32     5    30    1
    33     5    31    1
    34     6    32    1
    35     6    33    1
    36    11    34    1
    37     8    35    1
    38     9    36    1
    39    26    37    1
@<TRIPOS>MOLECULE
mol93_2_23
 37 39 0 0 0
SMALL
USER_CHARGES
****
VDW energy = -204.73
@<TRIPOS>ATOM
   1 N1       -1.6879    -5.6444    -0.3156  N.am    1  <O>11      -0.3129
   2 C1       -2.5742    -5.3829     0.6945  C.2     1  <O>11       0.3039
   3 O1       -2.5158    -4.3227     1.2994  O.2     1  <O>11      -0.2525
   4 N2       -3.5190    -6.3020     1.0240  N.am    1  <O>11      -0.2551
   5 C2       -3.8037    -7.6368     0.4634  C.3     1  <O>11       0.0253
   6 C3       -4.9432    -8.2615     1.2773  C.3     1  <O>11      -0.0096
   7 C4       -5.2901    -7.1600     2.2237  C.ar    1  <O>11      -0.0243
   8 C5       -6.2939    -7.1669     3.1819  C.ar    1  <O>11      -0.0550
   9 C6       -6.4497    -6.0395     3.9868  C.ar    1  <O>11      -0.0390
  10 C7       -5.6054    -4.9321     3.8268  C.ar    1  <O>11       0.0498
  11 N3       -5.7865    -3.7795     4.6716  N.pl3   1  <O>11      -0.2160
  12 S1       -7.1670    -2.8788     4.5564  S.O2    1  <O>11       0.0780
  13 O2       -8.4821    -3.8361     4.8957  O.2     1  <O>11      -0.1498
  14 O3       -7.3051    -2.2723     3.0159  O.2     1  <O>11      -0.1498
  15 C8       -7.0968    -1.5417     5.7132  C.ar    1  <O>11       0.1843
  16 C9       -8.1608    -0.6277     5.8071  C.ar    1  <O>11       0.1907
  17 F1       -9.2644    -0.7834     5.0044  F       1  <O>11      -0.2002
  18 C10      -8.0991     0.4356     6.7145  C.ar    1  <O>11       0.1983
  19 F2       -9.1434     1.3212     6.7938  F       1  <O>11      -0.1993
  20 C11      -6.9809     0.5961     7.5346  C.ar    1  <O>11       0.1992
  21 F3       -6.9128     1.6389     8.4228  F       1  <O>11      -0.1993
  22 C12      -5.9250    -0.3157     7.4441  C.ar    1  <O>11       0.1983
  23 F4       -4.8285    -0.1535     8.2532  F       1  <O>11      -0.1993
  24 C13      -5.9764    -1.3823     6.5455  C.ar    1  <O>11       0.1907
  25 F5       -4.9453    -2.2805     6.4657  F       1  <O>11      -0.2002
  26 C14      -4.5960    -4.9375     2.8574  C.ar    1  <O>11      -0.0176
  27 C15      -4.4471    -6.0597     2.0589  C.ar    1  <O>11       0.0427
  28 H1       -1.7367    -6.5293    -0.8205  H       1  <O>11       0.1465
  29 H2       -0.9788    -4.9543    -0.5633  H       1  <O>11       0.1465
  30 H3       -4.1035    -7.5433    -0.5800  H       1  <O>11       0.0472
  31 H4       -2.9149    -8.2636     0.5318  H       1  <O>11       0.0472
  32 H5       -5.7905    -8.5164     0.6406  H       1  <O>11       0.0329
  33 H6       -4.6078    -9.1500     1.8109  H       1  <O>11       0.0329
  34 H7       -5.0624    -3.5194     5.3418  H       1  <O>11       0.1737
  35 H8       -6.9101    -7.9869     3.2959  H       1  <O>11       0.0621
  36 H9       -7.1909    -6.0200     4.7046  H       1  <O>11       0.0637
  37 H10      -3.9749    -4.1218     2.7398  H       1  <O>11       0.0655
@<TRIPOS>BOND
     1     1     2   am
     2     2     3    2
     3     2     4   am
     4     4     5    1
     5     5     6    1
     6     6     7    1
     7     7     8   ar
     8     8     9   ar
     9     9    10   ar
    10    10    11    1
    11    11    12    1
    12    12    13    2
    13    12    14    2
    14    12    15    1
    15    15    16   ar
    16    16    17    1
    17    16    18   ar
    18    18    19    1
    19    18    20   ar
    20    20    21    1
    21    20    22   ar
    22    22    23    1
    23    22    24   ar
    24    15    24   ar
    25    24    25    1
    26    10    26   ar
    27    26    27   ar
    28     7    27   ar
    29     4    27    1
    30     1    28    1
    31     1    29    1
    32     5    30    1
    33     5    31    1
    34     6    32    1
    35     6    33    1
    36    11    34    1
    37     8    35    1
    38     9    36    1
    39    26    37    1
@<TRIPOS>MOLECULE
mol93_2_24
 37 39 0 0 0
SMALL
USER_CHARGES
****
VDW energy = -203.38
@<TRIPOS>ATOM
   1 N1       -1.6879    -5.6444    -0.3156  N.am    1  <O>11      -0.3129
   2 C1       -2.5742    -5.3829     0.6945  C.2     1  <O>11       0.3039
   3 O1       -2.5158    -4.3227     1.2994  O.2     1  <O>11      -0.2525
   4 N2       -3.5190    -6.3020     1.0240  N.am    1  <O>11      -0.2551
   5 C2       -3.8037    -7.6368     0.4634  C.3     1  <O>11       0.0253
   6 C3       -4.9432    -8.2615     1.2773  C.3     1  <O>11      -0.0096
   7 C4       -5.2901    -7.1600     2.2237  C.ar    1  <O>11      -0.0243
   8 C5       -6.2939    -7.1669     3.1819  C.ar    1  <O>11      -0.0550
   9 C6       -6.4497    -6.0395     3.9868  C.ar    1  <O>11      -0.0390
  10 C7       -5.6054    -4.9321     3.8268  C.ar    1  <O>11       0.0498
  11 N3       -5.7865    -3.7795     4.6716  N.pl3   1  <O>11      -0.2160
  12 S1       -6.8005    -2.5620     4.2027  S.O2    1  <O>11       0.0780
  13 O2       -6.2715    -1.9254     2.7619  O.2     1  <O>11      -0.1498
  14 O3       -6.8120    -1.3734     5.3633  O.2     1  <O>11      -0.1498
  15 C8       -8.4369    -3.2035     3.9984  C.ar    1  <O>11       0.1843
  16 C9       -8.6873    -4.2262     3.0669  C.ar    1  <O>11       0.1907
  17 F1       -7.6523    -4.7366     2.3221  F       1  <O>11      -0.2002
  18 C10      -9.9838    -4.7248     2.8985  C.ar    1  <O>11       0.1983
  19 F2      -10.2141    -5.7210     1.9843  F       1  <O>11      -0.1993
  20 C11     -11.0384    -4.2112     3.6554  C.ar    1  <O>11       0.1992
  21 F3      -12.3121    -4.6929     3.4916  F       1  <O>11      -0.1993
  22 C12     -10.7881    -3.1975     4.5848  C.ar    1  <O>11       0.1983
  23 F4      -11.8285    -2.6969     5.3267  F       1  <O>11      -0.1993
  24 C13      -9.4988    -2.6944     4.7644  C.ar    1  <O>11       0.1907
  25 F5       -9.2539    -1.7082     5.6830  F       1  <O>11      -0.2002
  26 C14      -4.5960    -4.9375     2.8574  C.ar    1  <O>11      -0.0176
  27 C15      -4.4471    -6.0597     2.0589  C.ar    1  <O>11       0.0427
  28 H1       -1.7367    -6.5293    -0.8205  H       1  <O>11       0.1465
  29 H2       -0.9788    -4.9543    -0.5633  H       1  <O>11       0.1465
  30 H3       -4.1035    -7.5433    -0.5800  H       1  <O>11       0.0472
  31 H4       -2.9149    -8.2636     0.5318  H       1  <O>11       0.0472
  32 H5       -5.7905    -8.5164     0.6406  H       1  <O>11       0.0329
  33 H6       -4.6078    -9.1500     1.8109  H       1  <O>11       0.0329
  34 H7       -5.2889    -3.7150     5.5601  H       1  <O>11       0.1737
  35 H8       -6.9101    -7.9869     3.2959  H       1  <O>11       0.0621
  36 H9       -7.1909    -6.0200     4.7046  H       1  <O>11       0.0637
  37 H10      -3.9749    -4.1218     2.7398  H       1  <O>11       0.0655
@<TRIPOS>BOND
     1     1     2   am
     2     2     3    2
     3     2     4   am
     4     4     5    1
     5     5     6    1
     6     6     7    1
     7     7     8   ar
     8     8     9   ar
     9     9    10   ar
    10    10    11    1
    11    11    12    1
    12    12    13    2
    13    12    14    2
    14    12    15    1
    15    15    16   ar
    16    16    17    1
    17    16    18   ar
    18    18    19    1
    19    18    20   ar
    20    20    21    1
    21    20    22   ar
    22    22    23    1
    23    22    24   ar
    24    15    24   ar
    25    24    25    1
    26    10    26   ar
    27    26    27   ar
    28     7    27   ar
    29     4    27    1
    30     1    28    1
    31     1    29    1
    32     5    30    1
    33     5    31    1
    34     6    32    1
    35     6    33    1
    36    11    34    1
    37     8    35    1
    38     9    36    1
    39    26    37    1
@<TRIPOS>MOLECULE
mol93_2_25
 37 39 0 0 0
SMALL
USER_CHARGES
****
VDW energy = -202.50
@<TRIPOS>ATOM
   1 N1       -1.6879    -5.6444    -0.3156  N.am    1  <O>11      -0.3129
   2 C1       -2.5742    -5.3829     0.6945  C.2     1  <O>11       0.3039
   3 O1       -2.5158    -4.3227     1.2994  O.2     1  <O>11      -0.2525
   4 N2       -3.5190    -6.3020     1.0240  N.am    1  <O>11      -0.2551
   5 C2       -3.8037    -7.6368     0.4634  C.3     1  <O>11       0.0253
   6 C3       -4.9432    -8.2615     1.2773  C.3     1  <O>11      -0.0096
   7 C4       -5.2901    -7.1600     2.2237  C.ar    1  <O>11      -0.0243
   8 C5       -6.2939    -7.1669     3.1819  C.ar    1  <O>11      -0.0550
   9 C6       -6.4497    -6.0395     3.9868  C.ar    1  <O>11      -0.0390
  10 C7       -5.6054    -4.9321     3.8268  C.ar    1  <O>11       0.0498
  11 N3       -5.7865    -3.7795     4.6716  N.pl3   1  <O>11      -0.2160
  12 S1       -4.8020    -2.4640     4.4973  S.O2    1  <O>11       0.0780
  13 O2       -3.2248    -2.9140     4.7637  O.2     1  <O>11      -0.1498
  14 O3       -5.2387    -1.2964     5.5955  O.2     1  <O>11      -0.1498
  15 C8       -4.9624    -1.8208     2.8566  C.ar    1  <O>11       0.1843
  16 C9       -6.2097    -1.3710     2.3894  C.ar    1  <O>11       0.1907
  17 F1       -7.3046    -1.4205     3.2171  F       1  <O>11      -0.2002
  18 C10      -6.3374    -0.8730     1.0880  C.ar    1  <O>11       0.1983
  19 F2       -7.5608    -0.4397     0.6445  F       1  <O>11      -0.1993
  20 C11      -5.2267    -0.8178     0.2441  C.ar    1  <O>11       0.1992
  21 F3       -5.3467    -0.3347    -1.0339  F       1  <O>11      -0.1993
  22 C12      -3.9857    -1.2610     0.7108  C.ar    1  <O>11       0.1983
  23 F4       -2.8971    -1.2037    -0.1229  F       1  <O>11      -0.1993
  24 C13      -3.8449    -1.7565     2.0078  C.ar    1  <O>11       0.1907
  25 F5       -2.6259    -2.1806     2.4665  F       1  <O>11      -0.2002
  26 C14      -4.5960    -4.9375     2.8574  C.ar    1  <O>11      -0.0176
  27 C15      -4.4471    -6.0597     2.0589  C.ar    1  <O>11       0.0427
  28 H1       -1.7367    -6.5293    -0.8205  H       1  <O>11       0.1465
  29 H2       -0.9788    -4.9543    -0.5633  H       1  <O>11       0.1465
  30 H3       -4.1035    -7.5433    -0.5800  H       1  <O>11       0.0472
  31 H4       -2.9149    -8.2636     0.5318  H       1  <O>11       0.0472
  32 H5       -5.7905    -8.5164     0.6406  H       1  <O>11       0.0329
  33 H6       -4.6078    -9.1500     1.8109  H       1  <O>11       0.0329
  34 H7       -6.5233    -3.7751     5.3775  H       1  <O>11       0.1737
  35 H8       -6.9101    -7.9869     3.2959  H       1  <O>11       0.0621
  36 H9       -7.1909    -6.0200     4.7046  H       1  <O>11       0.0637
  37 H10      -3.9749    -4.1218     2.7398  H       1  <O>11       0.0655
@<TRIPOS>BOND
     1     1     2   am
     2     2     3    2
     3     2     4   am
     4     4     5    1
     5     5     6    1
     6     6     7    1
     7     7     8   ar
     8     8     9   ar
     9     9    10   ar
    10    10    11    1
    11    11    12    1
    12    12    13    2
    13    12    14    2
    14    12    15    1
    15    15    16   ar
    16    16    17    1
    17    16    18   ar
    18    18    19    1
    19    18    20   ar
    20    20    21    1
    21    20    22   ar
    22    22    23    1
    23    22    24   ar
    24    15    24   ar
    25    24    25    1
    26    10    26   ar
    27    26    27   ar
    28     7    27   ar
    29     4    27    1
    30     1    28    1
    31     1    29    1
    32     5    30    1
    33     5    31    1
    34     6    32    1
    35     6    33    1
    36    11    34    1
    37     8    35    1
    38     9    36    1
    39    26    37    1
@<TRIPOS>MOLECULE
mol93_2_26
 37 39 0 0 0
SMALL
USER_CHARGES
****
VDW energy = -202.46
@<TRIPOS>ATOM
   1 N1       -1.6879    -5.6444    -0.3156  N.am    1  <O>11      -0.3129
   2 C1       -2.5742    -5.3829     0.6945  C.2     1  <O>11       0.3039
   3 O1       -2.5158    -4.3227     1.2994  O.2     1  <O>11      -0.2525
   4 N2       -3.5190    -6.3020     1.0240  N.am    1  <O>11      -0.2551
   5 C2       -3.8037    -7.6368     0.4634  C.3     1  <O>11       0.0253
   6 C3       -4.9432    -8.2615     1.2773  C.3     1  <O>11      -0.0096
   7 C4       -5.2901    -7.1600     2.2237  C.ar    1  <O>11      -0.0243
   8 C5       -6.2939    -7.1669     3.1819  C.ar    1  <O>11      -0.0550
   9 C6       -6.4497    -6.0395     3.9868  C.ar    1  <O>11      -0.0390
  10 C7       -5.6054    -4.9321     3.8268  C.ar    1  <O>11       0.0498
  11 N3       -5.7865    -3.7795     4.6716  N.pl3   1  <O>11      -0.2160
  12 S1       -4.8020    -2.4640     4.4973  S.O2    1  <O>11       0.0780
  13 O2       -5.2386    -1.2966     5.5961  O.2     1  <O>11      -0.1498
  14 O3       -4.9528    -1.8600     2.9570  O.2     1  <O>11      -0.1498
  15 C8       -3.1224    -2.9428     4.7818  C.ar    1  <O>11       0.1843
  16 C9       -2.7394    -3.4867     6.0202  C.ar    1  <O>11       0.1907
  17 F1       -3.6784    -3.6578     7.0079  F       1  <O>11      -0.2002
  18 C10      -1.4086    -3.8545     6.2476  C.ar    1  <O>11       0.1983
  19 F2       -1.0485    -4.3818     7.4614  F       1  <O>11      -0.1993
  20 C11      -0.4514    -3.6853     5.2457  C.ar    1  <O>11       0.1992
  21 F3        0.8554    -4.0399     5.4643  F       1  <O>11      -0.1993
  22 C12      -0.8337    -3.1486     4.0128  C.ar    1  <O>11       0.1983
  23 F4        0.1114    -2.9852     3.0312  F       1  <O>11      -0.1993
  24 C13      -2.1584    -2.7813     3.7727  C.ar    1  <O>11       0.1907
  25 F5       -2.5329    -2.2651     2.5604  F       1  <O>11      -0.2002
  26 C14      -4.5960    -4.9375     2.8574  C.ar    1  <O>11      -0.0176
  27 C15      -4.4471    -6.0597     2.0589  C.ar    1  <O>11       0.0427
  28 H1       -1.7367    -6.5293    -0.8205  H       1  <O>11       0.1465
  29 H2       -0.9788    -4.9543    -0.5633  H       1  <O>11       0.1465
  30 H3       -4.1035    -7.5433    -0.5800  H       1  <O>11       0.0472
  31 H4       -2.9149    -8.2636     0.5318  H       1  <O>11       0.0472
  32 H5       -5.7905    -8.5164     0.6406  H       1  <O>11       0.0329
  33 H6       -4.6078    -9.1500     1.8109  H       1  <O>11       0.0329
  34 H7       -6.5233    -3.7751     5.3775  H       1  <O>11       0.1737
  35 H8       -6.9101    -7.9869     3.2959  H       1  <O>11       0.0621
  36 H9       -7.1909    -6.0200     4.7046  H       1  <O>11       0.0637
  37 H10      -3.9749    -4.1218     2.7398  H       1  <O>11       0.0655
@<TRIPOS>BOND
     1     1     2   am
     2     2     3    2
     3     2     4   am
     4     4     5    1
     5     5     6    1
     6     6     7    1
     7     7     8   ar
     8     8     9   ar
     9     9    10   ar
    10    10    11    1
    11    11    12    1
    12    12    13    2
    13    12    14    2
    14    12    15    1
    15    15    16   ar
    16    16    17    1
    17    16    18   ar
    18    18    19    1
    19    18    20   ar
    20    20    21    1
    21    20    22   ar
    22    22    23    1
    23    22    24   ar
    24    15    24   ar
    25    24    25    1
    26    10    26   ar
    27    26    27   ar
    28     7    27   ar
    29     4    27    1
    30     1    28    1
    31     1    29    1
    32     5    30    1
    33     5    31    1
    34     6    32    1
    35     6    33    1
    36    11    34    1
    37     8    35    1
    38     9    36    1
    39    26    37    1
@<TRIPOS>MOLECULE
mol93_2_27
 37 39 0 0 0
SMALL
USER_CHARGES
****
VDW energy = -199.39
@<TRIPOS>ATOM
   1 N1       -1.6879    -5.6444    -0.3156  N.am    1  <O>11      -0.3129
   2 C1       -2.5742    -5.3829     0.6945  C.2     1  <O>11       0.3039
   3 O1       -2.5158    -4.3227     1.2994  O.2     1  <O>11      -0.2525
   4 N2       -3.5190    -6.3020     1.0240  N.am    1  <O>11      -0.2551
   5 C2       -3.8037    -7.6368     0.4634  C.3     1  <O>11       0.0253
   6 C3       -4.9432    -8.2615     1.2773  C.3     1  <O>11      -0.0096
   7 C4       -5.2901    -7.1600     2.2237  C.ar    1  <O>11      -0.0243
   8 C5       -6.2939    -7.1669     3.1819  C.ar    1  <O>11      -0.0550
   9 C6       -6.4497    -6.0395     3.9868  C.ar    1  <O>11      -0.0390
  10 C7       -5.6054    -4.9321     3.8268  C.ar    1  <O>11       0.0498
  11 N3       -5.7865    -3.7795     4.6716  N.pl3   1  <O>11      -0.2160
  12 S1       -4.8020    -2.4640     4.4973  S.O2    1  <O>11       0.0780
  13 O2       -5.2386    -1.2966     5.5961  O.2     1  <O>11      -0.1498
  14 O3       -4.9528    -1.8600     2.9570  O.2     1  <O>11      -0.1498
  15 C8       -3.1224    -2.9428     4.7818  C.ar    1  <O>11       0.1843
  16 C9       -2.0888    -1.9943     4.6910  C.ar    1  <O>11       0.1907
  17 F1       -2.3886    -0.6876     4.3922  F       1  <O>11      -0.2002
  18 C10      -0.7599    -2.3766     4.9052  C.ar    1  <O>11       0.1983
  19 F2        0.2387    -1.4412     4.8111  F       1  <O>11      -0.1993
  20 C11      -0.4507    -3.7029     5.2122  C.ar    1  <O>11       0.1992
  21 F3        0.8504    -4.0844     5.4189  F       1  <O>11      -0.1993
  22 C12      -1.4794    -4.6448     5.3068  C.ar    1  <O>11       0.1983
  23 F4       -1.1696    -5.9470     5.6096  F       1  <O>11      -0.1993
  24 C13      -2.8089    -4.2750     5.0988  C.ar    1  <O>11       0.1907
  25 F5       -3.8163    -5.1973     5.2022  F       1  <O>11      -0.2002
  26 C14      -4.5960    -4.9375     2.8574  C.ar    1  <O>11      -0.0176
  27 C15      -4.4471    -6.0597     2.0589  C.ar    1  <O>11       0.0427
  28 H1       -1.7367    -6.5293    -0.8205  H       1  <O>11       0.1465
  29 H2       -0.9788    -4.9543    -0.5633  H       1  <O>11       0.1465
  30 H3       -4.1035    -7.5433    -0.5800  H       1  <O>11       0.0472
  31 H4       -2.9149    -8.2636     0.5318  H       1  <O>11       0.0472
  32 H5       -5.7905    -8.5164     0.6406  H       1  <O>11       0.0329
  33 H6       -4.6078    -9.1500     1.8109  H       1  <O>11       0.0329
  34 H7       -6.5233    -3.7751     5.3775  H       1  <O>11       0.1737
  35 H8       -6.9101    -7.9869     3.2959  H       1  <O>11       0.0621
  36 H9       -7.1909    -6.0200     4.7046  H       1  <O>11       0.0637
  37 H10      -3.9749    -4.1218     2.7398  H       1  <O>11       0.0655
@<TRIPOS>BOND
     1     1     2   am
     2     2     3    2
     3     2     4   am
     4     4     5    1
     5     5     6    1
     6     6     7    1
     7     7     8   ar
     8     8     9   ar
     9     9    10   ar
    10    10    11    1
    11    11    12    1
    12    12    13    2
    13    12    14    2
    14    12    15    1
    15    15    16   ar
    16    16    17    1
    17    16    18   ar
    18    18    19    1
    19    18    20   ar
    20    20    21    1
    21    20    22   ar
    22    22    23    1
    23    22    24   ar
    24    15    24   ar
    25    24    25    1
    26    10    26   ar
    27    26    27   ar
    28     7    27   ar
    29     4    27    1
    30     1    28    1
    31     1    29    1
    32     5    30    1
    33     5    31    1
    34     6    32    1
    35     6    33    1
    36    11    34    1
    37     8    35    1
    38     9    36    1
    39    26    37    1
@<TRIPOS>MOLECULE
mol93_2_28
 37 39 0 0 0
SMALL
USER_CHARGES
****
VDW energy = -198.52
@<TRIPOS>ATOM
   1 N1       -1.6879    -5.6444    -0.3156  N.am    1  <O>11      -0.3129
   2 C1       -2.5742    -5.3829     0.6945  C.2     1  <O>11       0.3039
   3 O1       -2.5158    -4.3227     1.2994  O.2     1  <O>11      -0.2525
   4 N2       -3.5190    -6.3020     1.0240  N.am    1  <O>11      -0.2551
   5 C2       -3.8037    -7.6368     0.4634  C.3     1  <O>11       0.0253
   6 C3       -4.9432    -8.2615     1.2773  C.3     1  <O>11      -0.0096
   7 C4       -5.2901    -7.1600     2.2237  C.ar    1  <O>11      -0.0243
   8 C5       -6.2939    -7.1669     3.1819  C.ar    1  <O>11      -0.0550
   9 C6       -6.4497    -6.0395     3.9868  C.ar    1  <O>11      -0.0390
  10 C7       -5.6054    -4.9321     3.8268  C.ar    1  <O>11       0.0498
  11 N3       -5.7865    -3.7795     4.6716  N.pl3   1  <O>11      -0.2160
  12 S1       -4.8020    -2.4640     4.4973  S.O2    1  <O>11       0.0780
  13 O2       -4.9527    -1.8603     2.9566  O.2     1  <O>11      -0.1498
  14 O3       -3.2252    -2.9134     4.7651  O.2     1  <O>11      -0.1498
  15 C8       -5.2679    -1.2199     5.6662  C.ar    1  <O>11       0.1843
  16 C9       -6.5635    -0.6746     5.6440  C.ar    1  <O>11       0.1907
  17 F1       -7.4738    -1.1209     4.7173  F       1  <O>11      -0.2002
  18 C10      -6.9270     0.3171     6.5618  C.ar    1  <O>11       0.1983
  19 F2       -8.1937     0.8419     6.5271  F       1  <O>11      -0.1993
  20 C11      -6.0062     0.7716     7.5074  C.ar    1  <O>11       0.1992
  21 F3       -6.3554     1.7465     8.4067  F       1  <O>11      -0.1993
  22 C12      -4.7194     0.2258     7.5320  C.ar    1  <O>11       0.1983
  23 F4       -3.8185     0.6758     8.4642  F       1  <O>11      -0.1993
  24 C13      -4.3460    -0.7662     6.6242  C.ar    1  <O>11       0.1907
  25 F5       -3.0879    -1.3070     6.6567  F       1  <O>11      -0.2002
  26 C14      -4.5960    -4.9375     2.8574  C.ar    1  <O>11      -0.0176
  27 C15      -4.4471    -6.0597     2.0589  C.ar    1  <O>11       0.0427
  28 H1       -1.7367    -6.5293    -0.8205  H       1  <O>11       0.1465
  29 H2       -0.9788    -4.9543    -0.5633  H       1  <O>11       0.1465
  30 H3       -4.1035    -7.5433    -0.5800  H       1  <O>11       0.0472
  31 H4       -2.9149    -8.2636     0.5318  H       1  <O>11       0.0472
  32 H5       -5.7905    -8.5164     0.6406  H       1  <O>11       0.0329
  33 H6       -4.6078    -9.1500     1.8109  H       1  <O>11       0.0329
  34 H7       -6.5233    -3.7751     5.3775  H       1  <O>11       0.1737
  35 H8       -6.9101    -7.9869     3.2959  H       1  <O>11       0.0621
  36 H9       -7.1909    -6.0200     4.7046  H       1  <O>11       0.0637
  37 H10      -3.9749    -4.1218     2.7398  H       1  <O>11       0.0655
@<TRIPOS>BOND
     1     1     2   am
     2     2     3    2
     3     2     4   am
     4     4     5    1
     5     5     6    1
     6     6     7    1
     7     7     8   ar
     8     8     9   ar
     9     9    10   ar
    10    10    11    1
    11    11    12    1
    12    12    13    2
    13    12    14    2
    14    12    15    1
    15    15    16   ar
    16    16    17    1
    17    16    18   ar
    18    18    19    1
    19    18    20   ar
    20    20    21    1
    21    20    22   ar
    22    22    23    1
    23    22    24   ar
    24    15    24   ar
    25    24    25    1
    26    10    26   ar
    27    26    27   ar
    28     7    27   ar
    29     4    27    1
    30     1    28    1
    31     1    29    1
    32     5    30    1
    33     5    31    1
    34     6    32    1
    35     6    33    1
    36    11    34    1
    37     8    35    1
    38     9    36    1
    39    26    37    1
@<TRIPOS>MOLECULE
mol93_2_29
 37 39 0 0 0
SMALL
USER_CHARGES
****
VDW energy = -198.45
@<TRIPOS>ATOM
   1 N1       -1.6879    -5.6444    -0.3156  N.am    1  <O>11      -0.3129
   2 C1       -2.5742    -5.3829     0.6945  C.2     1  <O>11       0.3039
   3 O1       -2.5158    -4.3227     1.2994  O.2     1  <O>11      -0.2525
   4 N2       -3.5190    -6.3020     1.0240  N.am    1  <O>11      -0.2551
   5 C2       -3.8037    -7.6368     0.4634  C.3     1  <O>11       0.0253
   6 C3       -4.9432    -8.2615     1.2773  C.3     1  <O>11      -0.0096
   7 C4       -5.2901    -7.1600     2.2237  C.ar    1  <O>11      -0.0243
   8 C5       -6.2939    -7.1669     3.1819  C.ar    1  <O>11      -0.0550
   9 C6       -6.4497    -6.0395     3.9868  C.ar    1  <O>11      -0.0390
  10 C7       -5.6054    -4.9321     3.8268  C.ar    1  <O>11       0.0498
  11 N3       -5.7865    -3.7795     4.6716  N.pl3   1  <O>11      -0.2160
  12 S1       -4.8020    -2.4640     4.4973  S.O2    1  <O>11       0.0780
  13 O2       -4.9527    -1.8603     2.9566  O.2     1  <O>11      -0.1498
  14 O3       -3.2252    -2.9134     4.7651  O.2     1  <O>11      -0.1498
  15 C8       -5.2679    -1.2199     5.6662  C.ar    1  <O>11       0.1843
  16 C9       -5.2260    -1.4901     7.0451  C.ar    1  <O>11       0.1907
  17 F1       -4.8089    -2.7228     7.4846  F       1  <O>11      -0.2002
  18 C10      -5.6054    -0.5091     7.9679  C.ar    1  <O>11       0.1983
  19 F2       -5.5619    -0.7873     9.3102  F       1  <O>11      -0.1993
  20 C11      -6.0271     0.7462     7.5260  C.ar    1  <O>11       0.1992
  21 F3       -6.4043     1.7103     8.4256  F       1  <O>11      -0.1993
  22 C12      -6.0642     1.0160     6.1549  C.ar    1  <O>11       0.1983
  23 F4       -6.4789     2.2520     5.7262  F       1  <O>11      -0.1993
  24 C13      -5.6850     0.0470     5.2249  C.ar    1  <O>11       0.1907
  25 F5       -5.7123     0.3168     3.8823  F       1  <O>11      -0.2002
  26 C14      -4.5960    -4.9375     2.8574  C.ar    1  <O>11      -0.0176
  27 C15      -4.4471    -6.0597     2.0589  C.ar    1  <O>11       0.0427
  28 H1       -1.7367    -6.5293    -0.8205  H       1  <O>11       0.1465
  29 H2       -0.9788    -4.9543    -0.5633  H       1  <O>11       0.1465
  30 H3       -4.1035    -7.5433    -0.5800  H       1  <O>11       0.0472
  31 H4       -2.9149    -8.2636     0.5318  H       1  <O>11       0.0472
  32 H5       -5.7905    -8.5164     0.6406  H       1  <O>11       0.0329
  33 H6       -4.6078    -9.1500     1.8109  H       1  <O>11       0.0329
  34 H7       -6.5233    -3.7751     5.3775  H       1  <O>11       0.1737
  35 H8       -6.9101    -7.9869     3.2959  H       1  <O>11       0.0621
  36 H9       -7.1909    -6.0200     4.7046  H       1  <O>11       0.0637
  37 H10      -3.9749    -4.1218     2.7398  H       1  <O>11       0.0655
@<TRIPOS>BOND
     1     1     2   am
     2     2     3    2
     3     2     4   am
     4     4     5    1
     5     5     6    1
     6     6     7    1
     7     7     8   ar
     8     8     9   ar
     9     9    10   ar
    10    10    11    1
    11    11    12    1
    12    12    13    2
    13    12    14    2
    14    12    15    1
    15    15    16   ar
    16    16    17    1
    17    16    18   ar
    18    18    19    1
    19    18    20   ar
    20    20    21    1
    21    20    22   ar
    22    22    23    1
    23    22    24   ar
    24    15    24   ar
    25    24    25    1
    26    10    26   ar
    27    26    27   ar
    28     7    27   ar
    29     4    27    1
    30     1    28    1
    31     1    29    1
    32     5    30    1
    33     5    31    1
    34     6    32    1
    35     6    33    1
    36    11    34    1
    37     8    35    1
    38     9    36    1
    39    26    37    1
@<TRIPOS>MOLECULE
mol93_2_30
 37 39 0 0 0
SMALL
USER_CHARGES
****
VDW energy = -194.39
@<TRIPOS>ATOM
   1 N1       -1.6879    -5.6444    -0.3156  N.am    1  <O>11      -0.3129
   2 C1       -2.5742    -5.3829     0.6945  C.2     1  <O>11       0.3039
   3 O1       -2.5158    -4.3227     1.2994  O.2     1  <O>11      -0.2525
   4 N2       -3.5190    -6.3020     1.0240  N.am    1  <O>11      -0.2551
   5 C2       -3.8037    -7.6368     0.4634  C.3     1  <O>11       0.0253
   6 C3       -4.9432    -8.2615     1.2773  C.3     1  <O>11      -0.0096
   7 C4       -5.2901    -7.1600     2.2237  C.ar    1  <O>11      -0.0243
   8 C5       -6.2939    -7.1669     3.1819  C.ar    1  <O>11      -0.0550
   9 C6       -6.4497    -6.0395     3.9868  C.ar    1  <O>11      -0.0390
  10 C7       -5.6054    -4.9321     3.8268  C.ar    1  <O>11       0.0498
  11 N3       -5.7865    -3.7795     4.6716  N.pl3   1  <O>11      -0.2160
  12 S1       -4.8012    -2.4644     4.4981  S.O2    1  <O>11       0.0780
  13 O2       -4.9506    -1.8605     2.9573  O.2     1  <O>11      -0.1498
  14 O3       -3.2248    -2.9147     4.7669  O.2     1  <O>11      -0.1498
  15 C8       -5.2673    -1.2203     5.6668  C.ar    1  <O>11       0.1843
  16 C9       -4.5738     0.0015     5.7174  C.ar    1  <O>11       0.1907
  17 F1       -3.5379     0.2326     4.8456  F       1  <O>11      -0.2002
  18 C10      -4.9363     0.9801     6.6496  C.ar    1  <O>11       0.1983
  19 F2       -4.2495     2.1666     6.6894  F       1  <O>11      -0.1993
  20 C11      -5.9905     0.7510     7.5356  C.ar    1  <O>11       0.1992
  21 F3       -6.3475     1.7046     8.4544  F       1  <O>11      -0.1993
  22 C12      -6.6827    -0.4624     7.4818  C.ar    1  <O>11       0.1983
  23 F4       -7.7187    -0.6820     8.3547  F       1  <O>11      -0.1993
  24 C13      -6.3329    -1.4447     6.5543  C.ar    1  <O>11       0.1907
  25 F5       -7.0192    -2.6288     6.4964  F       1  <O>11      -0.2002
  26 C14      -4.5960    -4.9375     2.8574  C.ar    1  <O>11      -0.0176
  27 C15      -4.4471    -6.0597     2.0589  C.ar    1  <O>11       0.0427
  28 H1       -1.7367    -6.5293    -0.8205  H       1  <O>11       0.1465
  29 H2       -0.9788    -4.9543    -0.5633  H       1  <O>11       0.1465
  30 H3       -4.1035    -7.5433    -0.5800  H       1  <O>11       0.0472
  31 H4       -2.9149    -8.2636     0.5318  H       1  <O>11       0.0472
  32 H5       -5.7905    -8.5164     0.6406  H       1  <O>11       0.0329
  33 H6       -4.6078    -9.1500     1.8109  H       1  <O>11       0.0329
  34 H7       -6.5237    -3.7748     5.3770  H       1  <O>11       0.1737
  35 H8       -6.9101    -7.9869     3.2959  H       1  <O>11       0.0621
  36 H9       -7.1909    -6.0200     4.7046  H       1  <O>11       0.0637
  37 H10      -3.9749    -4.1218     2.7398  H       1  <O>11       0.0655
@<TRIPOS>BOND
     1     1     2   am
     2     2     3    2
     3     2     4   am
     4     4     5    1
     5     5     6    1
     6     6     7    1
     7     7     8   ar
     8     8     9   ar
     9     9    10   ar
    10    10    11    1
    11    11    12    1
    12    12    13    2
    13    12    14    2
    14    12    15    1
    15    15    16   ar
    16    16    17    1
    17    16    18   ar
    18    18    19    1
    19    18    20   ar
    20    20    21    1
    21    20    22   ar
    22    22    23    1
    23    22    24   ar
    24    15    24   ar
    25    24    25    1
    26    10    26   ar
    27    26    27   ar
    28     7    27   ar
    29     4    27    1
    30     1    28    1
    31     1    29    1
    32     5    30    1
    33     5    31    1
    34     6    32    1
    35     6    33    1
    36    11    34    1
    37     8    35    1
    38     9    36    1
    39    26    37    1
