@<TRIPOS>MOLECULE
mol99_1_1
 49 51 0 0 0
SMALL
USER_CHARGES
****
VDW energy = 177.68
@<TRIPOS>ATOM
   1 O1        0.9439    -9.6922    -5.8421  O.2     1  <O>11      -0.2687
   2 C1        1.5306    -9.0649    -6.7113  C.2     1  <O>11       0.2602
   3 N1        2.8490    -8.7350    -6.5460  N.am    1  <O>11      -0.2301
   4 N2        3.5130    -9.1100    -5.4030  N.am    1  <O>11      -0.2300
   5 C2        4.8073    -8.7102    -5.2018  C.2     1  <O>11       0.2637
   6 O2        5.3703    -8.0201    -6.0386  O.2     1  <O>11      -0.2685
   7 C3        5.5083    -9.1041    -3.9997  C.ar    1  <O>11       0.0795
   8 C4        5.8956   -10.4353    -3.8380  C.ar    1  <O>11      -0.0460
   9 C5        6.5627   -10.8271    -2.6729  C.ar    1  <O>11      -0.0608
  10 C6        6.8456    -9.8889    -1.6758  C.ar    1  <O>11      -0.0583
  11 C7        6.4580    -8.5557    -1.8541  C.ar    1  <O>11      -0.0194
  12 C8        5.7938    -8.1566    -3.0146  C.ar    1  <O>11       0.1290
  13 O3        5.4407    -6.9216    -3.1833  O.3     1  <O>11      -0.5060
  14 C9        0.8270    -8.6680    -7.9240  C.ar    1  <O>11       0.0400
  15 C10       0.9036    -9.4628    -9.0799  C.ar    1  <O>11      -0.0495
  16 C11       0.2365    -9.0751   -10.2476  C.ar    1  <O>11      -0.0592
  17 C12      -0.5131    -7.8964   -10.2712  C.ar    1  <O>11      -0.0353
  18 C13      -0.5951    -7.1086    -9.1171  C.ar    1  <O>11       0.1062
  19 S1       -1.5432    -5.6261    -9.1518  S.O2    1  <O>11       0.0609
  20 O4       -1.1078    -4.7214   -10.4749  O.2     1  <O>11      -0.1528
  21 O5       -1.2589    -4.7550    -7.7667  O.2     1  <O>11      -0.1528
  22 N3       -3.1495    -6.0005    -9.2456  N.3     1  <O>11      -0.1766
  23 C14      -3.9254    -4.7444    -9.4452  C.3     1  <O>11       0.0205
  24 C15      -3.8003    -3.8140    -8.2439  C.3     1  <O>11      -0.0385
  25 C16      -4.2372    -4.5164    -6.9624  C.3     1  <O>11      -0.0506
  26 C17      -3.4713    -5.8194    -6.7671  C.3     1  <O>11      -0.0385
  27 C18      -3.5504    -6.7133    -7.9994  C.3     1  <O>11       0.0205
  28 C19       0.0661    -7.4879    -7.9477  C.ar    1  <O>11      -0.0232
  29 H1        3.3390    -8.2120    -7.2710  H       1  <O>11       0.1731
  30 H2        3.0434    -9.6859    -4.7047  H       1  <O>11       0.1731
  31 H3        4.9942    -6.8272    -4.0383  H       1  <O>11       0.2922
  32 H4       -3.5475    -4.2319   -10.3303  H       1  <O>11       0.0444
  33 H5       -4.9755    -4.9952    -9.5904  H       1  <O>11       0.0444
  34 H6       -2.7605    -3.4992    -8.1425  H       1  <O>11       0.0278
  35 H7       -4.4304    -2.9394    -8.4047  H       1  <O>11       0.0278
  36 H8       -4.0461    -3.8602    -6.1125  H       1  <O>11       0.0266
  37 H9       -5.3041    -4.7358    -7.0208  H       1  <O>11       0.0266
  38 H10      -2.4252    -5.5879    -6.5674  H       1  <O>11       0.0278
  39 H11      -3.8944    -6.3535    -5.9163  H       1  <O>11       0.0278
  40 H12      -2.8875    -7.5664    -7.8559  H       1  <O>11       0.0444
  41 H13      -4.5754    -7.0653    -8.1121  H       1  <O>11       0.0444
  42 H14       5.6904   -11.1276    -4.5752  H       1  <O>11       0.0626
  43 H15       6.8469   -11.8114    -2.5488  H       1  <O>11       0.0618
  44 H16       7.3366   -10.1770    -0.8150  H       1  <O>11       0.0619
  45 H17       6.6656    -7.8609    -1.1197  H       1  <O>11       0.0654
  46 H18       1.4538   -10.3358    -9.0679  H       1  <O>11       0.0625
  47 H19       0.2986    -9.6620   -11.0942  H       1  <O>11       0.0618
  48 H20      -1.0026    -7.6087   -11.1329  H       1  <O>11       0.0637
  49 H21      -0.0041    -6.9017    -7.1013  H       1  <O>11       0.0644
@<TRIPOS>BOND
     1     1     2    2
     2     2     3   am
     3     3     4    1
     4     4     5   am
     5     5     6    2
     6     5     7    1
     7     7     8   ar
     8     8     9   ar
     9     9    10   ar
    10    10    11   ar
    11    11    12   ar
    12     7    12   ar
    13    12    13    1
    14     2    14    1
    15    14    15   ar
    16    15    16   ar
    17    16    17   ar
    18    17    18   ar
    19    18    19    1
    20    19    20    2
    21    19    21    2
    22    19    22    1
    23    22    23    1
    24    23    24    1
    25    24    25    1
    26    25    26    1
    27    26    27    1
    28    22    27    1
    29    18    28   ar
    30    14    28   ar
    31     3    29    1
    32     4    30    1
    33    13    31    1
    34    23    32    1
    35    23    33    1
    36    24    34    1
    37    24    35    1
    38    25    36    1
    39    25    37    1
    40    26    38    1
    41    26    39    1
    42    27    40    1
    43    27    41    1
    44     8    42    1
    45     9    43    1
    46    10    44    1
    47    11    45    1
    48    15    46    1
    49    16    47    1
    50    17    48    1
    51    28    49    1
@<TRIPOS>MOLECULE
mol99_1_2
 49 51 0 0 0
SMALL
USER_CHARGES
****
VDW energy = 179.65
@<TRIPOS>ATOM
   1 O1        0.9439    -9.6922    -5.8421  O.2     1  <O>11      -0.2687
   2 C1        1.5306    -9.0649    -6.7113  C.2     1  <O>11       0.2602
   3 N1        2.8490    -8.7350    -6.5460  N.am    1  <O>11      -0.2301
   4 N2        3.5130    -9.1100    -5.4030  N.am    1  <O>11      -0.2300
   5 C2        4.8073    -8.7102    -5.2018  C.2     1  <O>11       0.2637
   6 O2        5.3703    -8.0201    -6.0386  O.2     1  <O>11      -0.2685
   7 C3        5.5083    -9.1041    -3.9997  C.ar    1  <O>11       0.0795
   8 C4        5.8956   -10.4353    -3.8380  C.ar    1  <O>11      -0.0460
   9 C5        6.5627   -10.8271    -2.6729  C.ar    1  <O>11      -0.0608
  10 C6        6.8456    -9.8889    -1.6758  C.ar    1  <O>11      -0.0583
  11 C7        6.4580    -8.5557    -1.8541  C.ar    1  <O>11      -0.0194
  12 C8        5.7938    -8.1566    -3.0146  C.ar    1  <O>11       0.1290
  13 O3        5.4407    -6.9216    -3.1833  O.3     1  <O>11      -0.5060
  14 C9        0.8270    -8.6680    -7.9240  C.ar    1  <O>11       0.0400
  15 C10       0.9036    -9.4628    -9.0799  C.ar    1  <O>11      -0.0495
  16 C11       0.2365    -9.0751   -10.2476  C.ar    1  <O>11      -0.0592
  17 C12      -0.5131    -7.8964   -10.2712  C.ar    1  <O>11      -0.0353
  18 C13      -0.5951    -7.1086    -9.1171  C.ar    1  <O>11       0.1062
  19 S1       -1.5432    -5.6261    -9.1518  S.O2    1  <O>11       0.0609
  20 O4       -1.4735    -4.8895    -7.6648  O.2     1  <O>11      -0.1528
  21 O5       -3.1223    -5.9877    -9.5177  O.2     1  <O>11      -0.1528
  22 N3       -0.9323    -4.6073   -10.2998  N.3     1  <O>11      -0.1766
  23 C14       0.4834    -4.2922    -9.9591  C.3     1  <O>11       0.0205
  24 C15       0.5839    -3.5232    -8.6465  C.3     1  <O>11      -0.0385
  25 C16      -0.2523    -2.2485    -8.6958  C.3     1  <O>11      -0.0506
  26 C17      -1.6953    -2.5582    -9.0758  C.3     1  <O>11      -0.0385
  27 C18      -1.7800    -3.3824   -10.3553  C.3     1  <O>11       0.0205
  28 C19       0.0661    -7.4879    -7.9477  C.ar    1  <O>11      -0.0232
  29 H1        3.3390    -8.2120    -7.2710  H       1  <O>11       0.1731
  30 H2        3.0434    -9.6859    -4.7047  H       1  <O>11       0.1731
  31 H3        4.9942    -6.8272    -4.0383  H       1  <O>11       0.2922
  32 H4        1.0410    -5.2246    -9.8663  H       1  <O>11       0.0444
  33 H5        0.9143    -3.6882   -10.7567  H       1  <O>11       0.0444
  34 H6        0.2242    -4.1557    -7.8333  H       1  <O>11       0.0278
  35 H7        1.6264    -3.2601    -8.4678  H       1  <O>11       0.0278
  36 H8       -0.2366    -1.7730    -7.7145  H       1  <O>11       0.0266
  37 H9        0.1733    -1.5702    -9.4364  H       1  <O>11       0.0266
  38 H10      -2.1617    -3.1181    -8.2654  H       1  <O>11       0.0278
  39 H11      -2.2302    -1.6201    -9.2246  H       1  <O>11       0.0278
  40 H12      -2.8165    -3.6813   -10.5109  H       1  <O>11       0.0444
  41 H13      -1.4505    -2.7667   -11.1916  H       1  <O>11       0.0444
  42 H14       5.6904   -11.1276    -4.5752  H       1  <O>11       0.0626
  43 H15       6.8469   -11.8114    -2.5488  H       1  <O>11       0.0618
  44 H16       7.3366   -10.1770    -0.8150  H       1  <O>11       0.0619
  45 H17       6.6656    -7.8609    -1.1197  H       1  <O>11       0.0654
  46 H18       1.4538   -10.3358    -9.0679  H       1  <O>11       0.0625
  47 H19       0.2986    -9.6620   -11.0942  H       1  <O>11       0.0618
  48 H20      -1.0026    -7.6087   -11.1329  H       1  <O>11       0.0637
  49 H21      -0.0041    -6.9017    -7.1013  H       1  <O>11       0.0644
@<TRIPOS>BOND
     1     1     2    2
     2     2     3   am
     3     3     4    1
     4     4     5   am
     5     5     6    2
     6     5     7    1
     7     7     8   ar
     8     8     9   ar
     9     9    10   ar
    10    10    11   ar
    11    11    12   ar
    12     7    12   ar
    13    12    13    1
    14     2    14    1
    15    14    15   ar
    16    15    16   ar
    17    16    17   ar
    18    17    18   ar
    19    18    19    1
    20    19    20    2
    21    19    21    2
    22    19    22    1
    23    22    23    1
    24    23    24    1
    25    24    25    1
    26    25    26    1
    27    26    27    1
    28    22    27    1
    29    18    28   ar
    30    14    28   ar
    31     3    29    1
    32     4    30    1
    33    13    31    1
    34    23    32    1
    35    23    33    1
    36    24    34    1
    37    24    35    1
    38    25    36    1
    39    25    37    1
    40    26    38    1
    41    26    39    1
    42    27    40    1
    43    27    41    1
    44     8    42    1
    45     9    43    1
    46    10    44    1
    47    11    45    1
    48    15    46    1
    49    16    47    1
    50    17    48    1
    51    28    49    1
@<TRIPOS>MOLECULE
mol99_1_3
 49 51 0 0 0
SMALL
USER_CHARGES
****
VDW energy = 180.04
@<TRIPOS>ATOM
   1 O1        0.9439    -9.6922    -5.8421  O.2     1  <O>11      -0.2687
   2 C1        1.5306    -9.0649    -6.7113  C.2     1  <O>11       0.2602
   3 N1        2.8490    -8.7350    -6.5460  N.am    1  <O>11      -0.2301
   4 N2        3.5130    -9.1100    -5.4030  N.am    1  <O>11      -0.2300
   5 C2        4.8073    -8.7102    -5.2018  C.2     1  <O>11       0.2637
   6 O2        5.3983    -9.0437    -4.1854  O.2     1  <O>11      -0.2685
   7 C3        5.4753    -7.8940    -6.1912  C.ar    1  <O>11       0.0795
   8 C4        5.0904    -6.5622    -6.3531  C.ar    1  <O>11      -0.0460
   9 C5        5.7226    -5.7694    -7.3164  C.ar    1  <O>11      -0.0608
  10 C6        6.7397    -6.3064    -8.1111  C.ar    1  <O>11      -0.0583
  11 C7        7.1208    -7.6416    -7.9334  C.ar    1  <O>11      -0.0194
  12 C8        6.4962    -8.4383    -6.9730  C.ar    1  <O>11       0.1290
  13 O3        6.8529    -9.6721    -6.8033  O.3     1  <O>11      -0.5060
  14 C9        0.8270    -8.6680    -7.9240  C.ar    1  <O>11       0.0400
  15 C10       0.9036    -9.4628    -9.0799  C.ar    1  <O>11      -0.0495
  16 C11       0.2365    -9.0751   -10.2476  C.ar    1  <O>11      -0.0592
  17 C12      -0.5131    -7.8964   -10.2712  C.ar    1  <O>11      -0.0353
  18 C13      -0.5951    -7.1086    -9.1171  C.ar    1  <O>11       0.1062
  19 S1       -1.5432    -5.6261    -9.1518  S.O2    1  <O>11       0.0609
  20 O4       -1.1078    -4.7214   -10.4749  O.2     1  <O>11      -0.1528
  21 O5       -1.2589    -4.7550    -7.7667  O.2     1  <O>11      -0.1528
  22 N3       -3.1495    -6.0005    -9.2456  N.3     1  <O>11      -0.1766
  23 C14      -3.9254    -4.7444    -9.4452  C.3     1  <O>11       0.0205
  24 C15      -3.8003    -3.8140    -8.2439  C.3     1  <O>11      -0.0385
  25 C16      -4.2372    -4.5164    -6.9624  C.3     1  <O>11      -0.0506
  26 C17      -3.4713    -5.8194    -6.7671  C.3     1  <O>11      -0.0385
  27 C18      -3.5504    -6.7133    -7.9994  C.3     1  <O>11       0.0205
  28 C19       0.0661    -7.4879    -7.9477  C.ar    1  <O>11      -0.0232
  29 H1        3.3390    -8.2120    -7.2710  H       1  <O>11       0.1731
  30 H2        3.0434    -9.6859    -4.7047  H       1  <O>11       0.1731
  31 H3        6.3163   -10.0699    -6.1010  H       1  <O>11       0.2922
  32 H4       -3.5475    -4.2319   -10.3303  H       1  <O>11       0.0444
  33 H5       -4.9755    -4.9952    -9.5904  H       1  <O>11       0.0444
  34 H6       -2.7605    -3.4992    -8.1425  H       1  <O>11       0.0278
  35 H7       -4.4304    -2.9394    -8.4047  H       1  <O>11       0.0278
  36 H8       -4.0461    -3.8602    -6.1125  H       1  <O>11       0.0266
  37 H9       -5.3041    -4.7358    -7.0208  H       1  <O>11       0.0266
  38 H10      -2.4252    -5.5879    -6.5674  H       1  <O>11       0.0278
  39 H11      -3.8944    -6.3535    -5.9163  H       1  <O>11       0.0278
  40 H12      -2.8875    -7.5664    -7.8559  H       1  <O>11       0.0444
  41 H13      -4.5754    -7.0653    -8.1121  H       1  <O>11       0.0444
  42 H14       4.3422    -6.1640    -5.7643  H       1  <O>11       0.0626
  43 H15       5.4374    -4.7854    -7.4410  H       1  <O>11       0.0618
  44 H16       7.2059    -5.7229    -8.8233  H       1  <O>11       0.0619
  45 H17       7.8714    -8.0407    -8.5185  H       1  <O>11       0.0654
  46 H18       1.4538   -10.3358    -9.0679  H       1  <O>11       0.0625
  47 H19       0.2986    -9.6620   -11.0942  H       1  <O>11       0.0618
  48 H20      -1.0026    -7.6087   -11.1329  H       1  <O>11       0.0637
  49 H21      -0.0041    -6.9017    -7.1013  H       1  <O>11       0.0644
@<TRIPOS>BOND
     1     1     2    2
     2     2     3   am
     3     3     4    1
     4     4     5   am
     5     5     6    2
     6     5     7    1
     7     7     8   ar
     8     8     9   ar
     9     9    10   ar
    10    10    11   ar
    11    11    12   ar
    12     7    12   ar
    13    12    13    1
    14     2    14    1
    15    14    15   ar
    16    15    16   ar
    17    16    17   ar
    18    17    18   ar
    19    18    19    1
    20    19    20    2
    21    19    21    2
    22    19    22    1
    23    22    23    1
    24    23    24    1
    25    24    25    1
    26    25    26    1
    27    26    27    1
    28    22    27    1
    29    18    28   ar
    30    14    28   ar
    31     3    29    1
    32     4    30    1
    33    13    31    1
    34    23    32    1
    35    23    33    1
    36    24    34    1
    37    24    35    1
    38    25    36    1
    39    25    37    1
    40    26    38    1
    41    26    39    1
    42    27    40    1
    43    27    41    1
    44     8    42    1
    45     9    43    1
    46    10    44    1
    47    11    45    1
    48    15    46    1
    49    16    47    1
    50    17    48    1
    51    28    49    1
@<TRIPOS>MOLECULE
mol99_1_4
 49 51 0 0 0
SMALL
USER_CHARGES
****
VDW energy = 180.08
@<TRIPOS>ATOM
   1 O1        0.9439    -9.6922    -5.8421  O.2     1  <O>11      -0.2687
   2 C1        1.5306    -9.0649    -6.7113  C.2     1  <O>11       0.2602
   3 N1        2.8490    -8.7350    -6.5460  N.am    1  <O>11      -0.2301
   4 N2        3.5086    -8.0297    -7.5235  N.am    1  <O>11      -0.2300
   5 C2        4.8472    -7.7707    -7.3946  C.2     1  <O>11       0.2637
   6 O2        5.4538    -8.1674    -6.4106  O.2     1  <O>11      -0.2685
   7 C3        5.5433    -7.0282    -8.4220  C.ar    1  <O>11       0.0795
   8 C4        5.2943    -5.6626    -8.5676  C.ar    1  <O>11      -0.0460
   9 C5        5.9539    -4.9398    -9.5668  C.ar    1  <O>11      -0.0608
  10 C6        6.8631    -5.5805   -10.4137  C.ar    1  <O>11      -0.0583
  11 C7        7.1089    -6.9490   -10.2520  C.ar    1  <O>11      -0.0194
  12 C8        6.4563    -7.6766    -9.2561  C.ar    1  <O>11       0.1290
  13 O3        6.6882    -8.9418    -9.1015  O.3     1  <O>11      -0.5060
  14 C9        0.8270    -8.6680    -7.9240  C.ar    1  <O>11       0.0400
  15 C10       0.9036    -9.4628    -9.0799  C.ar    1  <O>11      -0.0495
  16 C11       0.2365    -9.0751   -10.2476  C.ar    1  <O>11      -0.0592
  17 C12      -0.5131    -7.8964   -10.2712  C.ar    1  <O>11      -0.0353
  18 C13      -0.5951    -7.1086    -9.1171  C.ar    1  <O>11       0.1062
  19 S1       -1.5432    -5.6261    -9.1518  S.O2    1  <O>11       0.0609
  20 O4       -1.1078    -4.7214   -10.4749  O.2     1  <O>11      -0.1528
  21 O5       -1.2589    -4.7550    -7.7667  O.2     1  <O>11      -0.1528
  22 N3       -3.1495    -6.0005    -9.2456  N.3     1  <O>11      -0.1766
  23 C14      -3.9254    -4.7444    -9.4452  C.3     1  <O>11       0.0205
  24 C15      -3.8003    -3.8140    -8.2439  C.3     1  <O>11      -0.0385
  25 C16      -4.2372    -4.5164    -6.9624  C.3     1  <O>11      -0.0506
  26 C17      -3.4713    -5.8194    -6.7671  C.3     1  <O>11      -0.0385
  27 C18      -3.5504    -6.7133    -7.9994  C.3     1  <O>11       0.0205
  28 C19       0.0661    -7.4879    -7.9477  C.ar    1  <O>11      -0.0232
  29 H1        3.3417    -9.0114    -5.6974  H       1  <O>11       0.1731
  30 H2        3.0025    -7.6987    -8.3446  H       1  <O>11       0.1731
  31 H3        6.1514    -9.2815    -8.3696  H       1  <O>11       0.2922
  32 H4       -3.5475    -4.2319   -10.3303  H       1  <O>11       0.0444
  33 H5       -4.9755    -4.9952    -9.5904  H       1  <O>11       0.0444
  34 H6       -2.7605    -3.4992    -8.1425  H       1  <O>11       0.0278
  35 H7       -4.4304    -2.9394    -8.4047  H       1  <O>11       0.0278
  36 H8       -4.0461    -3.8602    -6.1125  H       1  <O>11       0.0266
  37 H9       -5.3041    -4.7358    -7.0208  H       1  <O>11       0.0266
  38 H10      -2.4252    -5.5879    -6.5674  H       1  <O>11       0.0278
  39 H11      -3.8944    -6.3535    -5.9163  H       1  <O>11       0.0278
  40 H12      -2.8875    -7.5664    -7.8559  H       1  <O>11       0.0444
  41 H13      -4.5754    -7.0653    -8.1121  H       1  <O>11       0.0444
  42 H14       4.6261    -5.1882    -7.9403  H       1  <O>11       0.0626
  43 H15       5.7689    -3.9307    -9.6793  H       1  <O>11       0.0618
  44 H16       7.3493    -5.0485   -11.1524  H       1  <O>11       0.0619
  45 H17       7.7796    -7.4246   -10.8757  H       1  <O>11       0.0654
  46 H18       1.4538   -10.3358    -9.0679  H       1  <O>11       0.0625
  47 H19       0.2986    -9.6620   -11.0942  H       1  <O>11       0.0618
  48 H20      -1.0026    -7.6087   -11.1329  H       1  <O>11       0.0637
  49 H21      -0.0041    -6.9017    -7.1013  H       1  <O>11       0.0644
@<TRIPOS>BOND
     1     1     2    2
     2     2     3   am
     3     3     4    1
     4     4     5   am
     5     5     6    2
     6     5     7    1
     7     7     8   ar
     8     8     9   ar
     9     9    10   ar
    10    10    11   ar
    11    11    12   ar
    12     7    12   ar
    13    12    13    1
    14     2    14    1
    15    14    15   ar
    16    15    16   ar
    17    16    17   ar
    18    17    18   ar
    19    18    19    1
    20    19    20    2
    21    19    21    2
    22    19    22    1
    23    22    23    1
    24    23    24    1
    25    24    25    1
    26    25    26    1
    27    26    27    1
    28    22    27    1
    29    18    28   ar
    30    14    28   ar
    31     3    29    1
    32     4    30    1
    33    13    31    1
    34    23    32    1
    35    23    33    1
    36    24    34    1
    37    24    35    1
    38    25    36    1
    39    25    37    1
    40    26    38    1
    41    26    39    1
    42    27    40    1
    43    27    41    1
    44     8    42    1
    45     9    43    1
    46    10    44    1
    47    11    45    1
    48    15    46    1
    49    16    47    1
    50    17    48    1
    51    28    49    1
@<TRIPOS>MOLECULE
mol99_1_5
 49 51 0 0 0
SMALL
USER_CHARGES
****
VDW energy = 180.10
@<TRIPOS>ATOM
   1 O1        0.9439    -9.6922    -5.8421  O.2     1  <O>11      -0.2687
   2 C1        1.5306    -9.0649    -6.7113  C.2     1  <O>11       0.2602
   3 N1        2.8490    -8.7350    -6.5460  N.am    1  <O>11      -0.2301
   4 N2        3.5130    -9.1100    -5.4030  N.am    1  <O>11      -0.2300
   5 C2        4.8073    -8.7102    -5.2018  C.2     1  <O>11       0.2637
   6 O2        5.3703    -8.0201    -6.0386  O.2     1  <O>11      -0.2685
   7 C3        5.5083    -9.1041    -3.9997  C.ar    1  <O>11       0.0795
   8 C4        5.8956   -10.4353    -3.8380  C.ar    1  <O>11      -0.0460
   9 C5        6.5627   -10.8271    -2.6729  C.ar    1  <O>11      -0.0608
  10 C6        6.8456    -9.8889    -1.6758  C.ar    1  <O>11      -0.0583
  11 C7        6.4580    -8.5557    -1.8541  C.ar    1  <O>11      -0.0194
  12 C8        5.7938    -8.1566    -3.0146  C.ar    1  <O>11       0.1290
  13 O3        5.4407    -6.9216    -3.1833  O.3     1  <O>11      -0.5060
  14 C9        0.8270    -8.6680    -7.9240  C.ar    1  <O>11       0.0400
  15 C10       0.9036    -9.4628    -9.0799  C.ar    1  <O>11      -0.0495
  16 C11       0.2365    -9.0751   -10.2476  C.ar    1  <O>11      -0.0592
  17 C12      -0.5131    -7.8964   -10.2712  C.ar    1  <O>11      -0.0353
  18 C13      -0.5951    -7.1086    -9.1171  C.ar    1  <O>11       0.1062
  19 S1       -1.5432    -5.6261    -9.1518  S.O2    1  <O>11       0.0609
  20 O4       -1.5266    -4.9942   -10.6877  O.2     1  <O>11      -0.1528
  21 O5       -0.8895    -4.5264    -8.0928  O.2     1  <O>11      -0.1528
  22 N3       -3.1003    -5.9565    -8.7095  N.3     1  <O>11      -0.1766
  23 C14      -3.6733    -6.9436    -9.6672  C.3     1  <O>11       0.0205
  24 C15      -3.7706    -6.3648   -11.0742  C.3     1  <O>11      -0.0385
  25 C16      -4.5875    -5.0767   -11.0788  C.3     1  <O>11      -0.0506
  26 C17      -4.0275    -4.0731   -10.0779  C.3     1  <O>11      -0.0385
  27 C18      -3.8745    -4.6829    -8.6891  C.3     1  <O>11       0.0205
  28 C19       0.0661    -7.4879    -7.9477  C.ar    1  <O>11      -0.0232
  29 H1        3.3390    -8.2120    -7.2710  H       1  <O>11       0.1731
  30 H2        3.0434    -9.6859    -4.7047  H       1  <O>11       0.1731
  31 H3        4.9942    -6.8272    -4.0383  H       1  <O>11       0.2922
  32 H4       -3.0331    -7.8260    -9.6912  H       1  <O>11       0.0444
  33 H5       -4.6702    -7.2262    -9.3313  H       1  <O>11       0.0444
  34 H6       -2.7660    -6.1524   -11.4436  H       1  <O>11       0.0278
  35 H7       -4.2504    -7.0946   -11.7262  H       1  <O>11       0.0278
  36 H8       -4.5578    -4.6385   -12.0770  H       1  <O>11       0.0266
  37 H9       -5.6199    -5.3072   -10.8124  H       1  <O>11       0.0266
  38 H10      -3.0502    -3.7368   -10.4237  H       1  <O>11       0.0278
  39 H11      -4.7045    -3.2209   -10.0161  H       1  <O>11       0.0278
  40 H12      -3.3567    -3.9691    -8.0488  H       1  <O>11       0.0444
  41 H13      -4.8655    -4.8826    -8.2827  H       1  <O>11       0.0444
  42 H14       5.6904   -11.1276    -4.5752  H       1  <O>11       0.0626
  43 H15       6.8469   -11.8114    -2.5488  H       1  <O>11       0.0618
  44 H16       7.3366   -10.1770    -0.8150  H       1  <O>11       0.0619
  45 H17       6.6656    -7.8609    -1.1197  H       1  <O>11       0.0654
  46 H18       1.4538   -10.3358    -9.0679  H       1  <O>11       0.0625
  47 H19       0.2986    -9.6620   -11.0942  H       1  <O>11       0.0618
  48 H20      -1.0026    -7.6087   -11.1329  H       1  <O>11       0.0637
  49 H21      -0.0041    -6.9017    -7.1013  H       1  <O>11       0.0644
@<TRIPOS>BOND
     1     1     2    2
     2     2     3   am
     3     3     4    1
     4     4     5   am
     5     5     6    2
     6     5     7    1
     7     7     8   ar
     8     8     9   ar
     9     9    10   ar
    10    10    11   ar
    11    11    12   ar
    12     7    12   ar
    13    12    13    1
    14     2    14    1
    15    14    15   ar
    16    15    16   ar
    17    16    17   ar
    18    17    18   ar
    19    18    19    1
    20    19    20    2
    21    19    21    2
    22    19    22    1
    23    22    23    1
    24    23    24    1
    25    24    25    1
    26    25    26    1
    27    26    27    1
    28    22    27    1
    29    18    28   ar
    30    14    28   ar
    31     3    29    1
    32     4    30    1
    33    13    31    1
    34    23    32    1
    35    23    33    1
    36    24    34    1
    37    24    35    1
    38    25    36    1
    39    25    37    1
    40    26    38    1
    41    26    39    1
    42    27    40    1
    43    27    41    1
    44     8    42    1
    45     9    43    1
    46    10    44    1
    47    11    45    1
    48    15    46    1
    49    16    47    1
    50    17    48    1
    51    28    49    1
@<TRIPOS>MOLECULE
mol99_1_6
 49 51 0 0 0
SMALL
USER_CHARGES
****
VDW energy = 180.89
@<TRIPOS>ATOM
   1 O1        0.9439    -9.6922    -5.8421  O.2     1  <O>11      -0.2687
   2 C1        1.5306    -9.0649    -6.7113  C.2     1  <O>11       0.2602
   3 N1        2.8490    -8.7350    -6.5460  N.am    1  <O>11      -0.2301
   4 N2        3.5086    -8.0297    -7.5235  N.am    1  <O>11      -0.2300
   5 C2        4.8472    -7.7707    -7.3946  C.2     1  <O>11       0.2637
   6 O2        5.4341    -7.1434    -8.2637  O.2     1  <O>11      -0.2685
   7 C3        5.5665    -8.2389    -6.2306  C.ar    1  <O>11       0.0795
   8 C4        5.6487    -7.4217    -5.1020  C.ar    1  <O>11      -0.0460
   9 C5        6.3531    -7.8616    -3.9768  C.ar    1  <O>11      -0.0608
  10 C6        6.9685    -9.1168    -3.9793  C.ar    1  <O>11      -0.0583
  11 C7        6.8722    -9.9292    -5.1151  C.ar    1  <O>11      -0.0194
  12 C8        6.1694    -9.4983    -6.2410  C.ar    1  <O>11       0.1290
  13 O3        6.0741   -10.2523    -7.2902  O.3     1  <O>11      -0.5060
  14 C9        0.8270    -8.6680    -7.9240  C.ar    1  <O>11       0.0400
  15 C10       0.1579    -7.4341    -7.9833  C.ar    1  <O>11      -0.0495
  16 C11      -0.5270    -7.0585    -9.1447  C.ar    1  <O>11      -0.0592
  17 C12      -0.5475    -7.9067   -10.2546  C.ar    1  <O>11      -0.0353
  18 C13       0.1255    -9.1327   -10.1976  C.ar    1  <O>11       0.1062
  19 S1        0.0986   -10.1960   -11.6000  S.O2    1  <O>11       0.0609
  20 O4       -1.4672   -10.3864   -12.1204  O.2     1  <O>11      -0.1528
  21 O5        0.7284   -11.6756   -11.1846  O.2     1  <O>11      -0.1528
  22 N3        1.0046    -9.5336   -12.8121  N.3     1  <O>11      -0.1766
  23 C14       0.8351   -10.3551   -14.0435  C.3     1  <O>11       0.0205
  24 C15       1.3865   -11.7639   -13.8551  C.3     1  <O>11      -0.0385
  25 C16       2.8521   -11.7241   -13.4345  C.3     1  <O>11      -0.0506
  26 C17       3.0395   -10.8589   -12.1940  C.3     1  <O>11      -0.0385
  27 C18       2.4273    -9.4741   -12.3712  C.3     1  <O>11       0.0205
  28 C19       0.8119    -9.5151    -9.0439  C.ar    1  <O>11      -0.0232
  29 H1        3.3417    -9.0114    -5.6974  H       1  <O>11       0.1731
  30 H2        3.0025    -7.6987    -8.3446  H       1  <O>11       0.1731
  31 H3        5.5555    -9.7959    -7.9700  H       1  <O>11       0.2922
  32 H4       -0.2269   -10.4199   -14.2821  H       1  <O>11       0.0444
  33 H5        1.3643    -9.8752   -14.8658  H       1  <O>11       0.0444
  34 H6        0.8069   -12.2744   -13.0843  H       1  <O>11       0.0278
  35 H7        1.2991   -12.3083   -14.7953  H       1  <O>11       0.0278
  36 H8        3.1884   -12.7382   -13.2156  H       1  <O>11       0.0266
  37 H9        3.4470   -11.3109   -14.2501  H       1  <O>11       0.0266
  38 H10       2.5613   -11.3488   -11.3460  H       1  <O>11       0.0278
  39 H11       4.1061   -10.7503   -11.9972  H       1  <O>11       0.0278
  40 H12       2.4765    -8.9455   -11.4194  H       1  <O>11       0.0444
  41 H13       3.0027    -8.9293   -13.1189  H       1  <O>11       0.0444
  42 H14       5.1914    -6.4965    -5.0980  H       1  <O>11       0.0626
  43 H15       6.4188    -7.2579    -3.1423  H       1  <O>11       0.0618
  44 H16       7.4899    -9.4420    -3.1501  H       1  <O>11       0.0619
  45 H17       7.3254   -10.8564    -5.1199  H       1  <O>11       0.0654
  46 H18       0.1715    -6.8022    -7.1675  H       1  <O>11       0.0625
  47 H19      -1.0186    -6.1519    -9.1812  H       1  <O>11       0.0618
  48 H20      -1.0550    -7.6314   -11.1100  H       1  <O>11       0.0637
  49 H21       1.3079   -10.4196    -9.0139  H       1  <O>11       0.0644
@<TRIPOS>BOND
     1     1     2    2
     2     2     3   am
     3     3     4    1
     4     4     5   am
     5     5     6    2
     6     5     7    1
     7     7     8   ar
     8     8     9   ar
     9     9    10   ar
    10    10    11   ar
    11    11    12   ar
    12     7    12   ar
    13    12    13    1
    14     2    14    1
    15    14    15   ar
    16    15    16   ar
    17    16    17   ar
    18    17    18   ar
    19    18    19    1
    20    19    20    2
    21    19    21    2
    22    19    22    1
    23    22    23    1
    24    23    24    1
    25    24    25    1
    26    25    26    1
    27    26    27    1
    28    22    27    1
    29    18    28   ar
    30    14    28   ar
    31     3    29    1
    32     4    30    1
    33    13    31    1
    34    23    32    1
    35    23    33    1
    36    24    34    1
    37    24    35    1
    38    25    36    1
    39    25    37    1
    40    26    38    1
    41    26    39    1
    42    27    40    1
    43    27    41    1
    44     8    42    1
    45     9    43    1
    46    10    44    1
    47    11    45    1
    48    15    46    1
    49    16    47    1
    50    17    48    1
    51    28    49    1
@<TRIPOS>MOLECULE
mol99_1_7
 49 51 0 0 0
SMALL
USER_CHARGES
****
VDW energy = 181.76
@<TRIPOS>ATOM
   1 O1        0.9439    -9.6922    -5.8421  O.2     1  <O>11      -0.2687
   2 C1        1.5306    -9.0649    -6.7113  C.2     1  <O>11       0.2602
   3 N1        2.8490    -8.7350    -6.5460  N.am    1  <O>11      -0.2301
   4 N2        3.5086    -8.0297    -7.5235  N.am    1  <O>11      -0.2300
   5 C2        4.8472    -7.7707    -7.3946  C.2     1  <O>11       0.2637
   6 O2        5.4538    -8.1674    -6.4106  O.2     1  <O>11      -0.2685
   7 C3        5.5433    -7.0282    -8.4220  C.ar    1  <O>11       0.0795
   8 C4        5.2943    -5.6626    -8.5676  C.ar    1  <O>11      -0.0460
   9 C5        5.9539    -4.9398    -9.5668  C.ar    1  <O>11      -0.0608
  10 C6        6.8631    -5.5805   -10.4137  C.ar    1  <O>11      -0.0583
  11 C7        7.1089    -6.9490   -10.2520  C.ar    1  <O>11      -0.0194
  12 C8        6.4563    -7.6766    -9.2561  C.ar    1  <O>11       0.1290
  13 O3        6.6882    -8.9418    -9.1015  O.3     1  <O>11      -0.5060
  14 C9        0.8270    -8.6680    -7.9240  C.ar    1  <O>11       0.0400
  15 C10       0.1579    -7.4341    -7.9833  C.ar    1  <O>11      -0.0495
  16 C11      -0.5270    -7.0585    -9.1447  C.ar    1  <O>11      -0.0592
  17 C12      -0.5475    -7.9067   -10.2546  C.ar    1  <O>11      -0.0353
  18 C13       0.1255    -9.1327   -10.1976  C.ar    1  <O>11       0.1062
  19 S1        0.0986   -10.1960   -11.6000  S.O2    1  <O>11       0.0609
  20 O4       -1.4672   -10.3864   -12.1204  O.2     1  <O>11      -0.1528
  21 O5        0.7284   -11.6756   -11.1846  O.2     1  <O>11      -0.1528
  22 N3        1.0046    -9.5336   -12.8121  N.3     1  <O>11      -0.1766
  23 C14       0.8351   -10.3551   -14.0435  C.3     1  <O>11       0.0205
  24 C15       1.3865   -11.7639   -13.8551  C.3     1  <O>11      -0.0385
  25 C16       2.8521   -11.7241   -13.4345  C.3     1  <O>11      -0.0506
  26 C17       3.0395   -10.8589   -12.1940  C.3     1  <O>11      -0.0385
  27 C18       2.4273    -9.4741   -12.3712  C.3     1  <O>11       0.0205
  28 C19       0.8119    -9.5151    -9.0439  C.ar    1  <O>11      -0.0232
  29 H1        3.3417    -9.0114    -5.6974  H       1  <O>11       0.1731
  30 H2        3.0025    -7.6987    -8.3446  H       1  <O>11       0.1731
  31 H3        6.1514    -9.2815    -8.3696  H       1  <O>11       0.2922
  32 H4       -0.2269   -10.4199   -14.2821  H       1  <O>11       0.0444
  33 H5        1.3643    -9.8752   -14.8658  H       1  <O>11       0.0444
  34 H6        0.8069   -12.2744   -13.0843  H       1  <O>11       0.0278
  35 H7        1.2991   -12.3083   -14.7953  H       1  <O>11       0.0278
  36 H8        3.1884   -12.7382   -13.2156  H       1  <O>11       0.0266
  37 H9        3.4470   -11.3109   -14.2501  H       1  <O>11       0.0266
  38 H10       2.5613   -11.3488   -11.3460  H       1  <O>11       0.0278
  39 H11       4.1061   -10.7503   -11.9972  H       1  <O>11       0.0278
  40 H12       2.4765    -8.9455   -11.4194  H       1  <O>11       0.0444
  41 H13       3.0027    -8.9293   -13.1189  H       1  <O>11       0.0444
  42 H14       4.6261    -5.1882    -7.9403  H       1  <O>11       0.0626
  43 H15       5.7689    -3.9307    -9.6793  H       1  <O>11       0.0618
  44 H16       7.3493    -5.0485   -11.1524  H       1  <O>11       0.0619
  45 H17       7.7796    -7.4246   -10.8757  H       1  <O>11       0.0654
  46 H18       0.1715    -6.8022    -7.1675  H       1  <O>11       0.0625
  47 H19      -1.0186    -6.1519    -9.1812  H       1  <O>11       0.0618
  48 H20      -1.0550    -7.6314   -11.1100  H       1  <O>11       0.0637
  49 H21       1.3079   -10.4196    -9.0139  H       1  <O>11       0.0644
@<TRIPOS>BOND
     1     1     2    2
     2     2     3   am
     3     3     4    1
     4     4     5   am
     5     5     6    2
     6     5     7    1
     7     7     8   ar
     8     8     9   ar
     9     9    10   ar
    10    10    11   ar
    11    11    12   ar
    12     7    12   ar
    13    12    13    1
    14     2    14    1
    15    14    15   ar
    16    15    16   ar
    17    16    17   ar
    18    17    18   ar
    19    18    19    1
    20    19    20    2
    21    19    21    2
    22    19    22    1
    23    22    23    1
    24    23    24    1
    25    24    25    1
    26    25    26    1
    27    26    27    1
    28    22    27    1
    29    18    28   ar
    30    14    28   ar
    31     3    29    1
    32     4    30    1
    33    13    31    1
    34    23    32    1
    35    23    33    1
    36    24    34    1
    37    24    35    1
    38    25    36    1
    39    25    37    1
    40    26    38    1
    41    26    39    1
    42    27    40    1
    43    27    41    1
    44     8    42    1
    45     9    43    1
    46    10    44    1
    47    11    45    1
    48    15    46    1
    49    16    47    1
    50    17    48    1
    51    28    49    1
@<TRIPOS>MOLECULE
mol99_1_8
 49 51 0 0 0
SMALL
USER_CHARGES
****
VDW energy = 182.36
@<TRIPOS>ATOM
   1 O1        0.9439    -9.6922    -5.8421  O.2     1  <O>11      -0.2687
   2 C1        1.5306    -9.0649    -6.7113  C.2     1  <O>11       0.2602
   3 N1        2.8490    -8.7350    -6.5460  N.am    1  <O>11      -0.2301
   4 N2        3.5130    -9.1100    -5.4030  N.am    1  <O>11      -0.2300
   5 C2        4.8073    -8.7102    -5.2018  C.2     1  <O>11       0.2637
   6 O2        5.3983    -9.0437    -4.1854  O.2     1  <O>11      -0.2685
   7 C3        5.4753    -7.8940    -6.1912  C.ar    1  <O>11       0.0795
   8 C4        5.0904    -6.5622    -6.3531  C.ar    1  <O>11      -0.0460
   9 C5        5.7226    -5.7694    -7.3164  C.ar    1  <O>11      -0.0608
  10 C6        6.7397    -6.3064    -8.1111  C.ar    1  <O>11      -0.0583
  11 C7        7.1208    -7.6416    -7.9334  C.ar    1  <O>11      -0.0194
  12 C8        6.4962    -8.4383    -6.9730  C.ar    1  <O>11       0.1290
  13 O3        6.8529    -9.6721    -6.8033  O.3     1  <O>11      -0.5060
  14 C9        0.8270    -8.6680    -7.9240  C.ar    1  <O>11       0.0400
  15 C10       0.9036    -9.4628    -9.0799  C.ar    1  <O>11      -0.0495
  16 C11       0.2365    -9.0751   -10.2476  C.ar    1  <O>11      -0.0592
  17 C12      -0.5131    -7.8964   -10.2712  C.ar    1  <O>11      -0.0353
  18 C13      -0.5951    -7.1086    -9.1171  C.ar    1  <O>11       0.1062
  19 S1       -1.5432    -5.6261    -9.1518  S.O2    1  <O>11       0.0609
  20 O4       -2.1563    -5.3255    -7.6377  O.2     1  <O>11      -0.1528
  21 O5       -2.7930    -5.7938   -10.2326  O.2     1  <O>11      -0.1528
  22 N3       -0.5806    -4.3663    -9.6158  N.3     1  <O>11      -0.1766
  23 C14      -1.3488    -3.0973    -9.4769  C.3     1  <O>11       0.0205
  24 C15      -2.5419    -3.0603   -10.4252  C.3     1  <O>11      -0.0385
  25 C16      -2.0967    -3.2624   -11.8700  C.3     1  <O>11      -0.0506
  26 C17      -1.2820    -4.5421   -12.0150  C.3     1  <O>11      -0.0385
  27 C18      -0.1302    -4.5967   -11.0179  C.3     1  <O>11       0.0205
  28 C19       0.0661    -7.4879    -7.9477  C.ar    1  <O>11      -0.0232
  29 H1        3.3390    -8.2120    -7.2710  H       1  <O>11       0.1731
  30 H2        3.0434    -9.6859    -4.7047  H       1  <O>11       0.1731
  31 H3        6.3163   -10.0699    -6.1010  H       1  <O>11       0.2922
  32 H4       -1.7093    -3.0124    -8.4514  H       1  <O>11       0.0444
  33 H5       -0.6917    -2.2583    -9.7024  H       1  <O>11       0.0444
  34 H6       -3.2403    -3.8530   -10.1520  H       1  <O>11       0.0278
  35 H7       -3.0371    -2.0935   -10.3357  H       1  <O>11       0.0278
  36 H8       -2.9777    -3.3267   -12.5095  H       1  <O>11       0.0266
  37 H9       -1.4843    -2.4136   -12.1775  H       1  <O>11       0.0266
  38 H10      -1.9351    -5.3980   -11.8449  H       1  <O>11       0.0278
  39 H11      -0.8761    -4.5896   -13.0256  H       1  <O>11       0.0278
  40 H12       0.3381    -5.5790   -11.0778  H       1  <O>11       0.0444
  41 H13       0.5984    -3.8308   -11.2815  H       1  <O>11       0.0444
  42 H14       4.3422    -6.1640    -5.7643  H       1  <O>11       0.0626
  43 H15       5.4374    -4.7854    -7.4410  H       1  <O>11       0.0618
  44 H16       7.2059    -5.7229    -8.8233  H       1  <O>11       0.0619
  45 H17       7.8714    -8.0407    -8.5185  H       1  <O>11       0.0654
  46 H18       1.4538   -10.3358    -9.0679  H       1  <O>11       0.0625
  47 H19       0.2986    -9.6620   -11.0942  H       1  <O>11       0.0618
  48 H20      -1.0026    -7.6087   -11.1329  H       1  <O>11       0.0637
  49 H21      -0.0041    -6.9017    -7.1013  H       1  <O>11       0.0644
@<TRIPOS>BOND
     1     1     2    2
     2     2     3   am
     3     3     4    1
     4     4     5   am
     5     5     6    2
     6     5     7    1
     7     7     8   ar
     8     8     9   ar
     9     9    10   ar
    10    10    11   ar
    11    11    12   ar
    12     7    12   ar
    13    12    13    1
    14     2    14    1
    15    14    15   ar
    16    15    16   ar
    17    16    17   ar
    18    17    18   ar
    19    18    19    1
    20    19    20    2
    21    19    21    2
    22    19    22    1
    23    22    23    1
    24    23    24    1
    25    24    25    1
    26    25    26    1
    27    26    27    1
    28    22    27    1
    29    18    28   ar
    30    14    28   ar
    31     3    29    1
    32     4    30    1
    33    13    31    1
    34    23    32    1
    35    23    33    1
    36    24    34    1
    37    24    35    1
    38    25    36    1
    39    25    37    1
    40    26    38    1
    41    26    39    1
    42    27    40    1
    43    27    41    1
    44     8    42    1
    45     9    43    1
    46    10    44    1
    47    11    45    1
    48    15    46    1
    49    16    47    1
    50    17    48    1
    51    28    49    1
@<TRIPOS>MOLECULE
mol99_1_9
 49 51 0 0 0
SMALL
USER_CHARGES
****
VDW energy = 182.48
@<TRIPOS>ATOM
   1 O1        0.9439    -9.6922    -5.8421  O.2     1  <O>11      -0.2687
   2 C1        1.5306    -9.0649    -6.7113  C.2     1  <O>11       0.2602
   3 N1        2.8490    -8.7350    -6.5460  N.am    1  <O>11      -0.2301
   4 N2        3.5130    -9.1100    -5.4030  N.am    1  <O>11      -0.2300
   5 C2        4.8073    -8.7102    -5.2018  C.2     1  <O>11       0.2637
   6 O2        5.3983    -9.0437    -4.1854  O.2     1  <O>11      -0.2685
   7 C3        5.4753    -7.8940    -6.1912  C.ar    1  <O>11       0.0795
   8 C4        5.0904    -6.5622    -6.3531  C.ar    1  <O>11      -0.0460
   9 C5        5.7226    -5.7694    -7.3164  C.ar    1  <O>11      -0.0608
  10 C6        6.7397    -6.3064    -8.1111  C.ar    1  <O>11      -0.0583
  11 C7        7.1208    -7.6416    -7.9334  C.ar    1  <O>11      -0.0194
  12 C8        6.4962    -8.4383    -6.9730  C.ar    1  <O>11       0.1290
  13 O3        6.8529    -9.6721    -6.8033  O.3     1  <O>11      -0.5060
  14 C9        0.8270    -8.6680    -7.9240  C.ar    1  <O>11       0.0400
  15 C10       0.9036    -9.4628    -9.0799  C.ar    1  <O>11      -0.0495
  16 C11       0.2365    -9.0751   -10.2476  C.ar    1  <O>11      -0.0592
  17 C12      -0.5131    -7.8964   -10.2712  C.ar    1  <O>11      -0.0353
  18 C13      -0.5951    -7.1086    -9.1171  C.ar    1  <O>11       0.1062
  19 S1       -1.5432    -5.6261    -9.1518  S.O2    1  <O>11       0.0609
  20 O4       -1.5266    -4.9942   -10.6877  O.2     1  <O>11      -0.1528
  21 O5       -0.8895    -4.5264    -8.0928  O.2     1  <O>11      -0.1528
  22 N3       -3.1003    -5.9565    -8.7095  N.3     1  <O>11      -0.1766
  23 C14      -3.6733    -6.9436    -9.6672  C.3     1  <O>11       0.0205
  24 C15      -3.7706    -6.3648   -11.0742  C.3     1  <O>11      -0.0385
  25 C16      -4.5875    -5.0767   -11.0788  C.3     1  <O>11      -0.0506
  26 C17      -4.0275    -4.0731   -10.0779  C.3     1  <O>11      -0.0385
  27 C18      -3.8745    -4.6829    -8.6891  C.3     1  <O>11       0.0205
  28 C19       0.0661    -7.4879    -7.9477  C.ar    1  <O>11      -0.0232
  29 H1        3.3390    -8.2120    -7.2710  H       1  <O>11       0.1731
  30 H2        3.0434    -9.6859    -4.7047  H       1  <O>11       0.1731
  31 H3        6.3163   -10.0699    -6.1010  H       1  <O>11       0.2922
  32 H4       -3.0331    -7.8260    -9.6912  H       1  <O>11       0.0444
  33 H5       -4.6702    -7.2262    -9.3313  H       1  <O>11       0.0444
  34 H6       -2.7660    -6.1524   -11.4436  H       1  <O>11       0.0278
  35 H7       -4.2504    -7.0946   -11.7262  H       1  <O>11       0.0278
  36 H8       -4.5578    -4.6385   -12.0770  H       1  <O>11       0.0266
  37 H9       -5.6199    -5.3072   -10.8124  H       1  <O>11       0.0266
  38 H10      -3.0502    -3.7368   -10.4237  H       1  <O>11       0.0278
  39 H11      -4.7045    -3.2209   -10.0161  H       1  <O>11       0.0278
  40 H12      -3.3567    -3.9691    -8.0488  H       1  <O>11       0.0444
  41 H13      -4.8655    -4.8826    -8.2827  H       1  <O>11       0.0444
  42 H14       4.3422    -6.1640    -5.7643  H       1  <O>11       0.0626
  43 H15       5.4374    -4.7854    -7.4410  H       1  <O>11       0.0618
  44 H16       7.2059    -5.7229    -8.8233  H       1  <O>11       0.0619
  45 H17       7.8714    -8.0407    -8.5185  H       1  <O>11       0.0654
  46 H18       1.4538   -10.3358    -9.0679  H       1  <O>11       0.0625
  47 H19       0.2986    -9.6620   -11.0942  H       1  <O>11       0.0618
  48 H20      -1.0026    -7.6087   -11.1329  H       1  <O>11       0.0637
  49 H21      -0.0041    -6.9017    -7.1013  H       1  <O>11       0.0644
@<TRIPOS>BOND
     1     1     2    2
     2     2     3   am
     3     3     4    1
     4     4     5   am
     5     5     6    2
     6     5     7    1
     7     7     8   ar
     8     8     9   ar
     9     9    10   ar
    10    10    11   ar
    11    11    12   ar
    12     7    12   ar
    13    12    13    1
    14     2    14    1
    15    14    15   ar
    16    15    16   ar
    17    16    17   ar
    18    17    18   ar
    19    18    19    1
    20    19    20    2
    21    19    21    2
    22    19    22    1
    23    22    23    1
    24    23    24    1
    25    24    25    1
    26    25    26    1
    27    26    27    1
    28    22    27    1
    29    18    28   ar
    30    14    28   ar
    31     3    29    1
    32     4    30    1
    33    13    31    1
    34    23    32    1
    35    23    33    1
    36    24    34    1
    37    24    35    1
    38    25    36    1
    39    25    37    1
    40    26    38    1
    41    26    39    1
    42    27    40    1
    43    27    41    1
    44     8    42    1
    45     9    43    1
    46    10    44    1
    47    11    45    1
    48    15    46    1
    49    16    47    1
    50    17    48    1
    51    28    49    1
@<TRIPOS>MOLECULE
mol99_1_10
 49 51 0 0 0
SMALL
USER_CHARGES
****
VDW energy = 182.63
@<TRIPOS>ATOM
   1 O1        0.9439    -9.6922    -5.8421  O.2     1  <O>11      -0.2687
   2 C1        1.5306    -9.0649    -6.7113  C.2     1  <O>11       0.2602
   3 N1        2.8490    -8.7350    -6.5460  N.am    1  <O>11      -0.2301
   4 N2        3.5086    -8.0297    -7.5235  N.am    1  <O>11      -0.2300
   5 C2        4.8472    -7.7707    -7.3946  C.2     1  <O>11       0.2637
   6 O2        5.4538    -8.1674    -6.4106  O.2     1  <O>11      -0.2685
   7 C3        5.5433    -7.0282    -8.4220  C.ar    1  <O>11       0.0795
   8 C4        6.1280    -7.7159    -9.4865  C.ar    1  <O>11      -0.0460
   9 C5        6.8139    -7.0066   -10.4777  C.ar    1  <O>11      -0.0608
  10 C6        6.9098    -5.6138   -10.4061  C.ar    1  <O>11      -0.0583
  11 C7        6.3126    -4.9360    -9.3369  C.ar    1  <O>11      -0.0194
  12 C8        5.6248    -5.6364    -8.3452  C.ar    1  <O>11       0.1290
  13 O3        5.0661    -5.0093    -7.3588  O.3     1  <O>11      -0.5060
  14 C9        0.8270    -8.6680    -7.9240  C.ar    1  <O>11       0.0400
  15 C10       0.1579    -7.4341    -7.9833  C.ar    1  <O>11      -0.0495
  16 C11      -0.5270    -7.0585    -9.1447  C.ar    1  <O>11      -0.0592
  17 C12      -0.5475    -7.9067   -10.2546  C.ar    1  <O>11      -0.0353
  18 C13       0.1255    -9.1327   -10.1976  C.ar    1  <O>11       0.1062
  19 S1        0.0986   -10.1960   -11.6000  S.O2    1  <O>11       0.0609
  20 O4       -1.4672   -10.3864   -12.1204  O.2     1  <O>11      -0.1528
  21 O5        0.7284   -11.6756   -11.1846  O.2     1  <O>11      -0.1528
  22 N3        1.0046    -9.5336   -12.8121  N.3     1  <O>11      -0.1766
  23 C14       0.8351   -10.3551   -14.0435  C.3     1  <O>11       0.0205
  24 C15       1.3865   -11.7639   -13.8551  C.3     1  <O>11      -0.0385
  25 C16       2.8521   -11.7241   -13.4345  C.3     1  <O>11      -0.0506
  26 C17       3.0395   -10.8589   -12.1940  C.3     1  <O>11      -0.0385
  27 C18       2.4273    -9.4741   -12.3712  C.3     1  <O>11       0.0205
  28 C19       0.8119    -9.5151    -9.0439  C.ar    1  <O>11      -0.0232
  29 H1        3.3417    -9.0114    -5.6974  H       1  <O>11       0.1731
  30 H2        3.0025    -7.6987    -8.3446  H       1  <O>11       0.1731
  31 H3        4.6374    -5.6492    -6.7704  H       1  <O>11       0.2922
  32 H4       -0.2269   -10.4199   -14.2821  H       1  <O>11       0.0444
  33 H5        1.3643    -9.8752   -14.8658  H       1  <O>11       0.0444
  34 H6        0.8069   -12.2744   -13.0843  H       1  <O>11       0.0278
  35 H7        1.2991   -12.3083   -14.7953  H       1  <O>11       0.0278
  36 H8        3.1884   -12.7382   -13.2156  H       1  <O>11       0.0266
  37 H9        3.4470   -11.3109   -14.2501  H       1  <O>11       0.0266
  38 H10       2.5613   -11.3488   -11.3460  H       1  <O>11       0.0278
  39 H11       4.1061   -10.7503   -11.9972  H       1  <O>11       0.0278
  40 H12       2.4765    -8.9455   -11.4194  H       1  <O>11       0.0444
  41 H13       3.0027    -8.9293   -13.1189  H       1  <O>11       0.0444
  42 H14       6.0545    -8.7438    -9.5421  H       1  <O>11       0.0626
  43 H15       7.2505    -7.5128   -11.2640  H       1  <O>11       0.0618
  44 H16       7.4169    -5.0893   -11.1361  H       1  <O>11       0.0619
  45 H17       6.3816    -3.9077    -9.2815  H       1  <O>11       0.0654
  46 H18       0.1715    -6.8022    -7.1675  H       1  <O>11       0.0625
  47 H19      -1.0186    -6.1519    -9.1812  H       1  <O>11       0.0618
  48 H20      -1.0550    -7.6314   -11.1100  H       1  <O>11       0.0637
  49 H21       1.3079   -10.4196    -9.0139  H       1  <O>11       0.0644
@<TRIPOS>BOND
     1     1     2    2
     2     2     3   am
     3     3     4    1
     4     4     5   am
     5     5     6    2
     6     5     7    1
     7     7     8   ar
     8     8     9   ar
     9     9    10   ar
    10    10    11   ar
    11    11    12   ar
    12     7    12   ar
    13    12    13    1
    14     2    14    1
    15    14    15   ar
    16    15    16   ar
    17    16    17   ar
    18    17    18   ar
    19    18    19    1
    20    19    20    2
    21    19    21    2
    22    19    22    1
    23    22    23    1
    24    23    24    1
    25    24    25    1
    26    25    26    1
    27    26    27    1
    28    22    27    1
    29    18    28   ar
    30    14    28   ar
    31     3    29    1
    32     4    30    1
    33    13    31    1
    34    23    32    1
    35    23    33    1
    36    24    34    1
    37    24    35    1
    38    25    36    1
    39    25    37    1
    40    26    38    1
    41    26    39    1
    42    27    40    1
    43    27    41    1
    44     8    42    1
    45     9    43    1
    46    10    44    1
    47    11    45    1
    48    15    46    1
    49    16    47    1
    50    17    48    1
    51    28    49    1
@<TRIPOS>MOLECULE
mol99_1_11
 49 51 0 0 0
SMALL
USER_CHARGES
****
VDW energy = 183.45
@<TRIPOS>ATOM
   1 O1        0.9439    -9.6922    -5.8421  O.2     1  <O>11      -0.2687
   2 C1        1.5306    -9.0649    -6.7113  C.2     1  <O>11       0.2602
   3 N1        2.8490    -8.7350    -6.5460  N.am    1  <O>11      -0.2301
   4 N2        3.5127    -9.1091    -5.4026  N.am    1  <O>11      -0.2300
   5 C2        4.8070    -8.7094    -5.2014  C.2     1  <O>11       0.2637
   6 O2        5.3978    -9.0420    -4.1846  O.2     1  <O>11      -0.2685
   7 C3        5.4753    -7.8940    -6.1914  C.ar    1  <O>11       0.0795
   8 C4        6.1872    -8.5124    -7.2204  C.ar    1  <O>11      -0.0460
   9 C5        6.8468    -7.7312    -8.1747  C.ar    1  <O>11      -0.0608
  10 C6        6.7897    -6.3363    -8.1021  C.ar    1  <O>11      -0.0583
  11 C7        6.0661    -5.7290    -7.0691  C.ar    1  <O>11      -0.0194
  12 C8        5.4037    -6.5016    -6.1144  C.ar    1  <O>11       0.1290
  13 O3        4.7283    -5.9405    -5.1618  O.3     1  <O>11      -0.5060
  14 C9        0.8270    -8.6680    -7.9240  C.ar    1  <O>11       0.0400
  15 C10       1.0537    -7.4037    -8.4931  C.ar    1  <O>11      -0.0495
  16 C11       0.3692    -7.0190    -9.6517  C.ar    1  <O>11      -0.0592
  17 C12      -0.5422    -7.8908   -10.2525  C.ar    1  <O>11      -0.0353
  18 C13      -0.7623    -9.1533    -9.6893  C.ar    1  <O>11       0.1062
  19 S1       -1.9095   -10.2486   -10.4521  S.O2    1  <O>11       0.0609
  20 O4       -3.3390    -9.4491   -10.7276  O.2     1  <O>11      -0.1528
  21 O5       -2.1839   -11.5463    -9.4526  O.2     1  <O>11      -0.1528
  22 N3       -1.2917   -10.7820   -11.8884  N.3     1  <O>11      -0.1766
  23 C14      -2.3381   -11.5688   -12.5997  C.3     1  <O>11       0.0205
  24 C15      -2.7078   -12.8312   -11.8289  C.3     1  <O>11      -0.0385
  25 C16      -1.4754   -13.6910   -11.5674  C.3     1  <O>11      -0.0506
  26 C17      -0.3869   -12.8848   -10.8690  C.3     1  <O>11      -0.0385
  27 C18      -0.0715   -11.5933   -11.6150  C.3     1  <O>11       0.0205
  28 C19      -0.0834    -9.5458    -8.5345  C.ar    1  <O>11      -0.0232
  29 H1        3.3392    -8.2126    -7.2713  H       1  <O>11       0.1731
  30 H2        3.0429    -9.6844    -4.7039  H       1  <O>11       0.1731
  31 H3        4.3388    -6.6241    -4.5959  H       1  <O>11       0.2922
  32 H4       -3.2290   -10.9506   -12.7140  H       1  <O>11       0.0444
  33 H5       -1.9627   -11.8516   -13.5824  H       1  <O>11       0.0444
  34 H6       -3.1560   -12.5490   -10.8749  H       1  <O>11       0.0278
  35 H7       -3.4272   -13.4057   -12.4123  H       1  <O>11       0.0278
  36 H8       -1.7557   -14.5339   -10.9347  H       1  <O>11       0.0266
  37 H9       -1.0896   -14.0615   -12.5182  H       1  <O>11       0.0266
  38 H10      -0.7223   -12.6363    -9.8622  H       1  <O>11       0.0278
  39 H11       0.5184   -13.4892   -10.8120  H       1  <O>11       0.0278
  40 H12       0.6151   -10.9997   -11.0117  H       1  <O>11       0.0444
  41 H13       0.4023   -11.8431   -12.5638  H       1  <O>11       0.0444
  42 H14       6.2267    -9.5421    -7.2768  H       1  <O>11       0.0626
  43 H15       7.3772    -8.1857    -8.9344  H       1  <O>11       0.0618
  44 H16       7.2772    -5.7587    -8.8048  H       1  <O>11       0.0619
  45 H17       6.0222    -4.6995    -7.0130  H       1  <O>11       0.0654
  46 H18       1.7275    -6.7562    -8.0552  H       1  <O>11       0.0625
  47 H19       0.5383    -6.0880   -10.0636  H       1  <O>11       0.0618
  48 H20      -1.0493    -7.6063   -11.1050  H       1  <O>11       0.0637
  49 H21      -0.2503   -10.4803    -8.1297  H       1  <O>11       0.0644
@<TRIPOS>BOND
     1     1     2    2
     2     2     3   am
     3     3     4    1
     4     4     5   am
     5     5     6    2
     6     5     7    1
     7     7     8   ar
     8     8     9   ar
     9     9    10   ar
    10    10    11   ar
    11    11    12   ar
    12     7    12   ar
    13    12    13    1
    14     2    14    1
    15    14    15   ar
    16    15    16   ar
    17    16    17   ar
    18    17    18   ar
    19    18    19    1
    20    19    20    2
    21    19    21    2
    22    19    22    1
    23    22    23    1
    24    23    24    1
    25    24    25    1
    26    25    26    1
    27    26    27    1
    28    22    27    1
    29    18    28   ar
    30    14    28   ar
    31     3    29    1
    32     4    30    1
    33    13    31    1
    34    23    32    1
    35    23    33    1
    36    24    34    1
    37    24    35    1
    38    25    36    1
    39    25    37    1
    40    26    38    1
    41    26    39    1
    42    27    40    1
    43    27    41    1
    44     8    42    1
    45     9    43    1
    46    10    44    1
    47    11    45    1
    48    15    46    1
    49    16    47    1
    50    17    48    1
    51    28    49    1
@<TRIPOS>MOLECULE
mol99_1_12
 49 51 0 0 0
SMALL
USER_CHARGES
****
VDW energy = 184.95
@<TRIPOS>ATOM
   1 O1        0.9439    -9.6922    -5.8421  O.2     1  <O>11      -0.2687
   2 C1        1.5306    -9.0649    -6.7113  C.2     1  <O>11       0.2602
   3 N1        2.8490    -8.7350    -6.5460  N.am    1  <O>11      -0.2301
   4 N2        3.5127    -9.1091    -5.4026  N.am    1  <O>11      -0.2300
   5 C2        4.8070    -8.7094    -5.2014  C.2     1  <O>11       0.2637
   6 O2        5.3978    -9.0420    -4.1846  O.2     1  <O>11      -0.2685
   7 C3        5.4753    -7.8940    -6.1914  C.ar    1  <O>11       0.0795
   8 C4        6.1872    -8.5124    -7.2204  C.ar    1  <O>11      -0.0460
   9 C5        6.8468    -7.7312    -8.1747  C.ar    1  <O>11      -0.0608
  10 C6        6.7897    -6.3363    -8.1021  C.ar    1  <O>11      -0.0583
  11 C7        6.0661    -5.7290    -7.0691  C.ar    1  <O>11      -0.0194
  12 C8        5.4037    -6.5016    -6.1144  C.ar    1  <O>11       0.1290
  13 O3        4.7283    -5.9405    -5.1618  O.3     1  <O>11      -0.5060
  14 C9        0.8270    -8.6680    -7.9240  C.ar    1  <O>11       0.0400
  15 C10      -0.5259    -9.0032    -8.1001  C.ar    1  <O>11      -0.0495
  16 C11      -1.1979    -8.6312    -9.2701  C.ar    1  <O>11      -0.0592
  17 C12      -0.5290    -7.9210   -10.2700  C.ar    1  <O>11      -0.0353
  18 C13       0.8169    -7.5808   -10.0909  C.ar    1  <O>11       0.1062
  19 S1        1.6538    -6.6835   -11.3527  S.O2    1  <O>11       0.0609
  20 O4        1.4049    -7.4255   -12.8177  O.2     1  <O>11      -0.1528
  21 O5        3.2804    -6.6466   -11.0194  O.2     1  <O>11      -0.1528
  22 N3        1.0697    -5.1393   -11.4117  N.3     1  <O>11      -0.1766
  23 C14       1.6625    -4.4453   -12.5893  C.3     1  <O>11       0.0205
  24 C15       3.1732    -4.2972   -12.4480  C.3     1  <O>11      -0.0385
  25 C16       3.5311    -3.5657   -11.1583  C.3     1  <O>11      -0.0506
  26 C17       2.9015    -4.2504    -9.9511  C.3     1  <O>11      -0.0385
  27 C18       1.4012    -4.4509   -10.1318  C.3     1  <O>11       0.0205
  28 C19       1.4949    -7.9468    -8.9269  C.ar    1  <O>11      -0.0232
  29 H1        3.3392    -8.2126    -7.2713  H       1  <O>11       0.1731
  30 H2        3.0429    -9.6844    -4.7039  H       1  <O>11       0.1731
  31 H3        4.3388    -6.6241    -4.5959  H       1  <O>11       0.2922
  32 H4        1.4464    -5.0250   -13.4873  H       1  <O>11       0.0444
  33 H5        1.2169    -3.4554   -12.6792  H       1  <O>11       0.0444
  34 H6        3.6299    -5.2881   -12.4356  H       1  <O>11       0.0278
  35 H7        3.5558    -3.7317   -13.2976  H       1  <O>11       0.0278
  36 H8        4.6152    -3.5606   -11.0397  H       1  <O>11       0.0266
  37 H9        3.1660    -2.5394   -11.2162  H       1  <O>11       0.0266
  38 H10       3.3720    -5.2236    -9.8116  H       1  <O>11       0.0278
  39 H11       3.0711    -3.6345    -9.0677  H       1  <O>11       0.0278
  40 H12       1.0265    -5.0525    -9.3040  H       1  <O>11       0.0444
  41 H13       0.9135    -3.4767   -10.1222  H       1  <O>11       0.0444
  42 H14       6.2267    -9.5421    -7.2768  H       1  <O>11       0.0626
  43 H15       7.3772    -8.1857    -8.9344  H       1  <O>11       0.0618
  44 H16       7.2772    -5.7587    -8.8048  H       1  <O>11       0.0619
  45 H17       6.0222    -4.6995    -7.0130  H       1  <O>11       0.0654
  46 H18      -1.0261    -9.5257    -7.3640  H       1  <O>11       0.0625
  47 H19      -2.1911    -8.8825    -9.3946  H       1  <O>11       0.0618
  48 H20      -1.0234    -7.6492   -11.1341  H       1  <O>11       0.0637
  49 H21       2.4862    -7.6876    -8.8034  H       1  <O>11       0.0644
@<TRIPOS>BOND
     1     1     2    2
     2     2     3   am
     3     3     4    1
     4     4     5   am
     5     5     6    2
     6     5     7    1
     7     7     8   ar
     8     8     9   ar
     9     9    10   ar
    10    10    11   ar
    11    11    12   ar
    12     7    12   ar
    13    12    13    1
    14     2    14    1
    15    14    15   ar
    16    15    16   ar
    17    16    17   ar
    18    17    18   ar
    19    18    19    1
    20    19    20    2
    21    19    21    2
    22    19    22    1
    23    22    23    1
    24    23    24    1
    25    24    25    1
    26    25    26    1
    27    26    27    1
    28    22    27    1
    29    18    28   ar
    30    14    28   ar
    31     3    29    1
    32     4    30    1
    33    13    31    1
    34    23    32    1
    35    23    33    1
    36    24    34    1
    37    24    35    1
    38    25    36    1
    39    25    37    1
    40    26    38    1
    41    26    39    1
    42    27    40    1
    43    27    41    1
    44     8    42    1
    45     9    43    1
    46    10    44    1
    47    11    45    1
    48    15    46    1
    49    16    47    1
    50    17    48    1
    51    28    49    1
@<TRIPOS>MOLECULE
mol99_1_13
 49 51 0 0 0
SMALL
USER_CHARGES
****
VDW energy = 189.73
@<TRIPOS>ATOM
   1 O1        0.9439    -9.6922    -5.8421  O.2     1  <O>11      -0.2687
   2 C1        1.5306    -9.0649    -6.7113  C.2     1  <O>11       0.2602
   3 N1        2.8490    -8.7350    -6.5460  N.am    1  <O>11      -0.2301
   4 N2        3.5130    -9.1100    -5.4030  N.am    1  <O>11      -0.2300
   5 C2        4.8073    -8.7102    -5.2018  C.2     1  <O>11       0.2637
   6 O2        5.3703    -8.0201    -6.0386  O.2     1  <O>11      -0.2685
   7 C3        5.5083    -9.1041    -3.9997  C.ar    1  <O>11       0.0795
   8 C4        5.8956   -10.4353    -3.8380  C.ar    1  <O>11      -0.0460
   9 C5        6.5627   -10.8271    -2.6729  C.ar    1  <O>11      -0.0608
  10 C6        6.8456    -9.8889    -1.6758  C.ar    1  <O>11      -0.0583
  11 C7        6.4580    -8.5557    -1.8541  C.ar    1  <O>11      -0.0194
  12 C8        5.7938    -8.1566    -3.0146  C.ar    1  <O>11       0.1290
  13 O3        5.4407    -6.9216    -3.1833  O.3     1  <O>11      -0.5060
  14 C9        0.8270    -8.6680    -7.9240  C.ar    1  <O>11       0.0400
  15 C10       0.9036    -9.4628    -9.0799  C.ar    1  <O>11      -0.0495
  16 C11       0.2365    -9.0751   -10.2476  C.ar    1  <O>11      -0.0592
  17 C12      -0.5131    -7.8964   -10.2712  C.ar    1  <O>11      -0.0353
  18 C13      -0.5951    -7.1086    -9.1171  C.ar    1  <O>11       0.1062
  19 S1       -1.5432    -5.6261    -9.1518  S.O2    1  <O>11       0.0609
  20 O4       -3.1227    -5.9875    -9.5171  O.2     1  <O>11      -0.1528
  21 O5       -0.9276    -4.6026   -10.3057  O.2     1  <O>11      -0.1528
  22 N3       -1.4744    -4.8925    -7.6732  N.3     1  <O>11      -0.1766
  23 C14      -2.4136    -3.7359    -7.6659  C.3     1  <O>11       0.0205
  24 C15      -1.9886    -2.6653    -8.6646  C.3     1  <O>11      -0.0385
  25 C16      -0.5622    -2.1996    -8.3909  C.3     1  <O>11      -0.0506
  26 C17       0.4007    -3.3806    -8.3642  C.3     1  <O>11      -0.0385
  27 C18      -0.0685    -4.4728    -7.4099  C.3     1  <O>11       0.0205
  28 C19       0.0661    -7.4879    -7.9477  C.ar    1  <O>11      -0.0232
  29 H1        3.3390    -8.2120    -7.2710  H       1  <O>11       0.1731
  30 H2        3.0434    -9.6859    -4.7047  H       1  <O>11       0.1731
  31 H3        4.9942    -6.8272    -4.0383  H       1  <O>11       0.2922
  32 H4       -3.4113    -4.0886    -7.9286  H       1  <O>11       0.0444
  33 H5       -2.4326    -3.3006    -6.6675  H       1  <O>11       0.0444
  34 H6       -2.0432    -3.0763    -9.6739  H       1  <O>11       0.0278
  35 H7       -2.6645    -1.8142    -8.5821  H       1  <O>11       0.0278
  36 H8       -0.2555    -1.5077    -9.1762  H       1  <O>11       0.0266
  37 H9       -0.5306    -1.6925    -7.4256  H       1  <O>11       0.0266
  38 H10       0.4748    -3.7988    -9.3679  H       1  <O>11       0.0278
  39 H11       1.3814    -3.0293    -8.0432  H       1  <O>11       0.0278
  40 H12       0.5822    -5.3397    -7.5234  H       1  <O>11       0.0444
  41 H13      -0.0005    -4.0993    -6.3887  H       1  <O>11       0.0444
  42 H14       5.6904   -11.1276    -4.5752  H       1  <O>11       0.0626
  43 H15       6.8469   -11.8114    -2.5488  H       1  <O>11       0.0618
  44 H16       7.3366   -10.1770    -0.8150  H       1  <O>11       0.0619
  45 H17       6.6656    -7.8609    -1.1197  H       1  <O>11       0.0654
  46 H18       1.4538   -10.3358    -9.0679  H       1  <O>11       0.0625
  47 H19       0.2986    -9.6620   -11.0942  H       1  <O>11       0.0618
  48 H20      -1.0026    -7.6087   -11.1329  H       1  <O>11       0.0637
  49 H21      -0.0041    -6.9017    -7.1013  H       1  <O>11       0.0644
@<TRIPOS>BOND
     1     1     2    2
     2     2     3   am
     3     3     4    1
     4     4     5   am
     5     5     6    2
     6     5     7    1
     7     7     8   ar
     8     8     9   ar
     9     9    10   ar
    10    10    11   ar
    11    11    12   ar
    12     7    12   ar
    13    12    13    1
    14     2    14    1
    15    14    15   ar
    16    15    16   ar
    17    16    17   ar
    18    17    18   ar
    19    18    19    1
    20    19    20    2
    21    19    21    2
    22    19    22    1
    23    22    23    1
    24    23    24    1
    25    24    25    1
    26    25    26    1
    27    26    27    1
    28    22    27    1
    29    18    28   ar
    30    14    28   ar
    31     3    29    1
    32     4    30    1
    33    13    31    1
    34    23    32    1
    35    23    33    1
    36    24    34    1
    37    24    35    1
    38    25    36    1
    39    25    37    1
    40    26    38    1
    41    26    39    1
    42    27    40    1
    43    27    41    1
    44     8    42    1
    45     9    43    1
    46    10    44    1
    47    11    45    1
    48    15    46    1
    49    16    47    1
    50    17    48    1
    51    28    49    1
@<TRIPOS>MOLECULE
mol99_1_14
 49 51 0 0 0
SMALL
USER_CHARGES
****
VDW energy = 195.73
@<TRIPOS>ATOM
   1 O1        0.9439    -9.6922    -5.8421  O.2     1  <O>11      -0.2687
   2 C1        1.5306    -9.0649    -6.7113  C.2     1  <O>11       0.2602
   3 N1        2.8490    -8.7350    -6.5460  N.am    1  <O>11      -0.2301
   4 N2        3.5086    -8.0297    -7.5235  N.am    1  <O>11      -0.2300
   5 C2        4.8472    -7.7707    -7.3946  C.2     1  <O>11       0.2637
   6 O2        5.4538    -8.1674    -6.4106  O.2     1  <O>11      -0.2685
   7 C3        5.5433    -7.0282    -8.4220  C.ar    1  <O>11       0.0795
   8 C4        5.2943    -5.6626    -8.5676  C.ar    1  <O>11      -0.0460
   9 C5        5.9539    -4.9398    -9.5668  C.ar    1  <O>11      -0.0608
  10 C6        6.8631    -5.5805   -10.4137  C.ar    1  <O>11      -0.0583
  11 C7        7.1089    -6.9490   -10.2520  C.ar    1  <O>11      -0.0194
  12 C8        6.4563    -7.6766    -9.2561  C.ar    1  <O>11       0.1290
  13 O3        6.6882    -8.9418    -9.1015  O.3     1  <O>11      -0.5060
  14 C9        0.8270    -8.6680    -7.9240  C.ar    1  <O>11       0.0400
  15 C10       1.4714    -8.7335    -9.1707  C.ar    1  <O>11      -0.0495
  16 C11       0.7985    -8.3416   -10.3336  C.ar    1  <O>11      -0.0592
  17 C12      -0.5201    -7.8854   -10.2635  C.ar    1  <O>11      -0.0353
  18 C13      -1.1642    -7.8273    -9.0221  C.ar    1  <O>11       0.1062
  19 S1       -2.8264    -7.2544    -8.9402  S.O2    1  <O>11       0.0609
  20 O4       -2.9572    -5.8158    -9.7601  O.2     1  <O>11      -0.1528
  21 O5       -3.2560    -7.0282    -7.3519  O.2     1  <O>11      -0.1528
  22 N3       -3.8299    -8.3725    -9.6272  N.3     1  <O>11      -0.1766
  23 C14      -5.2043    -7.8025    -9.7041  C.3     1  <O>11       0.0205
  24 C15      -5.7807    -7.5458    -8.3162  C.3     1  <O>11      -0.0385
  25 C16      -5.7749    -8.8208    -7.4789  C.3     1  <O>11      -0.0506
  26 C17      -4.3785    -9.4286    -7.4220  C.3     1  <O>11      -0.0385
  27 C18      -3.7870    -9.6208    -8.8137  C.3     1  <O>11       0.0205
  28 C19      -0.5012    -8.2170    -7.8572  C.ar    1  <O>11      -0.0232
  29 H1        3.3417    -9.0114    -5.6974  H       1  <O>11       0.1731
  30 H2        3.0025    -7.6987    -8.3446  H       1  <O>11       0.1731
  31 H3        6.1514    -9.2815    -8.3696  H       1  <O>11       0.2922
  32 H4       -5.1664    -6.8601   -10.2512  H       1  <O>11       0.0444
  33 H5       -5.8502    -8.5037   -10.2311  H       1  <O>11       0.0444
  34 H6       -5.1797    -6.7858    -7.8145  H       1  <O>11       0.0278
  35 H7       -6.8058    -7.1895    -8.4176  H       1  <O>11       0.0278
  36 H8       -6.1019    -8.5842    -6.4658  H       1  <O>11       0.0266
  37 H9       -6.4601    -9.5437    -7.9236  H       1  <O>11       0.0266
  38 H10      -3.7277    -8.7659    -6.8518  H       1  <O>11       0.0278
  39 H11      -4.4353   -10.3977    -6.9261  H       1  <O>11       0.0278
  40 H12      -2.7488    -9.9363    -8.7120  H       1  <O>11       0.0444
  41 H13      -4.3524   -10.3951    -9.3313  H       1  <O>11       0.0444
  42 H14       4.6261    -5.1882    -7.9403  H       1  <O>11       0.0626
  43 H15       5.7689    -3.9307    -9.6793  H       1  <O>11       0.0618
  44 H16       7.3493    -5.0485   -11.1524  H       1  <O>11       0.0619
  45 H17       7.7796    -7.4246   -10.8757  H       1  <O>11       0.0654
  46 H18       2.4446    -9.0719    -9.2291  H       1  <O>11       0.0625
  47 H19       1.2781    -8.3897   -11.2461  H       1  <O>11       0.0618
  48 H20      -1.0155    -7.5935   -11.1205  H       1  <O>11       0.0637
  49 H21      -0.9867    -8.1737    -6.9475  H       1  <O>11       0.0644
@<TRIPOS>BOND
     1     1     2    2
     2     2     3   am
     3     3     4    1
     4     4     5   am
     5     5     6    2
     6     5     7    1
     7     7     8   ar
     8     8     9   ar
     9     9    10   ar
    10    10    11   ar
    11    11    12   ar
    12     7    12   ar
    13    12    13    1
    14     2    14    1
    15    14    15   ar
    16    15    16   ar
    17    16    17   ar
    18    17    18   ar
    19    18    19    1
    20    19    20    2
    21    19    21    2
    22    19    22    1
    23    22    23    1
    24    23    24    1
    25    24    25    1
    26    25    26    1
    27    26    27    1
    28    22    27    1
    29    18    28   ar
    30    14    28   ar
    31     3    29    1
    32     4    30    1
    33    13    31    1
    34    23    32    1
    35    23    33    1
    36    24    34    1
    37    24    35    1
    38    25    36    1
    39    25    37    1
    40    26    38    1
    41    26    39    1
    42    27    40    1
    43    27    41    1
    44     8    42    1
    45     9    43    1
    46    10    44    1
    47    11    45    1
    48    15    46    1
    49    16    47    1
    50    17    48    1
    51    28    49    1
@<TRIPOS>MOLECULE
mol99_1_15
 49 51 0 0 0
SMALL
USER_CHARGES
****
VDW energy = 195.74
@<TRIPOS>ATOM
   1 O1        0.9439    -9.6922    -5.8421  O.2     1  <O>11      -0.2687
   2 C1        1.5306    -9.0649    -6.7113  C.2     1  <O>11       0.2602
   3 N1        2.8490    -8.7350    -6.5460  N.am    1  <O>11      -0.2301
   4 N2        3.5130    -9.1100    -5.4030  N.am    1  <O>11      -0.2300
   5 C2        4.8073    -8.7102    -5.2018  C.2     1  <O>11       0.2637
   6 O2        5.3703    -8.0201    -6.0386  O.2     1  <O>11      -0.2685
   7 C3        5.5083    -9.1041    -3.9997  C.ar    1  <O>11       0.0795
   8 C4        6.3444    -8.1858    -3.3627  C.ar    1  <O>11      -0.0460
   9 C5        7.0357    -8.5626    -2.2068  C.ar    1  <O>11      -0.0608
  10 C6        6.8867    -9.8520    -1.6877  C.ar    1  <O>11      -0.0583
  11 C7        6.0395   -10.7608    -2.3325  C.ar    1  <O>11      -0.0194
  12 C8        5.3447   -10.3918    -3.4850  C.ar    1  <O>11       0.1290
  13 O3        4.5552   -11.2300    -4.0786  O.3     1  <O>11      -0.5060
  14 C9        0.8270    -8.6680    -7.9240  C.ar    1  <O>11       0.0400
  15 C10       0.9036    -9.4628    -9.0799  C.ar    1  <O>11      -0.0495
  16 C11       0.2365    -9.0751   -10.2476  C.ar    1  <O>11      -0.0592
  17 C12      -0.5131    -7.8964   -10.2712  C.ar    1  <O>11      -0.0353
  18 C13      -0.5951    -7.1086    -9.1171  C.ar    1  <O>11       0.1062
  19 S1       -1.5432    -5.6261    -9.1518  S.O2    1  <O>11       0.0609
  20 O4       -1.1078    -4.7214   -10.4749  O.2     1  <O>11      -0.1528
  21 O5       -1.2589    -4.7550    -7.7667  O.2     1  <O>11      -0.1528
  22 N3       -3.1495    -6.0005    -9.2456  N.3     1  <O>11      -0.1766
  23 C14      -3.9254    -4.7444    -9.4452  C.3     1  <O>11       0.0205
  24 C15      -3.8003    -3.8140    -8.2439  C.3     1  <O>11      -0.0385
  25 C16      -4.2372    -4.5164    -6.9624  C.3     1  <O>11      -0.0506
  26 C17      -3.4713    -5.8194    -6.7671  C.3     1  <O>11      -0.0385
  27 C18      -3.5504    -6.7133    -7.9994  C.3     1  <O>11       0.0205
  28 C19       0.0661    -7.4879    -7.9477  C.ar    1  <O>11      -0.0232
  29 H1        3.3390    -8.2120    -7.2710  H       1  <O>11       0.1731
  30 H2        3.0434    -9.6859    -4.7047  H       1  <O>11       0.1731
  31 H3        4.1604   -10.8069    -4.8560  H       1  <O>11       0.2922
  32 H4       -3.5475    -4.2319   -10.3303  H       1  <O>11       0.0444
  33 H5       -4.9755    -4.9952    -9.5904  H       1  <O>11       0.0444
  34 H6       -2.7605    -3.4992    -8.1425  H       1  <O>11       0.0278
  35 H7       -4.4304    -2.9394    -8.4047  H       1  <O>11       0.0278
  36 H8       -4.0461    -3.8602    -6.1125  H       1  <O>11       0.0266
  37 H9       -5.3041    -4.7358    -7.0208  H       1  <O>11       0.0266
  38 H10      -2.4252    -5.5879    -6.5674  H       1  <O>11       0.0278
  39 H11      -3.8944    -6.3535    -5.9163  H       1  <O>11       0.0278
  40 H12      -2.8875    -7.5664    -7.8559  H       1  <O>11       0.0444
  41 H13      -4.5754    -7.0653    -8.1121  H       1  <O>11       0.0444
  42 H14       6.4519    -7.2325    -3.7431  H       1  <O>11       0.0626
  43 H15       7.6576    -7.8869    -1.7358  H       1  <O>11       0.0618
  44 H16       7.3975   -10.1318    -0.8357  H       1  <O>11       0.0619
  45 H17       5.9275   -11.7134    -1.9515  H       1  <O>11       0.0654
  46 H18       1.4538   -10.3358    -9.0679  H       1  <O>11       0.0625
  47 H19       0.2986    -9.6620   -11.0942  H       1  <O>11       0.0618
  48 H20      -1.0026    -7.6087   -11.1329  H       1  <O>11       0.0637
  49 H21      -0.0041    -6.9017    -7.1013  H       1  <O>11       0.0644
@<TRIPOS>BOND
     1     1     2    2
     2     2     3   am
     3     3     4    1
     4     4     5   am
     5     5     6    2
     6     5     7    1
     7     7     8   ar
     8     8     9   ar
     9     9    10   ar
    10    10    11   ar
    11    11    12   ar
    12     7    12   ar
    13    12    13    1
    14     2    14    1
    15    14    15   ar
    16    15    16   ar
    17    16    17   ar
    18    17    18   ar
    19    18    19    1
    20    19    20    2
    21    19    21    2
    22    19    22    1
    23    22    23    1
    24    23    24    1
    25    24    25    1
    26    25    26    1
    27    26    27    1
    28    22    27    1
    29    18    28   ar
    30    14    28   ar
    31     3    29    1
    32     4    30    1
    33    13    31    1
    34    23    32    1
    35    23    33    1
    36    24    34    1
    37    24    35    1
    38    25    36    1
    39    25    37    1
    40    26    38    1
    41    26    39    1
    42    27    40    1
    43    27    41    1
    44     8    42    1
    45     9    43    1
    46    10    44    1
    47    11    45    1
    48    15    46    1
    49    16    47    1
    50    17    48    1
    51    28    49    1
@<TRIPOS>MOLECULE
mol99_1_16
 49 51 0 0 0
SMALL
USER_CHARGES
****
VDW energy = 196.08
@<TRIPOS>ATOM
   1 O1        0.9439    -9.6922    -5.8421  O.2     1  <O>11      -0.2687
   2 C1        1.5306    -9.0649    -6.7113  C.2     1  <O>11       0.2602
   3 N1        2.8490    -8.7350    -6.5460  N.am    1  <O>11      -0.2301
   4 N2        3.5086    -8.0297    -7.5235  N.am    1  <O>11      -0.2300
   5 C2        4.8472    -7.7707    -7.3946  C.2     1  <O>11       0.2637
   6 O2        5.4538    -8.1674    -6.4106  O.2     1  <O>11      -0.2685
   7 C3        5.5433    -7.0282    -8.4220  C.ar    1  <O>11       0.0795
   8 C4        4.8378    -6.5796    -9.5396  C.ar    1  <O>11      -0.0460
   9 C5        5.5061    -5.8718   -10.5438  C.ar    1  <O>11      -0.0608
  10 C6        6.8743    -5.6096   -10.4272  C.ar    1  <O>11      -0.0583
  11 C7        7.5682    -6.0590    -9.2976  C.ar    1  <O>11      -0.0194
  12 C8        6.9081    -6.7641    -8.2905  C.ar    1  <O>11       0.1290
  13 O3        7.5482    -7.1746    -7.2416  O.3     1  <O>11      -0.5060
  14 C9        0.8270    -8.6680    -7.9240  C.ar    1  <O>11       0.0400
  15 C10       0.9036    -9.4628    -9.0799  C.ar    1  <O>11      -0.0495
  16 C11       0.2365    -9.0751   -10.2476  C.ar    1  <O>11      -0.0592
  17 C12      -0.5131    -7.8964   -10.2712  C.ar    1  <O>11      -0.0353
  18 C13      -0.5951    -7.1086    -9.1171  C.ar    1  <O>11       0.1062
  19 S1       -1.5432    -5.6261    -9.1518  S.O2    1  <O>11       0.0609
  20 O4       -1.1078    -4.7214   -10.4749  O.2     1  <O>11      -0.1528
  21 O5       -1.2589    -4.7550    -7.7667  O.2     1  <O>11      -0.1528
  22 N3       -3.1495    -6.0005    -9.2456  N.3     1  <O>11      -0.1766
  23 C14      -3.9254    -4.7444    -9.4452  C.3     1  <O>11       0.0205
  24 C15      -3.8003    -3.8140    -8.2439  C.3     1  <O>11      -0.0385
  25 C16      -4.2372    -4.5164    -6.9624  C.3     1  <O>11      -0.0506
  26 C17      -3.4713    -5.8194    -6.7671  C.3     1  <O>11      -0.0385
  27 C18      -3.5504    -6.7133    -7.9994  C.3     1  <O>11       0.0205
  28 C19       0.0661    -7.4879    -7.9477  C.ar    1  <O>11      -0.0232
  29 H1        3.3417    -9.0114    -5.6974  H       1  <O>11       0.1731
  30 H2        3.0025    -7.6987    -8.3446  H       1  <O>11       0.1731
  31 H3        6.9370    -7.6425    -6.6527  H       1  <O>11       0.2922
  32 H4       -3.5475    -4.2319   -10.3303  H       1  <O>11       0.0444
  33 H5       -4.9755    -4.9952    -9.5904  H       1  <O>11       0.0444
  34 H6       -2.7605    -3.4992    -8.1425  H       1  <O>11       0.0278
  35 H7       -4.4304    -2.9394    -8.4047  H       1  <O>11       0.0278
  36 H8       -4.0461    -3.8602    -6.1125  H       1  <O>11       0.0266
  37 H9       -5.3041    -4.7358    -7.0208  H       1  <O>11       0.0266
  38 H10      -2.4252    -5.5879    -6.5674  H       1  <O>11       0.0278
  39 H11      -3.8944    -6.3535    -5.9163  H       1  <O>11       0.0278
  40 H12      -2.8875    -7.5664    -7.8559  H       1  <O>11       0.0444
  41 H13      -4.5754    -7.0653    -8.1121  H       1  <O>11       0.0444
  42 H14       3.8270    -6.7695    -9.6246  H       1  <O>11       0.0626
  43 H15       4.9878    -5.5422   -11.3732  H       1  <O>11       0.0618
  44 H16       7.3689    -5.0887   -11.1682  H       1  <O>11       0.0619
  45 H17       8.5783    -5.8669    -9.2088  H       1  <O>11       0.0654
  46 H18       1.4538   -10.3358    -9.0679  H       1  <O>11       0.0625
  47 H19       0.2986    -9.6620   -11.0942  H       1  <O>11       0.0618
  48 H20      -1.0026    -7.6087   -11.1329  H       1  <O>11       0.0637
  49 H21      -0.0041    -6.9017    -7.1013  H       1  <O>11       0.0644
@<TRIPOS>BOND
     1     1     2    2
     2     2     3   am
     3     3     4    1
     4     4     5   am
     5     5     6    2
     6     5     7    1
     7     7     8   ar
     8     8     9   ar
     9     9    10   ar
    10    10    11   ar
    11    11    12   ar
    12     7    12   ar
    13    12    13    1
    14     2    14    1
    15    14    15   ar
    16    15    16   ar
    17    16    17   ar
    18    17    18   ar
    19    18    19    1
    20    19    20    2
    21    19    21    2
    22    19    22    1
    23    22    23    1
    24    23    24    1
    25    24    25    1
    26    25    26    1
    27    26    27    1
    28    22    27    1
    29    18    28   ar
    30    14    28   ar
    31     3    29    1
    32     4    30    1
    33    13    31    1
    34    23    32    1
    35    23    33    1
    36    24    34    1
    37    24    35    1
    38    25    36    1
    39    25    37    1
    40    26    38    1
    41    26    39    1
    42    27    40    1
    43    27    41    1
    44     8    42    1
    45     9    43    1
    46    10    44    1
    47    11    45    1
    48    15    46    1
    49    16    47    1
    50    17    48    1
    51    28    49    1
@<TRIPOS>MOLECULE
mol99_1_17
 49 51 0 0 0
SMALL
USER_CHARGES
****
VDW energy = 196.64
@<TRIPOS>ATOM
   1 O1        0.9439    -9.6922    -5.8421  O.2     1  <O>11      -0.2687
   2 C1        1.5306    -9.0649    -6.7113  C.2     1  <O>11       0.2602
   3 N1        2.8490    -8.7350    -6.5460  N.am    1  <O>11      -0.2301
   4 N2        3.5130    -9.1100    -5.4030  N.am    1  <O>11      -0.2300
   5 C2        4.8073    -8.7102    -5.2018  C.2     1  <O>11       0.2637
   6 O2        5.3703    -8.0201    -6.0386  O.2     1  <O>11      -0.2685
   7 C3        5.5083    -9.1041    -3.9997  C.ar    1  <O>11       0.0795
   8 C4        6.3444    -8.1858    -3.3627  C.ar    1  <O>11      -0.0460
   9 C5        7.0357    -8.5626    -2.2068  C.ar    1  <O>11      -0.0608
  10 C6        6.8867    -9.8520    -1.6877  C.ar    1  <O>11      -0.0583
  11 C7        6.0395   -10.7608    -2.3325  C.ar    1  <O>11      -0.0194
  12 C8        5.3447   -10.3918    -3.4850  C.ar    1  <O>11       0.1290
  13 O3        4.5552   -11.2300    -4.0786  O.3     1  <O>11      -0.5060
  14 C9        0.8270    -8.6680    -7.9240  C.ar    1  <O>11       0.0400
  15 C10       0.1579    -7.4341    -7.9833  C.ar    1  <O>11      -0.0495
  16 C11      -0.5270    -7.0585    -9.1447  C.ar    1  <O>11      -0.0592
  17 C12      -0.5475    -7.9067   -10.2546  C.ar    1  <O>11      -0.0353
  18 C13       0.1255    -9.1327   -10.1976  C.ar    1  <O>11       0.1062
  19 S1        0.0986   -10.1960   -11.6000  S.O2    1  <O>11       0.0609
  20 O4       -1.4672   -10.3864   -12.1204  O.2     1  <O>11      -0.1528
  21 O5        0.7284   -11.6756   -11.1846  O.2     1  <O>11      -0.1528
  22 N3        1.0046    -9.5336   -12.8121  N.3     1  <O>11      -0.1766
  23 C14       0.8351   -10.3551   -14.0435  C.3     1  <O>11       0.0205
  24 C15       1.3865   -11.7639   -13.8551  C.3     1  <O>11      -0.0385
  25 C16       2.8521   -11.7241   -13.4345  C.3     1  <O>11      -0.0506
  26 C17       3.0395   -10.8589   -12.1940  C.3     1  <O>11      -0.0385
  27 C18       2.4273    -9.4741   -12.3712  C.3     1  <O>11       0.0205
  28 C19       0.8119    -9.5151    -9.0439  C.ar    1  <O>11      -0.0232
  29 H1        3.3390    -8.2120    -7.2710  H       1  <O>11       0.1731
  30 H2        3.0434    -9.6859    -4.7047  H       1  <O>11       0.1731
  31 H3        4.1604   -10.8069    -4.8560  H       1  <O>11       0.2922
  32 H4       -0.2269   -10.4199   -14.2821  H       1  <O>11       0.0444
  33 H5        1.3643    -9.8752   -14.8658  H       1  <O>11       0.0444
  34 H6        0.8069   -12.2744   -13.0843  H       1  <O>11       0.0278
  35 H7        1.2991   -12.3083   -14.7953  H       1  <O>11       0.0278
  36 H8        3.1884   -12.7382   -13.2156  H       1  <O>11       0.0266
  37 H9        3.4470   -11.3109   -14.2501  H       1  <O>11       0.0266
  38 H10       2.5613   -11.3488   -11.3460  H       1  <O>11       0.0278
  39 H11       4.1061   -10.7503   -11.9972  H       1  <O>11       0.0278
  40 H12       2.4765    -8.9455   -11.4194  H       1  <O>11       0.0444
  41 H13       3.0027    -8.9293   -13.1189  H       1  <O>11       0.0444
  42 H14       6.4519    -7.2325    -3.7431  H       1  <O>11       0.0626
  43 H15       7.6576    -7.8869    -1.7358  H       1  <O>11       0.0618
  44 H16       7.3975   -10.1318    -0.8357  H       1  <O>11       0.0619
  45 H17       5.9275   -11.7134    -1.9515  H       1  <O>11       0.0654
  46 H18       0.1715    -6.8022    -7.1675  H       1  <O>11       0.0625
  47 H19      -1.0186    -6.1519    -9.1812  H       1  <O>11       0.0618
  48 H20      -1.0550    -7.6314   -11.1100  H       1  <O>11       0.0637
  49 H21       1.3079   -10.4196    -9.0139  H       1  <O>11       0.0644
@<TRIPOS>BOND
     1     1     2    2
     2     2     3   am
     3     3     4    1
     4     4     5   am
     5     5     6    2
     6     5     7    1
     7     7     8   ar
     8     8     9   ar
     9     9    10   ar
    10    10    11   ar
    11    11    12   ar
    12     7    12   ar
    13    12    13    1
    14     2    14    1
    15    14    15   ar
    16    15    16   ar
    17    16    17   ar
    18    17    18   ar
    19    18    19    1
    20    19    20    2
    21    19    21    2
    22    19    22    1
    23    22    23    1
    24    23    24    1
    25    24    25    1
    26    25    26    1
    27    26    27    1
    28    22    27    1
    29    18    28   ar
    30    14    28   ar
    31     3    29    1
    32     4    30    1
    33    13    31    1
    34    23    32    1
    35    23    33    1
    36    24    34    1
    37    24    35    1
    38    25    36    1
    39    25    37    1
    40    26    38    1
    41    26    39    1
    42    27    40    1
    43    27    41    1
    44     8    42    1
    45     9    43    1
    46    10    44    1
    47    11    45    1
    48    15    46    1
    49    16    47    1
    50    17    48    1
    51    28    49    1
@<TRIPOS>MOLECULE
mol99_1_18
 49 51 0 0 0
SMALL
USER_CHARGES
****
VDW energy = 197.35
@<TRIPOS>ATOM
   1 O1        0.9439    -9.6922    -5.8421  O.2     1  <O>11      -0.2687
   2 C1        1.5306    -9.0649    -6.7113  C.2     1  <O>11       0.2602
   3 N1        2.8490    -8.7350    -6.5460  N.am    1  <O>11      -0.2301
   4 N2        3.5130    -9.1100    -5.4030  N.am    1  <O>11      -0.2300
   5 C2        4.8073    -8.7102    -5.2018  C.2     1  <O>11       0.2637
   6 O2        5.3703    -8.0201    -6.0386  O.2     1  <O>11      -0.2685
   7 C3        5.5083    -9.1041    -3.9997  C.ar    1  <O>11       0.0795
   8 C4        5.8956   -10.4353    -3.8380  C.ar    1  <O>11      -0.0460
   9 C5        6.5627   -10.8271    -2.6729  C.ar    1  <O>11      -0.0608
  10 C6        6.8456    -9.8889    -1.6758  C.ar    1  <O>11      -0.0583
  11 C7        6.4580    -8.5557    -1.8541  C.ar    1  <O>11      -0.0194
  12 C8        5.7938    -8.1566    -3.0146  C.ar    1  <O>11       0.1290
  13 O3        5.4407    -6.9216    -3.1833  O.3     1  <O>11      -0.5060
  14 C9        0.8270    -8.6680    -7.9240  C.ar    1  <O>11       0.0400
  15 C10       0.9036    -9.4628    -9.0799  C.ar    1  <O>11      -0.0495
  16 C11       0.2365    -9.0751   -10.2476  C.ar    1  <O>11      -0.0592
  17 C12      -0.5131    -7.8964   -10.2712  C.ar    1  <O>11      -0.0353
  18 C13      -0.5951    -7.1086    -9.1171  C.ar    1  <O>11       0.1062
  19 S1       -1.5432    -5.6261    -9.1518  S.O2    1  <O>11       0.0609
  20 O4       -1.4735    -4.8895    -7.6648  O.2     1  <O>11      -0.1528
  21 O5       -3.1223    -5.9877    -9.5177  O.2     1  <O>11      -0.1528
  22 N3       -0.9323    -4.6073   -10.2998  N.3     1  <O>11      -0.1766
  23 C14      -1.6335    -3.2963   -10.2017  C.3     1  <O>11       0.0205
  24 C15      -3.1158    -3.4298   -10.5322  C.3     1  <O>11      -0.0385
  25 C16      -3.3131    -4.0413   -11.9156  C.3     1  <O>11      -0.0506
  26 C17      -2.5720    -5.3676   -12.0356  C.3     1  <O>11      -0.0385
  27 C18      -1.1056    -5.2351   -11.6406  C.3     1  <O>11       0.0205
  28 C19       0.0661    -7.4879    -7.9477  C.ar    1  <O>11      -0.0232
  29 H1        3.3390    -8.2120    -7.2710  H       1  <O>11       0.1731
  30 H2        3.0434    -9.6859    -4.7047  H       1  <O>11       0.1731
  31 H3        4.9942    -6.8272    -4.0383  H       1  <O>11       0.2922
  32 H4       -1.5306    -2.9153    -9.1852  H       1  <O>11       0.0444
  33 H5       -1.1769    -2.5966   -10.9007  H       1  <O>11       0.0444
  34 H6       -3.5919    -4.0693    -9.7873  H       1  <O>11       0.0278
  35 H7       -3.5752    -2.4417   -10.5094  H       1  <O>11       0.0278
  36 H8       -4.3773    -4.2117   -12.0822  H       1  <O>11       0.0266
  37 H9       -2.9321    -3.3510   -12.6693  H       1  <O>11       0.0266
  38 H10      -3.0475    -6.0985   -11.3817  H       1  <O>11       0.0278
  39 H11      -2.6293    -5.7118   -13.0683  H       1  <O>11       0.0278
  40 H12      -0.6571    -6.2282   -11.6223  H       1  <O>11       0.0444
  41 H13      -0.5967    -4.6208   -12.3828  H       1  <O>11       0.0444
  42 H14       5.6904   -11.1276    -4.5752  H       1  <O>11       0.0626
  43 H15       6.8469   -11.8114    -2.5488  H       1  <O>11       0.0618
  44 H16       7.3366   -10.1770    -0.8150  H       1  <O>11       0.0619
  45 H17       6.6656    -7.8609    -1.1197  H       1  <O>11       0.0654
  46 H18       1.4538   -10.3358    -9.0679  H       1  <O>11       0.0625
  47 H19       0.2986    -9.6620   -11.0942  H       1  <O>11       0.0618
  48 H20      -1.0026    -7.6087   -11.1329  H       1  <O>11       0.0637
  49 H21      -0.0041    -6.9017    -7.1013  H       1  <O>11       0.0644
@<TRIPOS>BOND
     1     1     2    2
     2     2     3   am
     3     3     4    1
     4     4     5   am
     5     5     6    2
     6     5     7    1
     7     7     8   ar
     8     8     9   ar
     9     9    10   ar
    10    10    11   ar
    11    11    12   ar
    12     7    12   ar
    13    12    13    1
    14     2    14    1
    15    14    15   ar
    16    15    16   ar
    17    16    17   ar
    18    17    18   ar
    19    18    19    1
    20    19    20    2
    21    19    21    2
    22    19    22    1
    23    22    23    1
    24    23    24    1
    25    24    25    1
    26    25    26    1
    27    26    27    1
    28    22    27    1
    29    18    28   ar
    30    14    28   ar
    31     3    29    1
    32     4    30    1
    33    13    31    1
    34    23    32    1
    35    23    33    1
    36    24    34    1
    37    24    35    1
    38    25    36    1
    39    25    37    1
    40    26    38    1
    41    26    39    1
    42    27    40    1
    43    27    41    1
    44     8    42    1
    45     9    43    1
    46    10    44    1
    47    11    45    1
    48    15    46    1
    49    16    47    1
    50    17    48    1
    51    28    49    1
@<TRIPOS>MOLECULE
mol99_1_19
 49 51 0 0 0
SMALL
USER_CHARGES
****
VDW energy = 198.37
@<TRIPOS>ATOM
   1 O1        0.9439    -9.6922    -5.8421  O.2     1  <O>11      -0.2687
   2 C1        1.5306    -9.0649    -6.7113  C.2     1  <O>11       0.2602
   3 N1        2.8490    -8.7350    -6.5460  N.am    1  <O>11      -0.2301
   4 N2        3.5130    -9.1100    -5.4030  N.am    1  <O>11      -0.2300
   5 C2        4.8073    -8.7102    -5.2018  C.2     1  <O>11       0.2637
   6 O2        5.3703    -8.0201    -6.0386  O.2     1  <O>11      -0.2685
   7 C3        5.5083    -9.1041    -3.9997  C.ar    1  <O>11       0.0795
   8 C4        5.8956   -10.4353    -3.8380  C.ar    1  <O>11      -0.0460
   9 C5        6.5627   -10.8271    -2.6729  C.ar    1  <O>11      -0.0608
  10 C6        6.8456    -9.8889    -1.6758  C.ar    1  <O>11      -0.0583
  11 C7        6.4580    -8.5557    -1.8541  C.ar    1  <O>11      -0.0194
  12 C8        5.7938    -8.1566    -3.0146  C.ar    1  <O>11       0.1290
  13 O3        5.4407    -6.9216    -3.1833  O.3     1  <O>11      -0.5060
  14 C9        0.8270    -8.6680    -7.9240  C.ar    1  <O>11       0.0400
  15 C10       0.9036    -9.4628    -9.0799  C.ar    1  <O>11      -0.0495
  16 C11       0.2365    -9.0751   -10.2476  C.ar    1  <O>11      -0.0592
  17 C12      -0.5131    -7.8964   -10.2712  C.ar    1  <O>11      -0.0353
  18 C13      -0.5951    -7.1086    -9.1171  C.ar    1  <O>11       0.1062
  19 S1       -1.5432    -5.6261    -9.1518  S.O2    1  <O>11       0.0609
  20 O4       -0.9281    -4.6025   -10.3062  O.2     1  <O>11      -0.1528
  21 O5       -1.4738    -4.8901    -7.6646  O.2     1  <O>11      -0.1528
  22 N3       -3.1145    -5.9844    -9.5150  N.3     1  <O>11      -0.1766
  23 C14      -3.1613    -6.6439   -10.8502  C.3     1  <O>11       0.0205
  24 C15      -2.6996    -5.7005   -11.9553  C.3     1  <O>11      -0.0385
  25 C16      -3.5280    -4.4198   -11.9604  C.3     1  <O>11      -0.0506
  26 C17      -3.5123    -3.7555   -10.5888  C.3     1  <O>11      -0.0385
  27 C18      -3.9136    -4.7265    -9.4843  C.3     1  <O>11       0.0205
  28 C19       0.0661    -7.4879    -7.9477  C.ar    1  <O>11      -0.0232
  29 H1        3.3390    -8.2120    -7.2710  H       1  <O>11       0.1731
  30 H2        3.0434    -9.6859    -4.7047  H       1  <O>11       0.1731
  31 H3        4.9942    -6.8272    -4.0383  H       1  <O>11       0.2922
  32 H4       -2.5096    -7.5180   -10.8361  H       1  <O>11       0.0444
  33 H5       -4.1845    -6.9559   -11.0561  H       1  <O>11       0.0444
  34 H6       -1.6506    -5.4473   -11.7939  H       1  <O>11       0.0278
  35 H7       -2.8086    -6.2005   -12.9177  H       1  <O>11       0.0278
  36 H8       -3.1131    -3.7291   -12.6953  H       1  <O>11       0.0266
  37 H9       -4.5577    -4.6610   -12.2275  H       1  <O>11       0.0266
  38 H10      -2.5065    -3.3882   -10.3856  H       1  <O>11       0.0278
  39 H11      -4.2110    -2.9188   -10.5938  H       1  <O>11       0.0278
  40 H12      -3.7642    -4.2408    -8.5202  H       1  <O>11       0.0444
  41 H13      -4.9669    -4.9783    -9.6044  H       1  <O>11       0.0444
  42 H14       5.6904   -11.1276    -4.5752  H       1  <O>11       0.0626
  43 H15       6.8469   -11.8114    -2.5488  H       1  <O>11       0.0618
  44 H16       7.3366   -10.1770    -0.8150  H       1  <O>11       0.0619
  45 H17       6.6656    -7.8609    -1.1197  H       1  <O>11       0.0654
  46 H18       1.4538   -10.3358    -9.0679  H       1  <O>11       0.0625
  47 H19       0.2986    -9.6620   -11.0942  H       1  <O>11       0.0618
  48 H20      -1.0026    -7.6087   -11.1329  H       1  <O>11       0.0637
  49 H21      -0.0041    -6.9017    -7.1013  H       1  <O>11       0.0644
@<TRIPOS>BOND
     1     1     2    2
     2     2     3   am
     3     3     4    1
     4     4     5   am
     5     5     6    2
     6     5     7    1
     7     7     8   ar
     8     8     9   ar
     9     9    10   ar
    10    10    11   ar
    11    11    12   ar
    12     7    12   ar
    13    12    13    1
    14     2    14    1
    15    14    15   ar
    16    15    16   ar
    17    16    17   ar
    18    17    18   ar
    19    18    19    1
    20    19    20    2
    21    19    21    2
    22    19    22    1
    23    22    23    1
    24    23    24    1
    25    24    25    1
    26    25    26    1
    27    26    27    1
    28    22    27    1
    29    18    28   ar
    30    14    28   ar
    31     3    29    1
    32     4    30    1
    33    13    31    1
    34    23    32    1
    35    23    33    1
    36    24    34    1
    37    24    35    1
    38    25    36    1
    39    25    37    1
    40    26    38    1
    41    26    39    1
    42    27    40    1
    43    27    41    1
    44     8    42    1
    45     9    43    1
    46    10    44    1
    47    11    45    1
    48    15    46    1
    49    16    47    1
    50    17    48    1
    51    28    49    1
@<TRIPOS>MOLECULE
mol99_1_20
 49 51 0 0 0
SMALL
USER_CHARGES
****
VDW energy = 198.86
@<TRIPOS>ATOM
   1 O1        0.9439    -9.6922    -5.8421  O.2     1  <O>11      -0.2687
   2 C1        1.5306    -9.0649    -6.7113  C.2     1  <O>11       0.2602
   3 N1        2.8490    -8.7350    -6.5460  N.am    1  <O>11      -0.2301
   4 N2        3.5086    -8.0297    -7.5235  N.am    1  <O>11      -0.2300
   5 C2        4.8472    -7.7707    -7.3946  C.2     1  <O>11       0.2637
   6 O2        5.4341    -7.1434    -8.2637  O.2     1  <O>11      -0.2685
   7 C3        5.5665    -8.2389    -6.2306  C.ar    1  <O>11       0.0795
   8 C4        5.6487    -7.4217    -5.1020  C.ar    1  <O>11      -0.0460
   9 C5        6.3531    -7.8616    -3.9768  C.ar    1  <O>11      -0.0608
  10 C6        6.9685    -9.1168    -3.9793  C.ar    1  <O>11      -0.0583
  11 C7        6.8722    -9.9292    -5.1151  C.ar    1  <O>11      -0.0194
  12 C8        6.1694    -9.4983    -6.2410  C.ar    1  <O>11       0.1290
  13 O3        6.0741   -10.2523    -7.2902  O.3     1  <O>11      -0.5060
  14 C9        0.8270    -8.6680    -7.9240  C.ar    1  <O>11       0.0400
  15 C10       0.1579    -7.4341    -7.9833  C.ar    1  <O>11      -0.0495
  16 C11      -0.5270    -7.0585    -9.1447  C.ar    1  <O>11      -0.0592
  17 C12      -0.5475    -7.9067   -10.2546  C.ar    1  <O>11      -0.0353
  18 C13       0.1255    -9.1327   -10.1976  C.ar    1  <O>11       0.1062
  19 S1        0.0986   -10.1960   -11.6000  S.O2    1  <O>11       0.0609
  20 O4        0.9670   -11.5723   -11.2679  O.2     1  <O>11      -0.1528
  21 O5        0.7745    -9.4143   -12.9001  O.2     1  <O>11      -0.1528
  22 N3       -1.4629   -10.6027   -11.9541  N.3     1  <O>11      -0.1766
  23 C14      -1.4595   -11.6324   -13.0309  C.3     1  <O>11       0.0205
  24 C15      -0.8848   -11.0796   -14.3303  C.3     1  <O>11      -0.0385
  25 C16      -1.6474    -9.8372   -14.7789  C.3     1  <O>11      -0.0506
  26 C17      -1.6839    -8.7910   -13.6713  C.3     1  <O>11      -0.0385
  27 C18      -2.1998    -9.3721   -12.3597  C.3     1  <O>11       0.0205
  28 C19       0.8119    -9.5151    -9.0439  C.ar    1  <O>11      -0.0232
  29 H1        3.3417    -9.0114    -5.6974  H       1  <O>11       0.1731
  30 H2        3.0025    -7.6987    -8.3446  H       1  <O>11       0.1731
  31 H3        5.5555    -9.7959    -7.9700  H       1  <O>11       0.2922
  32 H4       -0.8536   -12.4796   -12.7083  H       1  <O>11       0.0444
  33 H5       -2.4821   -11.9631   -13.2089  H       1  <O>11       0.0444
  34 H6        0.1634   -10.8192   -14.1752  H       1  <O>11       0.0278
  35 H7       -0.9585   -11.8432   -15.1046  H       1  <O>11       0.0278
  36 H8       -1.1546    -9.4122   -15.6540  H       1  <O>11       0.0266
  37 H9       -2.6693   -10.1186   -15.0368  H       1  <O>11       0.0266
  38 H10      -0.6758    -8.4080   -13.5136  H       1  <O>11       0.0278
  39 H11      -2.3391    -7.9754   -13.9775  H       1  <O>11       0.0278
  40 H12      -2.0866    -8.6227   -11.5766  H       1  <O>11       0.0444
  41 H13      -3.2547    -9.6186   -12.4763  H       1  <O>11       0.0444
  42 H14       5.1914    -6.4965    -5.0980  H       1  <O>11       0.0626
  43 H15       6.4188    -7.2579    -3.1423  H       1  <O>11       0.0618
  44 H16       7.4899    -9.4420    -3.1501  H       1  <O>11       0.0619
  45 H17       7.3254   -10.8564    -5.1199  H       1  <O>11       0.0654
  46 H18       0.1715    -6.8022    -7.1675  H       1  <O>11       0.0625
  47 H19      -1.0186    -6.1519    -9.1812  H       1  <O>11       0.0618
  48 H20      -1.0550    -7.6314   -11.1100  H       1  <O>11       0.0637
  49 H21       1.3079   -10.4196    -9.0139  H       1  <O>11       0.0644
@<TRIPOS>BOND
     1     1     2    2
     2     2     3   am
     3     3     4    1
     4     4     5   am
     5     5     6    2
     6     5     7    1
     7     7     8   ar
     8     8     9   ar
     9     9    10   ar
    10    10    11   ar
    11    11    12   ar
    12     7    12   ar
    13    12    13    1
    14     2    14    1
    15    14    15   ar
    16    15    16   ar
    17    16    17   ar
    18    17    18   ar
    19    18    19    1
    20    19    20    2
    21    19    21    2
    22    19    22    1
    23    22    23    1
    24    23    24    1
    25    24    25    1
    26    25    26    1
    27    26    27    1
    28    22    27    1
    29    18    28   ar
    30    14    28   ar
    31     3    29    1
    32     4    30    1
    33    13    31    1
    34    23    32    1
    35    23    33    1
    36    24    34    1
    37    24    35    1
    38    25    36    1
    39    25    37    1
    40    26    38    1
    41    26    39    1
    42    27    40    1
    43    27    41    1
    44     8    42    1
    45     9    43    1
    46    10    44    1
    47    11    45    1
    48    15    46    1
    49    16    47    1
    50    17    48    1
    51    28    49    1
@<TRIPOS>MOLECULE
mol99_1_21
 49 51 0 0 0
SMALL
USER_CHARGES
****
VDW energy = 199.13
@<TRIPOS>ATOM
   1 O1        0.9439    -9.6922    -5.8421  O.2     1  <O>11      -0.2687
   2 C1        1.5306    -9.0649    -6.7113  C.2     1  <O>11       0.2602
   3 N1        2.8490    -8.7350    -6.5460  N.am    1  <O>11      -0.2301
   4 N2        3.5086    -8.0297    -7.5235  N.am    1  <O>11      -0.2300
   5 C2        3.6184    -8.5498    -8.7857  C.2     1  <O>11       0.2637
   6 O2        3.1294    -9.6402    -9.0415  O.2     1  <O>11      -0.2685
   7 C3        4.3125    -7.8095    -9.8160  C.ar    1  <O>11       0.0795
   8 C4        3.5985    -6.9163   -10.6164  C.ar    1  <O>11      -0.0460
   9 C5        4.2597    -6.2058   -11.6233  C.ar    1  <O>11      -0.0608
  10 C6        5.6314    -6.3848   -11.8250  C.ar    1  <O>11      -0.0583
  11 C7        6.3368    -7.2783   -11.0104  C.ar    1  <O>11      -0.0194
  12 C8        5.6847    -7.9894   -10.0023  C.ar    1  <O>11       0.1290
  13 O3        6.3380    -8.8115    -9.2437  O.3     1  <O>11      -0.5060
  14 C9        0.8270    -8.6680    -7.9240  C.ar    1  <O>11       0.0400
  15 C10       0.1579    -7.4341    -7.9833  C.ar    1  <O>11      -0.0495
  16 C11      -0.5270    -7.0585    -9.1447  C.ar    1  <O>11      -0.0592
  17 C12      -0.5475    -7.9067   -10.2546  C.ar    1  <O>11      -0.0353
  18 C13       0.1255    -9.1327   -10.1976  C.ar    1  <O>11       0.1062
  19 S1        0.0986   -10.1960   -11.6000  S.O2    1  <O>11       0.0609
  20 O4       -1.4672   -10.3864   -12.1204  O.2     1  <O>11      -0.1528
  21 O5        0.7284   -11.6756   -11.1846  O.2     1  <O>11      -0.1528
  22 N3        1.0046    -9.5336   -12.8121  N.3     1  <O>11      -0.1766
  23 C14       0.8351   -10.3551   -14.0435  C.3     1  <O>11       0.0205
  24 C15       1.3865   -11.7639   -13.8551  C.3     1  <O>11      -0.0385
  25 C16       2.8521   -11.7241   -13.4345  C.3     1  <O>11      -0.0506
  26 C17       3.0395   -10.8589   -12.1940  C.3     1  <O>11      -0.0385
  27 C18       2.4273    -9.4741   -12.3712  C.3     1  <O>11       0.0205
  28 C19       0.8119    -9.5151    -9.0439  C.ar    1  <O>11      -0.0232
  29 H1        3.3417    -9.0114    -5.6974  H       1  <O>11       0.1731
  30 H2        3.9166    -7.1199    -7.3102  H       1  <O>11       0.1731
  31 H3        5.7304    -9.2140    -8.6049  H       1  <O>11       0.2922
  32 H4       -0.2269   -10.4199   -14.2821  H       1  <O>11       0.0444
  33 H5        1.3643    -9.8752   -14.8658  H       1  <O>11       0.0444
  34 H6        0.8069   -12.2744   -13.0843  H       1  <O>11       0.0278
  35 H7        1.2991   -12.3083   -14.7953  H       1  <O>11       0.0278
  36 H8        3.1884   -12.7382   -13.2156  H       1  <O>11       0.0266
  37 H9        3.4470   -11.3109   -14.2501  H       1  <O>11       0.0266
  38 H10       2.5613   -11.3488   -11.3460  H       1  <O>11       0.0278
  39 H11       4.1061   -10.7503   -11.9972  H       1  <O>11       0.0278
  40 H12       2.4765    -8.9455   -11.4194  H       1  <O>11       0.0444
  41 H13       3.0027    -8.9293   -13.1189  H       1  <O>11       0.0444
  42 H14       2.5866    -6.7808   -10.4656  H       1  <O>11       0.0626
  43 H15       3.7335    -5.5476   -12.2191  H       1  <O>11       0.0618
  44 H16       6.1202    -5.8622   -12.5686  H       1  <O>11       0.0619
  45 H17       7.3496    -7.4124   -11.1569  H       1  <O>11       0.0654
  46 H18       0.1715    -6.8022    -7.1675  H       1  <O>11       0.0625
  47 H19      -1.0186    -6.1519    -9.1812  H       1  <O>11       0.0618
  48 H20      -1.0550    -7.6314   -11.1100  H       1  <O>11       0.0637
  49 H21       1.3079   -10.4196    -9.0139  H       1  <O>11       0.0644
@<TRIPOS>BOND
     1     1     2    2
     2     2     3   am
     3     3     4    1
     4     4     5   am
     5     5     6    2
     6     5     7    1
     7     7     8   ar
     8     8     9   ar
     9     9    10   ar
    10    10    11   ar
    11    11    12   ar
    12     7    12   ar
    13    12    13    1
    14     2    14    1
    15    14    15   ar
    16    15    16   ar
    17    16    17   ar
    18    17    18   ar
    19    18    19    1
    20    19    20    2
    21    19    21    2
    22    19    22    1
    23    22    23    1
    24    23    24    1
    25    24    25    1
    26    25    26    1
    27    26    27    1
    28    22    27    1
    29    18    28   ar
    30    14    28   ar
    31     3    29    1
    32     4    30    1
    33    13    31    1
    34    23    32    1
    35    23    33    1
    36    24    34    1
    37    24    35    1
    38    25    36    1
    39    25    37    1
    40    26    38    1
    41    26    39    1
    42    27    40    1
    43    27    41    1
    44     8    42    1
    45     9    43    1
    46    10    44    1
    47    11    45    1
    48    15    46    1
    49    16    47    1
    50    17    48    1
    51    28    49    1
@<TRIPOS>MOLECULE
mol99_1_22
 49 51 0 0 0
SMALL
USER_CHARGES
****
VDW energy = 199.51
@<TRIPOS>ATOM
   1 O1        0.9439    -9.6922    -5.8421  O.2     1  <O>11      -0.2687
   2 C1        1.5306    -9.0649    -6.7113  C.2     1  <O>11       0.2602
   3 N1        2.8490    -8.7350    -6.5460  N.am    1  <O>11      -0.2301
   4 N2        3.5086    -8.0297    -7.5235  N.am    1  <O>11      -0.2300
   5 C2        4.8472    -7.7707    -7.3946  C.2     1  <O>11       0.2637
   6 O2        5.4341    -7.1434    -8.2637  O.2     1  <O>11      -0.2685
   7 C3        5.5665    -8.2389    -6.2306  C.ar    1  <O>11       0.0795
   8 C4        5.6487    -7.4217    -5.1020  C.ar    1  <O>11      -0.0460
   9 C5        6.3531    -7.8616    -3.9768  C.ar    1  <O>11      -0.0608
  10 C6        6.9685    -9.1168    -3.9793  C.ar    1  <O>11      -0.0583
  11 C7        6.8722    -9.9292    -5.1151  C.ar    1  <O>11      -0.0194
  12 C8        6.1694    -9.4983    -6.2410  C.ar    1  <O>11       0.1290
  13 O3        6.0741   -10.2523    -7.2902  O.3     1  <O>11      -0.5060
  14 C9        0.8270    -8.6680    -7.9240  C.ar    1  <O>11       0.0400
  15 C10       1.0537    -7.4037    -8.4931  C.ar    1  <O>11      -0.0495
  16 C11       0.3692    -7.0190    -9.6517  C.ar    1  <O>11      -0.0592
  17 C12      -0.5422    -7.8908   -10.2525  C.ar    1  <O>11      -0.0353
  18 C13      -0.7623    -9.1533    -9.6893  C.ar    1  <O>11       0.1062
  19 S1       -1.9095   -10.2486   -10.4521  S.O2    1  <O>11       0.0609
  20 O4       -3.3390    -9.4491   -10.7276  O.2     1  <O>11      -0.1528
  21 O5       -2.1839   -11.5463    -9.4526  O.2     1  <O>11      -0.1528
  22 N3       -1.2917   -10.7820   -11.8884  N.3     1  <O>11      -0.1766
  23 C14      -2.3381   -11.5688   -12.5997  C.3     1  <O>11       0.0205
  24 C15      -2.7078   -12.8312   -11.8289  C.3     1  <O>11      -0.0385
  25 C16      -1.4754   -13.6910   -11.5674  C.3     1  <O>11      -0.0506
  26 C17      -0.3869   -12.8848   -10.8690  C.3     1  <O>11      -0.0385
  27 C18      -0.0715   -11.5933   -11.6150  C.3     1  <O>11       0.0205
  28 C19      -0.0834    -9.5458    -8.5345  C.ar    1  <O>11      -0.0232
  29 H1        3.3417    -9.0114    -5.6974  H       1  <O>11       0.1731
  30 H2        3.0025    -7.6987    -8.3446  H       1  <O>11       0.1731
  31 H3        5.5555    -9.7959    -7.9700  H       1  <O>11       0.2922
  32 H4       -3.2290   -10.9506   -12.7140  H       1  <O>11       0.0444
  33 H5       -1.9627   -11.8516   -13.5824  H       1  <O>11       0.0444
  34 H6       -3.1560   -12.5490   -10.8749  H       1  <O>11       0.0278
  35 H7       -3.4272   -13.4057   -12.4123  H       1  <O>11       0.0278
  36 H8       -1.7557   -14.5339   -10.9347  H       1  <O>11       0.0266
  37 H9       -1.0896   -14.0615   -12.5182  H       1  <O>11       0.0266
  38 H10      -0.7223   -12.6363    -9.8622  H       1  <O>11       0.0278
  39 H11       0.5184   -13.4892   -10.8120  H       1  <O>11       0.0278
  40 H12       0.6151   -10.9997   -11.0117  H       1  <O>11       0.0444
  41 H13       0.4023   -11.8431   -12.5638  H       1  <O>11       0.0444
  42 H14       5.1914    -6.4965    -5.0980  H       1  <O>11       0.0626
  43 H15       6.4188    -7.2579    -3.1423  H       1  <O>11       0.0618
  44 H16       7.4899    -9.4420    -3.1501  H       1  <O>11       0.0619
  45 H17       7.3254   -10.8564    -5.1199  H       1  <O>11       0.0654
  46 H18       1.7275    -6.7562    -8.0552  H       1  <O>11       0.0625
  47 H19       0.5383    -6.0880   -10.0636  H       1  <O>11       0.0618
  48 H20      -1.0493    -7.6063   -11.1050  H       1  <O>11       0.0637
  49 H21      -0.2503   -10.4803    -8.1297  H       1  <O>11       0.0644
@<TRIPOS>BOND
     1     1     2    2
     2     2     3   am
     3     3     4    1
     4     4     5   am
     5     5     6    2
     6     5     7    1
     7     7     8   ar
     8     8     9   ar
     9     9    10   ar
    10    10    11   ar
    11    11    12   ar
    12     7    12   ar
    13    12    13    1
    14     2    14    1
    15    14    15   ar
    16    15    16   ar
    17    16    17   ar
    18    17    18   ar
    19    18    19    1
    20    19    20    2
    21    19    21    2
    22    19    22    1
    23    22    23    1
    24    23    24    1
    25    24    25    1
    26    25    26    1
    27    26    27    1
    28    22    27    1
    29    18    28   ar
    30    14    28   ar
    31     3    29    1
    32     4    30    1
    33    13    31    1
    34    23    32    1
    35    23    33    1
    36    24    34    1
    37    24    35    1
    38    25    36    1
    39    25    37    1
    40    26    38    1
    41    26    39    1
    42    27    40    1
    43    27    41    1
    44     8    42    1
    45     9    43    1
    46    10    44    1
    47    11    45    1
    48    15    46    1
    49    16    47    1
    50    17    48    1
    51    28    49    1
@<TRIPOS>MOLECULE
mol99_1_23
 49 51 0 0 0
SMALL
USER_CHARGES
****
VDW energy = 199.77
@<TRIPOS>ATOM
   1 O1        0.9439    -9.6922    -5.8421  O.2     1  <O>11      -0.2687
   2 C1        1.5306    -9.0649    -6.7113  C.2     1  <O>11       0.2602
   3 N1        2.8490    -8.7350    -6.5460  N.am    1  <O>11      -0.2301
   4 N2        3.5086    -8.0297    -7.5235  N.am    1  <O>11      -0.2300
   5 C2        4.8472    -7.7707    -7.3946  C.2     1  <O>11       0.2637
   6 O2        5.4538    -8.1674    -6.4106  O.2     1  <O>11      -0.2685
   7 C3        5.5433    -7.0282    -8.4220  C.ar    1  <O>11       0.0795
   8 C4        5.2943    -5.6626    -8.5676  C.ar    1  <O>11      -0.0460
   9 C5        5.9539    -4.9398    -9.5668  C.ar    1  <O>11      -0.0608
  10 C6        6.8631    -5.5805   -10.4137  C.ar    1  <O>11      -0.0583
  11 C7        7.1089    -6.9490   -10.2520  C.ar    1  <O>11      -0.0194
  12 C8        6.4563    -7.6766    -9.2561  C.ar    1  <O>11       0.1290
  13 O3        6.6882    -8.9418    -9.1015  O.3     1  <O>11      -0.5060
  14 C9        0.8270    -8.6680    -7.9240  C.ar    1  <O>11       0.0400
  15 C10       1.0537    -7.4037    -8.4931  C.ar    1  <O>11      -0.0495
  16 C11       0.3692    -7.0190    -9.6517  C.ar    1  <O>11      -0.0592
  17 C12      -0.5422    -7.8908   -10.2525  C.ar    1  <O>11      -0.0353
  18 C13      -0.7623    -9.1533    -9.6893  C.ar    1  <O>11       0.1062
  19 S1       -1.9095   -10.2486   -10.4521  S.O2    1  <O>11       0.0609
  20 O4       -3.3390    -9.4491   -10.7276  O.2     1  <O>11      -0.1528
  21 O5       -2.1839   -11.5463    -9.4526  O.2     1  <O>11      -0.1528
  22 N3       -1.2917   -10.7820   -11.8884  N.3     1  <O>11      -0.1766
  23 C14      -2.3381   -11.5688   -12.5997  C.3     1  <O>11       0.0205
  24 C15      -2.7078   -12.8312   -11.8289  C.3     1  <O>11      -0.0385
  25 C16      -1.4754   -13.6910   -11.5674  C.3     1  <O>11      -0.0506
  26 C17      -0.3869   -12.8848   -10.8690  C.3     1  <O>11      -0.0385
  27 C18      -0.0715   -11.5933   -11.6150  C.3     1  <O>11       0.0205
  28 C19      -0.0834    -9.5458    -8.5345  C.ar    1  <O>11      -0.0232
  29 H1        3.3417    -9.0114    -5.6974  H       1  <O>11       0.1731
  30 H2        3.0025    -7.6987    -8.3446  H       1  <O>11       0.1731
  31 H3        6.1514    -9.2815    -8.3696  H       1  <O>11       0.2922
  32 H4       -3.2290   -10.9506   -12.7140  H       1  <O>11       0.0444
  33 H5       -1.9627   -11.8516   -13.5824  H       1  <O>11       0.0444
  34 H6       -3.1560   -12.5490   -10.8749  H       1  <O>11       0.0278
  35 H7       -3.4272   -13.4057   -12.4123  H       1  <O>11       0.0278
  36 H8       -1.7557   -14.5339   -10.9347  H       1  <O>11       0.0266
  37 H9       -1.0896   -14.0615   -12.5182  H       1  <O>11       0.0266
  38 H10      -0.7223   -12.6363    -9.8622  H       1  <O>11       0.0278
  39 H11       0.5184   -13.4892   -10.8120  H       1  <O>11       0.0278
  40 H12       0.6151   -10.9997   -11.0117  H       1  <O>11       0.0444
  41 H13       0.4023   -11.8431   -12.5638  H       1  <O>11       0.0444
  42 H14       4.6261    -5.1882    -7.9403  H       1  <O>11       0.0626
  43 H15       5.7689    -3.9307    -9.6793  H       1  <O>11       0.0618
  44 H16       7.3493    -5.0485   -11.1524  H       1  <O>11       0.0619
  45 H17       7.7796    -7.4246   -10.8757  H       1  <O>11       0.0654
  46 H18       1.7275    -6.7562    -8.0552  H       1  <O>11       0.0625
  47 H19       0.5383    -6.0880   -10.0636  H       1  <O>11       0.0618
  48 H20      -1.0493    -7.6063   -11.1050  H       1  <O>11       0.0637
  49 H21      -0.2503   -10.4803    -8.1297  H       1  <O>11       0.0644
@<TRIPOS>BOND
     1     1     2    2
     2     2     3   am
     3     3     4    1
     4     4     5   am
     5     5     6    2
     6     5     7    1
     7     7     8   ar
     8     8     9   ar
     9     9    10   ar
    10    10    11   ar
    11    11    12   ar
    12     7    12   ar
    13    12    13    1
    14     2    14    1
    15    14    15   ar
    16    15    16   ar
    17    16    17   ar
    18    17    18   ar
    19    18    19    1
    20    19    20    2
    21    19    21    2
    22    19    22    1
    23    22    23    1
    24    23    24    1
    25    24    25    1
    26    25    26    1
    27    26    27    1
    28    22    27    1
    29    18    28   ar
    30    14    28   ar
    31     3    29    1
    32     4    30    1
    33    13    31    1
    34    23    32    1
    35    23    33    1
    36    24    34    1
    37    24    35    1
    38    25    36    1
    39    25    37    1
    40    26    38    1
    41    26    39    1
    42    27    40    1
    43    27    41    1
    44     8    42    1
    45     9    43    1
    46    10    44    1
    47    11    45    1
    48    15    46    1
    49    16    47    1
    50    17    48    1
    51    28    49    1
@<TRIPOS>MOLECULE
mol99_1_24
 49 51 0 0 0
SMALL
USER_CHARGES
****
VDW energy = 200.04
@<TRIPOS>ATOM
   1 O1        0.9439    -9.6922    -5.8421  O.2     1  <O>11      -0.2687
   2 C1        1.5306    -9.0649    -6.7113  C.2     1  <O>11       0.2602
   3 N1        2.8490    -8.7350    -6.5460  N.am    1  <O>11      -0.2301
   4 N2        3.5086    -8.0297    -7.5235  N.am    1  <O>11      -0.2300
   5 C2        4.8472    -7.7707    -7.3946  C.2     1  <O>11       0.2637
   6 O2        5.4538    -8.1674    -6.4106  O.2     1  <O>11      -0.2685
   7 C3        5.5433    -7.0282    -8.4220  C.ar    1  <O>11       0.0795
   8 C4        5.2943    -5.6626    -8.5676  C.ar    1  <O>11      -0.0460
   9 C5        5.9539    -4.9398    -9.5668  C.ar    1  <O>11      -0.0608
  10 C6        6.8631    -5.5805   -10.4137  C.ar    1  <O>11      -0.0583
  11 C7        7.1089    -6.9490   -10.2520  C.ar    1  <O>11      -0.0194
  12 C8        6.4563    -7.6766    -9.2561  C.ar    1  <O>11       0.1290
  13 O3        6.6882    -8.9418    -9.1015  O.3     1  <O>11      -0.5060
  14 C9        0.8270    -8.6680    -7.9240  C.ar    1  <O>11       0.0400
  15 C10       1.0537    -7.4037    -8.4931  C.ar    1  <O>11      -0.0495
  16 C11       0.3692    -7.0190    -9.6517  C.ar    1  <O>11      -0.0592
  17 C12      -0.5422    -7.8908   -10.2525  C.ar    1  <O>11      -0.0353
  18 C13      -0.7623    -9.1533    -9.6893  C.ar    1  <O>11       0.1062
  19 S1       -1.9095   -10.2486   -10.4521  S.O2    1  <O>11       0.0609
  20 O4       -1.4430   -11.8187   -10.1767  O.2     1  <O>11      -0.1528
  21 O5       -1.9466    -9.9601   -12.0873  O.2     1  <O>11      -0.1528
  22 N3       -3.4142   -10.0020    -9.8162  N.3     1  <O>11      -0.1766
  23 C14      -4.3368   -11.0457   -10.3447  C.3     1  <O>11       0.0205
  24 C15      -4.5142   -10.9217   -11.8538  C.3     1  <O>11      -0.0385
  25 C16      -5.0072    -9.5288   -12.2323  C.3     1  <O>11      -0.0506
  26 C17      -4.0868    -8.4533   -11.6678  C.3     1  <O>11      -0.0385
  27 C18      -3.8656    -8.6260   -10.1695  C.3     1  <O>11       0.0205
  28 C19      -0.0834    -9.5458    -8.5345  C.ar    1  <O>11      -0.0232
  29 H1        3.3417    -9.0114    -5.6974  H       1  <O>11       0.1731
  30 H2        3.0025    -7.6987    -8.3446  H       1  <O>11       0.1731
  31 H3        6.1514    -9.2815    -8.3696  H       1  <O>11       0.2922
  32 H4       -3.9258   -12.0296   -10.1166  H       1  <O>11       0.0444
  33 H5       -5.3083   -10.9367    -9.8642  H       1  <O>11       0.0444
  34 H6       -3.5565   -11.1073   -12.3428  H       1  <O>11       0.0278
  35 H7       -5.2418   -11.6614   -12.1880  H       1  <O>11       0.0278
  36 H8       -5.0319    -9.4418   -13.3191  H       1  <O>11       0.0266
  37 H9       -6.0115    -9.3840   -11.8321  H       1  <O>11       0.0266
  38 H10      -3.1234    -8.5111   -12.1743  H       1  <O>11       0.0278
  39 H11      -4.5342    -7.4757   -11.8478  H       1  <O>11       0.0278
  40 H12      -3.1069    -7.9148    -9.8435  H       1  <O>11       0.0444
  41 H13      -4.8016    -8.4211    -9.6509  H       1  <O>11       0.0444
  42 H14       4.6261    -5.1882    -7.9403  H       1  <O>11       0.0626
  43 H15       5.7689    -3.9307    -9.6793  H       1  <O>11       0.0618
  44 H16       7.3493    -5.0485   -11.1524  H       1  <O>11       0.0619
  45 H17       7.7796    -7.4246   -10.8757  H       1  <O>11       0.0654
  46 H18       1.7275    -6.7562    -8.0552  H       1  <O>11       0.0625
  47 H19       0.5383    -6.0880   -10.0636  H       1  <O>11       0.0618
  48 H20      -1.0493    -7.6063   -11.1050  H       1  <O>11       0.0637
  49 H21      -0.2503   -10.4803    -8.1297  H       1  <O>11       0.0644
@<TRIPOS>BOND
     1     1     2    2
     2     2     3   am
     3     3     4    1
     4     4     5   am
     5     5     6    2
     6     5     7    1
     7     7     8   ar
     8     8     9   ar
     9     9    10   ar
    10    10    11   ar
    11    11    12   ar
    12     7    12   ar
    13    12    13    1
    14     2    14    1
    15    14    15   ar
    16    15    16   ar
    17    16    17   ar
    18    17    18   ar
    19    18    19    1
    20    19    20    2
    21    19    21    2
    22    19    22    1
    23    22    23    1
    24    23    24    1
    25    24    25    1
    26    25    26    1
    27    26    27    1
    28    22    27    1
    29    18    28   ar
    30    14    28   ar
    31     3    29    1
    32     4    30    1
    33    13    31    1
    34    23    32    1
    35    23    33    1
    36    24    34    1
    37    24    35    1
    38    25    36    1
    39    25    37    1
    40    26    38    1
    41    26    39    1
    42    27    40    1
    43    27    41    1
    44     8    42    1
    45     9    43    1
    46    10    44    1
    47    11    45    1
    48    15    46    1
    49    16    47    1
    50    17    48    1
    51    28    49    1
@<TRIPOS>MOLECULE
mol99_1_25
 49 51 0 0 0
SMALL
USER_CHARGES
****
VDW energy = 200.47
@<TRIPOS>ATOM
   1 O1        0.9439    -9.6922    -5.8421  O.2     1  <O>11      -0.2687
   2 C1        1.5306    -9.0649    -6.7113  C.2     1  <O>11       0.2602
   3 N1        2.8490    -8.7350    -6.5460  N.am    1  <O>11      -0.2301
   4 N2        3.5086    -8.0297    -7.5235  N.am    1  <O>11      -0.2300
   5 C2        4.8472    -7.7707    -7.3946  C.2     1  <O>11       0.2637
   6 O2        5.4538    -8.1674    -6.4106  O.2     1  <O>11      -0.2685
   7 C3        5.5433    -7.0282    -8.4220  C.ar    1  <O>11       0.0795
   8 C4        6.1280    -7.7159    -9.4865  C.ar    1  <O>11      -0.0460
   9 C5        6.8139    -7.0066   -10.4777  C.ar    1  <O>11      -0.0608
  10 C6        6.9098    -5.6138   -10.4061  C.ar    1  <O>11      -0.0583
  11 C7        6.3126    -4.9360    -9.3369  C.ar    1  <O>11      -0.0194
  12 C8        5.6248    -5.6364    -8.3452  C.ar    1  <O>11       0.1290
  13 O3        5.0661    -5.0093    -7.3588  O.3     1  <O>11      -0.5060
  14 C9        0.8270    -8.6680    -7.9240  C.ar    1  <O>11       0.0400
  15 C10       1.0537    -7.4037    -8.4931  C.ar    1  <O>11      -0.0495
  16 C11       0.3692    -7.0190    -9.6517  C.ar    1  <O>11      -0.0592
  17 C12      -0.5422    -7.8908   -10.2525  C.ar    1  <O>11      -0.0353
  18 C13      -0.7623    -9.1533    -9.6893  C.ar    1  <O>11       0.1062
  19 S1       -1.9095   -10.2486   -10.4521  S.O2    1  <O>11       0.0609
  20 O4       -3.3390    -9.4491   -10.7276  O.2     1  <O>11      -0.1528
  21 O5       -2.1839   -11.5463    -9.4526  O.2     1  <O>11      -0.1528
  22 N3       -1.2917   -10.7820   -11.8884  N.3     1  <O>11      -0.1766
  23 C14      -2.3381   -11.5688   -12.5997  C.3     1  <O>11       0.0205
  24 C15      -2.7078   -12.8312   -11.8289  C.3     1  <O>11      -0.0385
  25 C16      -1.4754   -13.6910   -11.5674  C.3     1  <O>11      -0.0506
  26 C17      -0.3869   -12.8848   -10.8690  C.3     1  <O>11      -0.0385
  27 C18      -0.0715   -11.5933   -11.6150  C.3     1  <O>11       0.0205
  28 C19      -0.0834    -9.5458    -8.5345  C.ar    1  <O>11      -0.0232
  29 H1        3.3417    -9.0114    -5.6974  H       1  <O>11       0.1731
  30 H2        3.0025    -7.6987    -8.3446  H       1  <O>11       0.1731
  31 H3        4.6374    -5.6492    -6.7704  H       1  <O>11       0.2922
  32 H4       -3.2290   -10.9506   -12.7140  H       1  <O>11       0.0444
  33 H5       -1.9627   -11.8516   -13.5824  H       1  <O>11       0.0444
  34 H6       -3.1560   -12.5490   -10.8749  H       1  <O>11       0.0278
  35 H7       -3.4272   -13.4057   -12.4123  H       1  <O>11       0.0278
  36 H8       -1.7557   -14.5339   -10.9347  H       1  <O>11       0.0266
  37 H9       -1.0896   -14.0615   -12.5182  H       1  <O>11       0.0266
  38 H10      -0.7223   -12.6363    -9.8622  H       1  <O>11       0.0278
  39 H11       0.5184   -13.4892   -10.8120  H       1  <O>11       0.0278
  40 H12       0.6151   -10.9997   -11.0117  H       1  <O>11       0.0444
  41 H13       0.4023   -11.8431   -12.5638  H       1  <O>11       0.0444
  42 H14       6.0545    -8.7438    -9.5421  H       1  <O>11       0.0626
  43 H15       7.2505    -7.5128   -11.2640  H       1  <O>11       0.0618
  44 H16       7.4169    -5.0893   -11.1361  H       1  <O>11       0.0619
  45 H17       6.3816    -3.9077    -9.2815  H       1  <O>11       0.0654
  46 H18       1.7275    -6.7562    -8.0552  H       1  <O>11       0.0625
  47 H19       0.5383    -6.0880   -10.0636  H       1  <O>11       0.0618
  48 H20      -1.0493    -7.6063   -11.1050  H       1  <O>11       0.0637
  49 H21      -0.2503   -10.4803    -8.1297  H       1  <O>11       0.0644
@<TRIPOS>BOND
     1     1     2    2
     2     2     3   am
     3     3     4    1
     4     4     5   am
     5     5     6    2
     6     5     7    1
     7     7     8   ar
     8     8     9   ar
     9     9    10   ar
    10    10    11   ar
    11    11    12   ar
    12     7    12   ar
    13    12    13    1
    14     2    14    1
    15    14    15   ar
    16    15    16   ar
    17    16    17   ar
    18    17    18   ar
    19    18    19    1
    20    19    20    2
    21    19    21    2
    22    19    22    1
    23    22    23    1
    24    23    24    1
    25    24    25    1
    26    25    26    1
    27    26    27    1
    28    22    27    1
    29    18    28   ar
    30    14    28   ar
    31     3    29    1
    32     4    30    1
    33    13    31    1
    34    23    32    1
    35    23    33    1
    36    24    34    1
    37    24    35    1
    38    25    36    1
    39    25    37    1
    40    26    38    1
    41    26    39    1
    42    27    40    1
    43    27    41    1
    44     8    42    1
    45     9    43    1
    46    10    44    1
    47    11    45    1
    48    15    46    1
    49    16    47    1
    50    17    48    1
    51    28    49    1
@<TRIPOS>MOLECULE
mol99_1_26
 49 51 0 0 0
SMALL
USER_CHARGES
****
VDW energy = 209.73
@<TRIPOS>ATOM
   1 O1        0.9439    -9.6922    -5.8421  O.2     1  <O>11      -0.2687
   2 C1        1.5306    -9.0649    -6.7113  C.2     1  <O>11       0.2602
   3 N1        2.8490    -8.7350    -6.5460  N.am    1  <O>11      -0.2301
   4 N2        3.5086    -8.0297    -7.5235  N.am    1  <O>11      -0.2300
   5 C2        4.8472    -7.7707    -7.3946  C.2     1  <O>11       0.2637
   6 O2        5.4538    -8.1674    -6.4106  O.2     1  <O>11      -0.2685
   7 C3        5.5433    -7.0282    -8.4220  C.ar    1  <O>11       0.0795
   8 C4        6.1280    -7.7159    -9.4865  C.ar    1  <O>11      -0.0460
   9 C5        6.8139    -7.0066   -10.4777  C.ar    1  <O>11      -0.0608
  10 C6        6.9098    -5.6138   -10.4061  C.ar    1  <O>11      -0.0583
  11 C7        6.3126    -4.9360    -9.3369  C.ar    1  <O>11      -0.0194
  12 C8        5.6248    -5.6364    -8.3452  C.ar    1  <O>11       0.1290
  13 O3        5.0661    -5.0093    -7.3588  O.3     1  <O>11      -0.5060
  14 C9        0.8270    -8.6680    -7.9240  C.ar    1  <O>11       0.0400
  15 C10       1.0537    -7.4037    -8.4931  C.ar    1  <O>11      -0.0495
  16 C11       0.3692    -7.0190    -9.6517  C.ar    1  <O>11      -0.0592
  17 C12      -0.5422    -7.8908   -10.2525  C.ar    1  <O>11      -0.0353
  18 C13      -0.7623    -9.1533    -9.6893  C.ar    1  <O>11       0.1062
  19 S1       -1.9095   -10.2486   -10.4521  S.O2    1  <O>11       0.0609
  20 O4       -3.3390    -9.4491   -10.7276  O.2     1  <O>11      -0.1528
  21 O5       -2.1839   -11.5463    -9.4526  O.2     1  <O>11      -0.1528
  22 N3       -1.2917   -10.7820   -11.8884  N.3     1  <O>11      -0.1766
  23 C14      -1.0505    -9.6083   -12.7739  C.3     1  <O>11       0.0205
  24 C15      -2.3536    -8.9042   -13.1350  C.3     1  <O>11      -0.0385
  25 C16      -3.3353    -9.8737   -13.7852  C.3     1  <O>11      -0.0506
  26 C17      -3.5629   -11.0935   -12.9004  C.3     1  <O>11      -0.0385
  27 C18      -2.2494   -11.7511   -12.4931  C.3     1  <O>11       0.0205
  28 C19      -0.0834    -9.5458    -8.5345  C.ar    1  <O>11      -0.0232
  29 H1        3.3417    -9.0114    -5.6974  H       1  <O>11       0.1731
  30 H2        3.0025    -7.6987    -8.3446  H       1  <O>11       0.1731
  31 H3        4.6374    -5.6492    -6.7704  H       1  <O>11       0.2922
  32 H4       -0.3988    -8.9032   -12.2570  H       1  <O>11       0.0444
  33 H5       -0.5666    -9.9477   -13.6889  H       1  <O>11       0.0444
  34 H6       -2.8021    -8.4955   -12.2281  H       1  <O>11       0.0278
  35 H7       -2.1382    -8.0933   -13.8308  H       1  <O>11       0.0278
  36 H8       -4.2873    -9.3656   -13.9430  H       1  <O>11       0.0266
  37 H9       -2.9328   -10.2001   -14.7450  H       1  <O>11       0.0266
  38 H10      -4.0945   -10.7833   -12.0009  H       1  <O>11       0.0278
  39 H11      -4.1657   -11.8187   -13.4472  H       1  <O>11       0.0278
  40 H12      -2.4611   -12.5340   -11.7651  H       1  <O>11       0.0444
  41 H13      -1.7893   -12.1923   -13.3768  H       1  <O>11       0.0444
  42 H14       6.0545    -8.7438    -9.5421  H       1  <O>11       0.0626
  43 H15       7.2505    -7.5128   -11.2640  H       1  <O>11       0.0618
  44 H16       7.4169    -5.0893   -11.1361  H       1  <O>11       0.0619
  45 H17       6.3816    -3.9077    -9.2815  H       1  <O>11       0.0654
  46 H18       1.7275    -6.7562    -8.0552  H       1  <O>11       0.0625
  47 H19       0.5383    -6.0880   -10.0636  H       1  <O>11       0.0618
  48 H20      -1.0493    -7.6063   -11.1050  H       1  <O>11       0.0637
  49 H21      -0.2503   -10.4803    -8.1297  H       1  <O>11       0.0644
@<TRIPOS>BOND
     1     1     2    2
     2     2     3   am
     3     3     4    1
     4     4     5   am
     5     5     6    2
     6     5     7    1
     7     7     8   ar
     8     8     9   ar
     9     9    10   ar
    10    10    11   ar
    11    11    12   ar
    12     7    12   ar
    13    12    13    1
    14     2    14    1
    15    14    15   ar
    16    15    16   ar
    17    16    17   ar
    18    17    18   ar
    19    18    19    1
    20    19    20    2
    21    19    21    2
    22    19    22    1
    23    22    23    1
    24    23    24    1
    25    24    25    1
    26    25    26    1
    27    26    27    1
    28    22    27    1
    29    18    28   ar
    30    14    28   ar
    31     3    29    1
    32     4    30    1
    33    13    31    1
    34    23    32    1
    35    23    33    1
    36    24    34    1
    37    24    35    1
    38    25    36    1
    39    25    37    1
    40    26    38    1
    41    26    39    1
    42    27    40    1
    43    27    41    1
    44     8    42    1
    45     9    43    1
    46    10    44    1
    47    11    45    1
    48    15    46    1
    49    16    47    1
    50    17    48    1
    51    28    49    1
@<TRIPOS>MOLECULE
mol99_1_27
 49 51 0 0 0
SMALL
USER_CHARGES
****
VDW energy = 214.82
@<TRIPOS>ATOM
   1 O1        0.9439    -9.6922    -5.8421  O.2     1  <O>11      -0.2687
   2 C1        1.5306    -9.0649    -6.7113  C.2     1  <O>11       0.2602
   3 N1        2.8490    -8.7350    -6.5460  N.am    1  <O>11      -0.2301
   4 N2        3.5130    -9.1100    -5.4030  N.am    1  <O>11      -0.2300
   5 C2        4.8073    -8.7102    -5.2018  C.2     1  <O>11       0.2637
   6 O2        5.3703    -8.0201    -6.0386  O.2     1  <O>11      -0.2685
   7 C3        5.5083    -9.1041    -3.9997  C.ar    1  <O>11       0.0795
   8 C4        6.3444    -8.1858    -3.3627  C.ar    1  <O>11      -0.0460
   9 C5        7.0357    -8.5626    -2.2068  C.ar    1  <O>11      -0.0608
  10 C6        6.8867    -9.8520    -1.6877  C.ar    1  <O>11      -0.0583
  11 C7        6.0395   -10.7608    -2.3325  C.ar    1  <O>11      -0.0194
  12 C8        5.3447   -10.3918    -3.4850  C.ar    1  <O>11       0.1290
  13 O3        4.5552   -11.2300    -4.0786  O.3     1  <O>11      -0.5060
  14 C9        0.8270    -8.6680    -7.9240  C.ar    1  <O>11       0.0400
  15 C10       0.1579    -7.4341    -7.9833  C.ar    1  <O>11      -0.0495
  16 C11      -0.5270    -7.0585    -9.1447  C.ar    1  <O>11      -0.0592
  17 C12      -0.5475    -7.9067   -10.2546  C.ar    1  <O>11      -0.0353
  18 C13       0.1255    -9.1327   -10.1976  C.ar    1  <O>11       0.1062
  19 S1        0.0986   -10.1960   -11.6000  S.O2    1  <O>11       0.0609
  20 O4        0.9670   -11.5723   -11.2679  O.2     1  <O>11      -0.1528
  21 O5        0.7745    -9.4143   -12.9001  O.2     1  <O>11      -0.1528
  22 N3       -1.4629   -10.6027   -11.9541  N.3     1  <O>11      -0.1766
  23 C14      -1.4595   -11.6324   -13.0309  C.3     1  <O>11       0.0205
  24 C15      -0.8848   -11.0796   -14.3303  C.3     1  <O>11      -0.0385
  25 C16      -1.6474    -9.8372   -14.7789  C.3     1  <O>11      -0.0506
  26 C17      -1.6839    -8.7910   -13.6713  C.3     1  <O>11      -0.0385
  27 C18      -2.1998    -9.3721   -12.3597  C.3     1  <O>11       0.0205
  28 C19       0.8119    -9.5151    -9.0439  C.ar    1  <O>11      -0.0232
  29 H1        3.3390    -8.2120    -7.2710  H       1  <O>11       0.1731
  30 H2        3.0434    -9.6859    -4.7047  H       1  <O>11       0.1731
  31 H3        4.1604   -10.8069    -4.8560  H       1  <O>11       0.2922
  32 H4       -0.8536   -12.4796   -12.7083  H       1  <O>11       0.0444
  33 H5       -2.4821   -11.9631   -13.2089  H       1  <O>11       0.0444
  34 H6        0.1634   -10.8192   -14.1752  H       1  <O>11       0.0278
  35 H7       -0.9585   -11.8432   -15.1046  H       1  <O>11       0.0278
  36 H8       -1.1546    -9.4122   -15.6540  H       1  <O>11       0.0266
  37 H9       -2.6693   -10.1186   -15.0368  H       1  <O>11       0.0266
  38 H10      -0.6758    -8.4080   -13.5136  H       1  <O>11       0.0278
  39 H11      -2.3391    -7.9754   -13.9775  H       1  <O>11       0.0278
  40 H12      -2.0866    -8.6227   -11.5766  H       1  <O>11       0.0444
  41 H13      -3.2547    -9.6186   -12.4763  H       1  <O>11       0.0444
  42 H14       6.4519    -7.2325    -3.7431  H       1  <O>11       0.0626
  43 H15       7.6576    -7.8869    -1.7358  H       1  <O>11       0.0618
  44 H16       7.3975   -10.1318    -0.8357  H       1  <O>11       0.0619
  45 H17       5.9275   -11.7134    -1.9515  H       1  <O>11       0.0654
  46 H18       0.1715    -6.8022    -7.1675  H       1  <O>11       0.0625
  47 H19      -1.0186    -6.1519    -9.1812  H       1  <O>11       0.0618
  48 H20      -1.0550    -7.6314   -11.1100  H       1  <O>11       0.0637
  49 H21       1.3079   -10.4196    -9.0139  H       1  <O>11       0.0644
@<TRIPOS>BOND
     1     1     2    2
     2     2     3   am
     3     3     4    1
     4     4     5   am
     5     5     6    2
     6     5     7    1
     7     7     8   ar
     8     8     9   ar
     9     9    10   ar
    10    10    11   ar
    11    11    12   ar
    12     7    12   ar
    13    12    13    1
    14     2    14    1
    15    14    15   ar
    16    15    16   ar
    17    16    17   ar
    18    17    18   ar
    19    18    19    1
    20    19    20    2
    21    19    21    2
    22    19    22    1
    23    22    23    1
    24    23    24    1
    25    24    25    1
    26    25    26    1
    27    26    27    1
    28    22    27    1
    29    18    28   ar
    30    14    28   ar
    31     3    29    1
    32     4    30    1
    33    13    31    1
    34    23    32    1
    35    23    33    1
    36    24    34    1
    37    24    35    1
    38    25    36    1
    39    25    37    1
    40    26    38    1
    41    26    39    1
    42    27    40    1
    43    27    41    1
    44     8    42    1
    45     9    43    1
    46    10    44    1
    47    11    45    1
    48    15    46    1
    49    16    47    1
    50    17    48    1
    51    28    49    1
@<TRIPOS>MOLECULE
mol99_1_28
 49 51 0 0 0
SMALL
USER_CHARGES
****
VDW energy = 215.37
@<TRIPOS>ATOM
   1 O1        0.9439    -9.6922    -5.8421  O.2     1  <O>11      -0.2687
   2 C1        1.5306    -9.0649    -6.7113  C.2     1  <O>11       0.2602
   3 N1        2.8490    -8.7350    -6.5460  N.am    1  <O>11      -0.2301
   4 N2        3.5130    -9.1100    -5.4030  N.am    1  <O>11      -0.2300
   5 C2        4.8073    -8.7102    -5.2018  C.2     1  <O>11       0.2637
   6 O2        5.3703    -8.0201    -6.0386  O.2     1  <O>11      -0.2685
   7 C3        5.5083    -9.1041    -3.9997  C.ar    1  <O>11       0.0795
   8 C4        6.3444    -8.1858    -3.3627  C.ar    1  <O>11      -0.0460
   9 C5        7.0357    -8.5626    -2.2068  C.ar    1  <O>11      -0.0608
  10 C6        6.8867    -9.8520    -1.6877  C.ar    1  <O>11      -0.0583
  11 C7        6.0395   -10.7608    -2.3325  C.ar    1  <O>11      -0.0194
  12 C8        5.3447   -10.3918    -3.4850  C.ar    1  <O>11       0.1290
  13 O3        4.5552   -11.2300    -4.0786  O.3     1  <O>11      -0.5060
  14 C9        0.8270    -8.6680    -7.9240  C.ar    1  <O>11       0.0400
  15 C10       0.9036    -9.4628    -9.0799  C.ar    1  <O>11      -0.0495
  16 C11       0.2365    -9.0751   -10.2476  C.ar    1  <O>11      -0.0592
  17 C12      -0.5131    -7.8964   -10.2712  C.ar    1  <O>11      -0.0353
  18 C13      -0.5951    -7.1086    -9.1171  C.ar    1  <O>11       0.1062
  19 S1       -1.5432    -5.6261    -9.1518  S.O2    1  <O>11       0.0609
  20 O4       -1.4735    -4.8895    -7.6648  O.2     1  <O>11      -0.1528
  21 O5       -3.1223    -5.9877    -9.5177  O.2     1  <O>11      -0.1528
  22 N3       -0.9323    -4.6073   -10.2998  N.3     1  <O>11      -0.1766
  23 C14      -1.6335    -3.2963   -10.2017  C.3     1  <O>11       0.0205
  24 C15      -3.1158    -3.4298   -10.5322  C.3     1  <O>11      -0.0385
  25 C16      -3.3131    -4.0413   -11.9156  C.3     1  <O>11      -0.0506
  26 C17      -2.5720    -5.3676   -12.0356  C.3     1  <O>11      -0.0385
  27 C18      -1.1056    -5.2351   -11.6406  C.3     1  <O>11       0.0205
  28 C19       0.0661    -7.4879    -7.9477  C.ar    1  <O>11      -0.0232
  29 H1        3.3390    -8.2120    -7.2710  H       1  <O>11       0.1731
  30 H2        3.0434    -9.6859    -4.7047  H       1  <O>11       0.1731
  31 H3        4.1604   -10.8069    -4.8560  H       1  <O>11       0.2922
  32 H4       -1.5306    -2.9153    -9.1852  H       1  <O>11       0.0444
  33 H5       -1.1769    -2.5966   -10.9007  H       1  <O>11       0.0444
  34 H6       -3.5919    -4.0693    -9.7873  H       1  <O>11       0.0278
  35 H7       -3.5752    -2.4417   -10.5094  H       1  <O>11       0.0278
  36 H8       -4.3773    -4.2117   -12.0822  H       1  <O>11       0.0266
  37 H9       -2.9321    -3.3510   -12.6693  H       1  <O>11       0.0266
  38 H10      -3.0475    -6.0985   -11.3817  H       1  <O>11       0.0278
  39 H11      -2.6293    -5.7118   -13.0683  H       1  <O>11       0.0278
  40 H12      -0.6571    -6.2282   -11.6223  H       1  <O>11       0.0444
  41 H13      -0.5967    -4.6208   -12.3828  H       1  <O>11       0.0444
  42 H14       6.4519    -7.2325    -3.7431  H       1  <O>11       0.0626
  43 H15       7.6576    -7.8869    -1.7358  H       1  <O>11       0.0618
  44 H16       7.3975   -10.1318    -0.8357  H       1  <O>11       0.0619
  45 H17       5.9275   -11.7134    -1.9515  H       1  <O>11       0.0654
  46 H18       1.4538   -10.3358    -9.0679  H       1  <O>11       0.0625
  47 H19       0.2986    -9.6620   -11.0942  H       1  <O>11       0.0618
  48 H20      -1.0026    -7.6087   -11.1329  H       1  <O>11       0.0637
  49 H21      -0.0041    -6.9017    -7.1013  H       1  <O>11       0.0644
@<TRIPOS>BOND
     1     1     2    2
     2     2     3   am
     3     3     4    1
     4     4     5   am
     5     5     6    2
     6     5     7    1
     7     7     8   ar
     8     8     9   ar
     9     9    10   ar
    10    10    11   ar
    11    11    12   ar
    12     7    12   ar
    13    12    13    1
    14     2    14    1
    15    14    15   ar
    16    15    16   ar
    17    16    17   ar
    18    17    18   ar
    19    18    19    1
    20    19    20    2
    21    19    21    2
    22    19    22    1
    23    22    23    1
    24    23    24    1
    25    24    25    1
    26    25    26    1
    27    26    27    1
    28    22    27    1
    29    18    28   ar
    30    14    28   ar
    31     3    29    1
    32     4    30    1
    33    13    31    1
    34    23    32    1
    35    23    33    1
    36    24    34    1
    37    24    35    1
    38    25    36    1
    39    25    37    1
    40    26    38    1
    41    26    39    1
    42    27    40    1
    43    27    41    1
    44     8    42    1
    45     9    43    1
    46    10    44    1
    47    11    45    1
    48    15    46    1
    49    16    47    1
    50    17    48    1
    51    28    49    1
@<TRIPOS>MOLECULE
mol99_1_29
 49 51 0 0 0
SMALL
USER_CHARGES
****
VDW energy = 216.02
@<TRIPOS>ATOM
   1 O1        0.9439    -9.6922    -5.8421  O.2     1  <O>11      -0.2687
   2 C1        1.5306    -9.0649    -6.7113  C.2     1  <O>11       0.2602
   3 N1        2.8490    -8.7350    -6.5460  N.am    1  <O>11      -0.2301
   4 N2        3.5086    -8.0297    -7.5235  N.am    1  <O>11      -0.2300
   5 C2        4.8472    -7.7707    -7.3946  C.2     1  <O>11       0.2637
   6 O2        5.4538    -8.1674    -6.4106  O.2     1  <O>11      -0.2685
   7 C3        5.5433    -7.0282    -8.4220  C.ar    1  <O>11       0.0795
   8 C4        5.2943    -5.6626    -8.5676  C.ar    1  <O>11      -0.0460
   9 C5        5.9539    -4.9398    -9.5668  C.ar    1  <O>11      -0.0608
  10 C6        6.8631    -5.5805   -10.4137  C.ar    1  <O>11      -0.0583
  11 C7        7.1089    -6.9490   -10.2520  C.ar    1  <O>11      -0.0194
  12 C8        6.4563    -7.6766    -9.2561  C.ar    1  <O>11       0.1290
  13 O3        6.6882    -8.9418    -9.1015  O.3     1  <O>11      -0.5060
  14 C9        0.8270    -8.6680    -7.9240  C.ar    1  <O>11       0.0400
  15 C10       1.4714    -8.7335    -9.1707  C.ar    1  <O>11      -0.0495
  16 C11       0.7985    -8.3416   -10.3336  C.ar    1  <O>11      -0.0592
  17 C12      -0.5201    -7.8854   -10.2635  C.ar    1  <O>11      -0.0353
  18 C13      -1.1642    -7.8273    -9.0221  C.ar    1  <O>11       0.1062
  19 S1       -2.8264    -7.2544    -8.9402  S.O2    1  <O>11       0.0609
  20 O4       -3.3457    -7.2858    -7.3628  O.2     1  <O>11      -0.1528
  21 O5       -3.7965    -8.2372    -9.8628  O.2     1  <O>11      -0.1528
  22 N3       -2.9058    -5.7076    -9.5149  N.3     1  <O>11      -0.1766
  23 C14      -4.2789    -5.1780    -9.2827  C.3     1  <O>11       0.0205
  24 C15      -5.3197    -5.9558   -10.0803  C.3     1  <O>11      -0.0385
  25 C16      -4.9855    -5.9456   -11.5685  C.3     1  <O>11      -0.0506
  26 C17      -3.5702    -6.4554   -11.8125  C.3     1  <O>11      -0.0385
  27 C18      -2.5460    -5.7134   -10.9614  C.3     1  <O>11       0.0205
  28 C19      -0.5012    -8.2170    -7.8572  C.ar    1  <O>11      -0.0232
  29 H1        3.3417    -9.0114    -5.6974  H       1  <O>11       0.1731
  30 H2        3.0025    -7.6987    -8.3446  H       1  <O>11       0.1731
  31 H3        6.1514    -9.2815    -8.3696  H       1  <O>11       0.2922
  32 H4       -4.5143    -5.2584    -8.2210  H       1  <O>11       0.0444
  33 H5       -4.3114    -4.1318    -9.5845  H       1  <O>11       0.0444
  34 H6       -5.3435    -6.9876    -9.7261  H       1  <O>11       0.0278
  35 H7       -6.2973    -5.4978    -9.9303  H       1  <O>11       0.0278
  36 H8       -5.6913    -6.5872   -12.0973  H       1  <O>11       0.0266
  37 H9       -5.0667    -4.9255   -11.9462  H       1  <O>11       0.0266
  38 H10      -3.5294    -7.5163   -11.5661  H       1  <O>11       0.0278
  39 H11      -3.3214    -6.3165   -12.8646  H       1  <O>11       0.0278
  40 H12      -1.5769    -6.1978   -11.0787  H       1  <O>11       0.0444
  41 H13      -2.4811    -4.6830   -11.3098  H       1  <O>11       0.0444
  42 H14       4.6261    -5.1882    -7.9403  H       1  <O>11       0.0626
  43 H15       5.7689    -3.9307    -9.6793  H       1  <O>11       0.0618
  44 H16       7.3493    -5.0485   -11.1524  H       1  <O>11       0.0619
  45 H17       7.7796    -7.4246   -10.8757  H       1  <O>11       0.0654
  46 H18       2.4446    -9.0719    -9.2291  H       1  <O>11       0.0625
  47 H19       1.2781    -8.3897   -11.2461  H       1  <O>11       0.0618
  48 H20      -1.0155    -7.5935   -11.1205  H       1  <O>11       0.0637
  49 H21      -0.9867    -8.1737    -6.9475  H       1  <O>11       0.0644
@<TRIPOS>BOND
     1     1     2    2
     2     2     3   am
     3     3     4    1
     4     4     5   am
     5     5     6    2
     6     5     7    1
     7     7     8   ar
     8     8     9   ar
     9     9    10   ar
    10    10    11   ar
    11    11    12   ar
    12     7    12   ar
    13    12    13    1
    14     2    14    1
    15    14    15   ar
    16    15    16   ar
    17    16    17   ar
    18    17    18   ar
    19    18    19    1
    20    19    20    2
    21    19    21    2
    22    19    22    1
    23    22    23    1
    24    23    24    1
    25    24    25    1
    26    25    26    1
    27    26    27    1
    28    22    27    1
    29    18    28   ar
    30    14    28   ar
    31     3    29    1
    32     4    30    1
    33    13    31    1
    34    23    32    1
    35    23    33    1
    36    24    34    1
    37    24    35    1
    38    25    36    1
    39    25    37    1
    40    26    38    1
    41    26    39    1
    42    27    40    1
    43    27    41    1
    44     8    42    1
    45     9    43    1
    46    10    44    1
    47    11    45    1
    48    15    46    1
    49    16    47    1
    50    17    48    1
    51    28    49    1
@<TRIPOS>MOLECULE
mol99_1_30
 49 51 0 0 0
SMALL
USER_CHARGES
****
VDW energy = 221.70
@<TRIPOS>ATOM
   1 O1        0.9439    -9.6922    -5.8421  O.2     1  <O>11      -0.2687
   2 C1        1.5306    -9.0649    -6.7113  C.2     1  <O>11       0.2602
   3 N1        2.8490    -8.7350    -6.5460  N.am    1  <O>11      -0.2301
   4 N2        3.5130    -9.1100    -5.4030  N.am    1  <O>11      -0.2300
   5 C2        4.8073    -8.7102    -5.2018  C.2     1  <O>11       0.2637
   6 O2        5.3703    -8.0201    -6.0386  O.2     1  <O>11      -0.2685
   7 C3        5.5083    -9.1041    -3.9997  C.ar    1  <O>11       0.0795
   8 C4        6.3444    -8.1858    -3.3627  C.ar    1  <O>11      -0.0460
   9 C5        7.0357    -8.5626    -2.2068  C.ar    1  <O>11      -0.0608
  10 C6        6.8867    -9.8520    -1.6877  C.ar    1  <O>11      -0.0583
  11 C7        6.0395   -10.7608    -2.3325  C.ar    1  <O>11      -0.0194
  12 C8        5.3447   -10.3918    -3.4850  C.ar    1  <O>11       0.1290
  13 O3        4.5552   -11.2300    -4.0786  O.3     1  <O>11      -0.5060
  14 C9        0.8270    -8.6680    -7.9240  C.ar    1  <O>11       0.0400
  15 C10      -0.5259    -9.0032    -8.1001  C.ar    1  <O>11      -0.0495
  16 C11      -1.1979    -8.6312    -9.2701  C.ar    1  <O>11      -0.0592
  17 C12      -0.5290    -7.9210   -10.2700  C.ar    1  <O>11      -0.0353
  18 C13       0.8169    -7.5808   -10.0909  C.ar    1  <O>11       0.1062
  19 S1        1.6538    -6.6835   -11.3527  S.O2    1  <O>11       0.0609
  20 O4        3.2258    -6.4127   -10.8898  O.2     1  <O>11      -0.1528
  21 O5        0.8897    -5.2293   -11.5973  O.2     1  <O>11      -0.1528
  22 N3        1.6358    -7.5565   -12.7551  N.3     1  <O>11      -0.1766
  23 C14       2.4897    -6.8665   -13.7624  C.3     1  <O>11       0.0205
  24 C15       1.9226    -5.5008   -14.1333  C.3     1  <O>11      -0.0385
  25 C16       0.4893    -5.6247   -14.6399  C.3     1  <O>11      -0.0506
  26 C17      -0.3841    -6.3586   -13.6293  C.3     1  <O>11      -0.0385
  27 C18       0.2255    -7.6938   -13.2176  C.3     1  <O>11       0.0205
  28 C19       1.4949    -7.9468    -8.9269  C.ar    1  <O>11      -0.0232
  29 H1        3.3390    -8.2120    -7.2710  H       1  <O>11       0.1731
  30 H2        3.0434    -9.6859    -4.7047  H       1  <O>11       0.1731
  31 H3        4.1604   -10.8069    -4.8560  H       1  <O>11       0.2922
  32 H4        3.4892    -6.7336   -13.3474  H       1  <O>11       0.0444
  33 H5        2.5469    -7.4813   -14.6598  H       1  <O>11       0.0444
  34 H6        1.9362    -4.8570   -13.2524  H       1  <O>11       0.0278
  35 H7        2.5411    -5.0597   -14.9149  H       1  <O>11       0.0278
  36 H8        0.0813    -4.6269   -14.8049  H       1  <O>11       0.0266
  37 H9        0.4889    -6.1787   -15.5796  H       1  <O>11       0.0266
  38 H10      -0.4977    -5.7356   -12.7423  H       1  <O>11       0.0278
  39 H11      -1.3625    -6.5399   -14.0743  H       1  <O>11       0.0278
  40 H12      -0.3690    -8.1146   -12.4069  H       1  <O>11       0.0444
  41 H13       0.2020    -8.3686   -14.0727  H       1  <O>11       0.0444
  42 H14       6.4519    -7.2325    -3.7431  H       1  <O>11       0.0626
  43 H15       7.6576    -7.8869    -1.7358  H       1  <O>11       0.0618
  44 H16       7.3975   -10.1318    -0.8357  H       1  <O>11       0.0619
  45 H17       5.9275   -11.7134    -1.9515  H       1  <O>11       0.0654
  46 H18      -1.0261    -9.5257    -7.3640  H       1  <O>11       0.0625
  47 H19      -2.1911    -8.8825    -9.3946  H       1  <O>11       0.0618
  48 H20      -1.0234    -7.6492   -11.1341  H       1  <O>11       0.0637
  49 H21       2.4862    -7.6876    -8.8034  H       1  <O>11       0.0644
@<TRIPOS>BOND
     1     1     2    2
     2     2     3   am
     3     3     4    1
     4     4     5   am
     5     5     6    2
     6     5     7    1
     7     7     8   ar
     8     8     9   ar
     9     9    10   ar
    10    10    11   ar
    11    11    12   ar
    12     7    12   ar
    13    12    13    1
    14     2    14    1
    15    14    15   ar
    16    15    16   ar
    17    16    17   ar
    18    17    18   ar
    19    18    19    1
    20    19    20    2
    21    19    21    2
    22    19    22    1
    23    22    23    1
    24    23    24    1
    25    24    25    1
    26    25    26    1
    27    26    27    1
    28    22    27    1
    29    18    28   ar
    30    14    28   ar
    31     3    29    1
    32     4    30    1
    33    13    31    1
    34    23    32    1
    35    23    33    1
    36    24    34    1
    37    24    35    1
    38    25    36    1
    39    25    37    1
    40    26    38    1
    41    26    39    1
    42    27    40    1
    43    27    41    1
    44     8    42    1
    45     9    43    1
    46    10    44    1
    47    11    45    1
    48    15    46    1
    49    16    47    1
    50    17    48    1
    51    28    49    1
