cs_R3_output_folder/data/smiles/0.pdb


 19 21  0  0  0  0  0  0  0  0999 V2000
   71.6480   49.4017   53.2621 O   0  0  0  0  0  0  0  0  0  0  0  0
   70.4517   49.4819   53.7764 C   0  0  0  0  0  0  0  0  0  0  0  0
   70.1295   50.6180   54.5555 N   0  0  0  0  0  0  0  0  0  0  0  0
   68.8735   51.0880   55.0404 C   0  0  0  0  0  0  0  0  0  0  0  0
   69.0624   52.5791   55.1778 C   0  0  0  0  0  0  0  0  0  0  0  0
   70.5174   52.7409   55.3542 C   0  0  0  0  0  0  0  0  0  0  0  0
   71.2862   53.8291   55.8118 C   0  0  0  0  0  0  0  0  0  0  0  0
   72.6491   53.7408   55.8800 C   0  0  0  0  0  0  0  0  0  0  0  0
   73.4210   54.7895   56.3234 F   0  0  0  0  0  0  0  0  0  0  0  0
   73.2552   52.5773   55.4957 C   0  0  0  0  0  0  0  0  0  0  0  0
   72.5084   51.5080   55.0464 C   0  0  0  0  0  0  0  0  0  0  0  0
   71.1116   51.5724   54.9677 C   0  0  0  0  0  0  0  0  0  0  0  0
   69.6085   48.3644   53.4656 C   0  0  0  0  0  0  0  0  0  0  0  0
   68.9374   47.6304   54.4055 C   0  0  0  0  0  0  0  0  0  0  0  0
   68.1506   46.5177   54.0772 C   0  0  0  0  0  0  0  0  0  0  0  0
   68.0461   46.1457   52.7625 C   0  0  0  0  0  0  0  0  0  0  0  0
   68.7026   46.8513   51.7786 C   0  0  0  0  0  0  0  0  0  0  0  0
   69.4638   47.9381   52.1540 C   0  0  0  0  0  0  0  0  0  0  0  0
   70.1054   48.6196   51.1478 O   0  0  0  0  0  0  0  0  0  0  0  0
  1  2  2  0  0  0
  2 13  1  0  0  0
  2  3  1  0  0  0
 13 14  2  0  0  0
 13 18  1  0  0  0
 14 15  1  0  0  0
 15 16  2  0  0  0
 16 17  1  0  0  0
 17 18  2  0  0  0
 18 19  1  0  0  0
  3  4  1  0  0  0
  3 12  1  0  0  0
  4  5  1  0  0  0
  5  6  1  0  0  0
  6  7  1  0  0  0
  6 12  2  0  0  0
  7  8  2  0  0  0
  8  9  1  0  0  0
  8 10  1  0  0  0
 10 11  2  0  0  0
 11 12  1  0  0  0
M  END
> <minimizedAffinity>
-7.41262

$$$$
cs_R3_output_folder/data/smiles/1.pdb


 20 21  0  0  0  0  0  0  0  0999 V2000
   70.3927   49.9392   54.9508 N   0  0  0  0  0  0  0  0  0  0  0  0
   70.4719   49.1253   53.8210 C   0  0  0  0  0  0  0  0  0  0  0  0
   71.5426   49.3195   53.0938 O   0  0  0  0  0  0  0  0  0  0  0  0
   69.5827   48.1129   53.3222 C   0  0  0  0  0  0  0  0  0  0  0  0
   68.8337   47.2679   54.0887 C   0  0  0  0  0  0  0  0  0  0  0  0
   67.9737   46.2914   53.5576 C   0  0  0  0  0  0  0  0  0  0  0  0
   67.8431   46.1400   52.2013 C   0  0  0  0  0  0  0  0  0  0  0  0
   66.9983   45.1821   51.6545 O   0  0  0  0  0  0  0  0  0  0  0  0
   68.5911   46.9851   51.4187 C   0  0  0  0  0  0  0  0  0  0  0  0
   69.4326   47.9395   51.9357 C   0  0  0  0  0  0  0  0  0  0  0  0
   70.1730   48.7767   51.1008 O   0  0  0  0  0  0  0  0  0  0  0  0
   69.3486   49.9354   55.9147 C   0  0  0  0  0  0  0  0  0  0  0  0
   68.5374   51.0428   56.1393 C   0  0  0  0  0  0  0  0  0  0  0  0
   67.5086   50.9994   57.0539 C   0  0  0  0  0  0  0  0  0  0  0  0
   67.2262   49.8697   57.7918 C   0  0  0  0  0  0  0  0  0  0  0  0
   65.9047   49.8370   58.9576 Cl  0  0  0  0  0  0  0  0  0  0  0  0
   68.0208   48.7650   57.5798 C   0  0  0  0  0  0  0  0  0  0  0  0
   69.0504   48.8018   56.6673 C   0  0  0  0  0  0  0  0  0  0  0  0
   72.3747   50.4390   56.2930 C   0  0  0  0  0  0  0  0  0  0  0  0
   71.5089   50.8870   55.1445 C   0  0  0  0  0  0  0  0  0  0  0  0
 19 20  1  0  0  0
 20  1  1  0  0  0
  1  2  1  0  0  0
  1 12  1  0  0  0
  2  3  2  0  0  0
  2  4  1  0  0  0
  4  5  2  0  0  0
  4 10  1  0  0  0
  5  6  1  0  0  0
  6  7  2  0  0  0
  7  8  1  0  0  0
  7  9  1  0  0  0
  9 10  2  0  0  0
 10 11  1  0  0  0
 12 13  2  0  0  0
 12 18  1  0  0  0
 13 14  1  0  0  0
 14 15  2  0  0  0
 15 16  1  0  0  0
 15 17  1  0  0  0
 17 18  2  0  0  0
M  END
> <minimizedAffinity>
-7.51241

$$$$
cs_R3_output_folder/data/smiles/2.pdb


 24 26  0  0  0  0  0  0  0  0999 V2000
   69.9469   39.4862   58.8595 C   0  0  0  0  0  0  0  0  0  0  0  0
   70.5289   40.7369   58.8819 C   0  0  0  0  0  0  0  0  0  0  0  0
   70.0175   41.7749   58.1140 C   0  0  0  0  0  0  0  0  0  0  0  0
   68.9138   41.6015   57.3039 C   0  0  0  0  0  0  0  0  0  0  0  0
   68.3312   40.3517   57.2816 C   0  0  0  0  0  0  0  0  0  0  0  0
   68.8438   39.3225   58.0457 C   0  0  0  0  0  0  0  0  0  0  0  0
   67.2259   40.4148   56.3873 N   0  0  0  0  0  0  0  0  0  0  0  0
   67.1167   41.7386   55.8378 C   0  0  0  0  0  0  0  0  0  0  0  0
   66.2627   42.1610   55.0157 O   0  0  0  0  0  0  0  0  0  0  0  0
   68.1891   42.5152   56.4123 C   0  0  0  0  0  0  0  0  0  0  0  0
   68.4287   43.7578   56.1661 N   0  0  0  0  0  0  0  0  0  0  0  0
   71.2010   37.3529   58.8071 C   0  0  0  0  0  0  0  0  0  0  0  0
   70.4967   38.3703   59.6844 C   0  0  0  0  0  0  0  0  0  0  0  0
   67.6475   44.5259   55.2813 N   0  0  0  0  0  0  0  0  0  0  0  0
   68.2046   45.6802   54.7016 C   0  0  0  0  0  0  0  0  0  0  0  0
   68.1505   45.8986   53.3436 C   0  0  0  0  0  0  0  0  0  0  0  0
   68.6987   47.0344   52.7682 C   0  0  0  0  0  0  0  0  0  0  0  0
   69.3128   47.9750   53.5459 C   0  0  0  0  0  0  0  0  0  0  0  0
   69.3803   47.7803   54.9072 C   0  0  0  0  0  0  0  0  0  0  0  0
   68.8231   46.6288   55.4788 C   0  0  0  0  0  0  0  0  0  0  0  0
   70.0125   49.4179   52.8386 S   0  0  0  0  0  0  0  0  0  0  0  0
   69.9152   49.3738   51.1153 N   0  0  0  0  0  0  0  0  0  0  0  0
   69.2705   50.6520   53.2933 O   0  0  0  0  0  0  0  0  0  0  0  0
   71.4346   49.5675   53.2525 O   0  0  0  0  0  0  0  0  0  0  0  0
 12 13  1  0  0  0
 13  1  1  0  0  0
  1  2  2  0  0  0
  1  6  1  0  0  0
  2  3  1  0  0  0
  3  4  2  0  0  0
  4  5  1  0  0  0
  4 10  1  0  0  0
  5  6  2  0  0  0
  5  7  1  0  0  0
  7  8  1  0  0  0
  8  9  2  0  0  0
  8 10  1  0  0  0
 10 11  2  0  0  0
 11 14  1  0  0  0
 14 15  1  0  0  0
 15 16  2  0  0  0
 15 20  1  0  0  0
 16 17  1  0  0  0
 17 18  2  0  0  0
 18 21  1  0  0  0
 18 19  1  0  0  0
 21 22  1  0  0  0
 21 23  2  0  0  0
 21 24  2  0  0  0
 19 20  2  0  0  0
M  END
> <minimizedAffinity>
-9.22813

$$$$
cs_R3_output_folder/data/smiles/3.pdb


 20 21  0  0  0  0  0  0  0  0999 V2000
   70.9849   52.7470   55.6776 C   0  0  0  0  0  0  0  0  0  0  0  0
   69.8567   52.9558   56.4543 C   0  0  0  0  0  0  0  0  0  0  0  0
   68.6718   52.4506   56.0241 C   0  0  0  0  0  0  0  0  0  0  0  0
   68.6084   51.7562   54.8532 C   0  0  0  0  0  0  0  0  0  0  0  0
   69.7229   51.5235   54.0394 C   0  0  0  0  0  0  0  0  0  0  0  0
   70.9211   52.0351   54.4790 C   0  0  0  0  0  0  0  0  0  0  0  0
   73.7111   52.1213   56.2677 N   0  0  0  0  0  0  0  0  0  0  0  0
   72.5298   53.3874   56.2087 S   0  0  0  0  0  0  0  0  0  0  0  0
   72.9870   54.4319   55.2223 O   0  0  0  0  0  0  0  0  0  0  0  0
   72.4049   53.9767   57.5781 O   0  0  0  0  0  0  0  0  0  0  0  0
   69.5727   50.8045   52.8366 N   0  0  0  0  0  0  0  0  0  0  0  0
   70.1975   49.2570   52.4781 S   0  0  0  0  0  0  0  0  0  0  0  0
   71.6421   49.1292   52.9542 O   0  0  0  0  0  0  0  0  0  0  0  0
   70.2902   49.0934   50.9651 O   0  0  0  0  0  0  0  0  0  0  0  0
   69.2514   47.9284   53.0449 C   0  0  0  0  0  0  0  0  0  0  0  0
   68.7659   47.0120   52.1383 C   0  0  0  0  0  0  0  0  0  0  0  0
   68.0139   45.9408   52.5140 C   0  0  0  0  0  0  0  0  0  0  0  0
   67.7400   45.7868   53.8602 C   0  0  0  0  0  0  0  0  0  0  0  0
   68.2116   46.6836   54.7831 C   0  0  0  0  0  0  0  0  0  0  0  0
   68.9684   47.7581   54.3822 C   0  0  0  0  0  0  0  0  0  0  0  0
  7  8  1  0  0  0
  8  9  2  0  0  0
  8 10  2  0  0  0
  8  1  1  0  0  0
  1  2  2  0  0  0
  1  6  1  0  0  0
  2  3  1  0  0  0
  3  4  2  0  0  0
  4  5  1  0  0  0
  5 11  1  0  0  0
  5  6  2  0  0  0
 11 12  1  0  0  0
 12 13  2  0  0  0
 12 14  2  0  0  0
 12 15  1  0  0  0
 15 16  2  0  0  0
 15 20  1  0  0  0
 16 17  1  0  0  0
 17 18  2  0  0  0
 18 19  1  0  0  0
 19 20  2  0  0  0
M  END
> <minimizedAffinity>
-7.82872

$$$$
cs_R3_output_folder/data/smiles/4.pdb


 29 33  0  0  0  0  0  0  0  0999 V2000
   72.9148   51.1995   56.2818 C   0  0  0  0  0  0  0  0  0  0  0  0
   73.4037   49.8005   56.5644 C   0  0  0  0  0  0  0  0  0  0  0  0
   73.5038   49.5628   58.0425 C   0  0  0  0  0  0  0  0  0  0  0  0
   72.3012   49.9148   58.7120 N   0  0  0  0  0  0  0  0  0  0  0  0
   71.9519   51.2939   58.5673 C   0  0  0  0  0  0  0  0  0  0  0  0
   72.8981   51.9558   57.5871 C   0  0  0  0  0  0  0  0  0  0  0  0
   72.2608   50.0973   53.8351 O   0  0  0  0  0  0  0  0  0  0  0  0
   71.3069   50.5875   54.4662 C   0  0  0  0  0  0  0  0  0  0  0  0
   71.5458   51.1755   55.7424 N   0  0  0  0  0  0  0  0  0  0  0  0
   69.9189   50.5675   53.9103 C   0  0  0  0  0  0  0  0  0  0  0  0
   69.6458   49.3473   53.1428 C   0  0  0  0  0  0  0  0  0  0  0  0
   69.9259   49.2174   51.7932 C   0  0  0  0  0  0  0  0  0  0  0  0
   69.5539   47.9878   51.4015 N   0  0  0  0  0  0  0  0  0  0  0  0
   69.0470   47.3402   52.4740 C   0  0  0  0  0  0  0  0  0  0  0  0
   68.5259   46.0599   52.6144 C   0  0  0  0  0  0  0  0  0  0  0  0
   68.0620   45.6213   53.8288 C   0  0  0  0  0  0  0  0  0  0  0  0
   68.1009   46.4392   54.9452 C   0  0  0  0  0  0  0  0  0  0  0  0
   68.6195   47.7076   54.7974 C   0  0  0  0  0  0  0  0  0  0  0  0
   69.0926   48.1660   53.5755 C   0  0  0  0  0  0  0  0  0  0  0  0
   71.2253   48.9861   58.5689 C   0  0  0  0  0  0  0  0  0  0  0  0
   71.4321   47.7071   59.2251 C   0  0  0  0  0  0  0  0  0  0  0  0
   72.0557   47.4728   60.4218 C   0  0  0  0  0  0  0  0  0  0  0  0
   72.0524   46.1407   60.6815 N   0  0  0  0  0  0  0  0  0  0  0  0
   71.4326   45.5388   59.6601 C   0  0  0  0  0  0  0  0  0  0  0  0
   71.1674   44.1798   59.4542 C   0  0  0  0  0  0  0  0  0  0  0  0
   70.5092   43.7534   58.3363 C   0  0  0  0  0  0  0  0  0  0  0  0
   70.0952   44.6857   57.3867 C   0  0  0  0  0  0  0  0  0  0  0  0
   70.3682   46.0311   57.6112 C   0  0  0  0  0  0  0  0  0  0  0  0
   71.0349   46.4835   58.7377 C   0  0  0  0  0  0  0  0  0  0  0  0
  7  8  2  0  0  0
  8 10  1  0  0  0
  8  9  1  0  0  0
 10 11  1  0  0  0
 11 12  2  0  0  0
 11 19  1  0  0  0
 12 13  1  0  0  0
 13 14  1  0  0  0
 14 15  1  0  0  0
 14 19  2  0  0  0
 15 16  2  0  0  0
 16 17  1  0  0  0
 17 18  2  0  0  0
 18 19  1  0  0  0
  9  1  1  0  0  0
  1  2  1  0  0  0
  1  6  1  0  0  0
  2  3  1  0  0  0
  3  4  1  0  0  0
  4 20  1  0  0  0
  4  5  1  0  0  0
 20 21  1  0  0  0
 21 22  2  0  0  0
 21 29  1  0  0  0
 22 23  1  0  0  0
 23 24  1  0  0  0
 24 25  1  0  0  0
 24 29  2  0  0  0
 25 26  2  0  0  0
 26 27  1  0  0  0
 27 28  2  0  0  0
 28 29  1  0  0  0
  5  6  1  0  0  0
M  CHG 1   4   1
M  END
> <minimizedAffinity>
-8.33565

$$$$
cs_R3_output_folder/data/smiles/5.pdb


 23 24  0  0  0  0  0  0  0  0999 V2000
   71.2621   50.4625   54.8882 N   0  0  0  0  0  0  0  0  0  0  0  0
   70.4790   50.1623   53.7450 C   0  0  0  0  0  0  0  0  0  0  0  0
   70.3747   51.0768   52.8878 O   0  0  0  0  0  0  0  0  0  0  0  0
   69.8116   48.9040   53.5127 C   0  0  0  0  0  0  0  0  0  0  0  0
   69.6304   48.4366   52.2249 C   0  0  0  0  0  0  0  0  0  0  0  0
   69.0081   47.2567   51.9323 C   0  0  0  0  0  0  0  0  0  0  0  0
   68.5230   46.4648   52.9273 C   0  0  0  0  0  0  0  0  0  0  0  0
   67.9026   45.2888   52.6455 F   0  0  0  0  0  0  0  0  0  0  0  0
   68.6856   46.9006   54.2457 C   0  0  0  0  0  0  0  0  0  0  0  0
   69.3226   48.1066   54.5305 C   0  0  0  0  0  0  0  0  0  0  0  0
   68.1688   46.0527   55.2698 N   0  0  0  0  0  0  0  0  0  0  0  0
   67.9811   46.5289   56.4059 O   0  0  0  0  0  0  0  0  0  0  0  0
   67.8823   44.7282   55.0100 O   0  0  0  0  0  0  0  0  0  0  0  0
   73.2804   51.7780   54.9471 C   0  0  0  0  0  0  0  0  0  0  0  0
   73.9766   52.9528   55.1423 C   0  0  0  0  0  0  0  0  0  0  0  0
   73.3220   54.1147   55.5146 C   0  0  0  0  0  0  0  0  0  0  0  0
   71.9545   54.0434   55.6790 C   0  0  0  0  0  0  0  0  0  0  0  0
   71.2447   52.8545   55.4825 C   0  0  0  0  0  0  0  0  0  0  0  0
   71.9163   51.7033   55.1104 C   0  0  0  0  0  0  0  0  0  0  0  0
   73.9824   50.5537   54.5566 C   0  0  0  0  0  0  0  0  0  0  0  0
   74.0198   50.2184   53.3441 O   0  0  0  0  0  0  0  0  0  0  0  0
   75.9576   49.9043   55.8433 C   0  0  0  0  0  0  0  0  0  0  0  0
   74.6169   49.7367   55.4647 O   0  0  0  0  0  0  0  0  0  0  0  0
 22 23  1  0  0  0
 23 20  1  0  0  0
 20 21  2  0  0  0
 20 14  1  0  0  0
 14 15  2  0  0  0
 14 19  1  0  0  0
 15 16  1  0  0  0
 16 17  2  0  0  0
 17 18  1  0  0  0
 18 19  2  0  0  0
 19  1  1  0  0  0
  1  2  1  0  0  0
  2  3  2  0  0  0
  2  4  1  0  0  0
  4  5  2  0  0  0
  4 10  1  0  0  0
  5  6  1  0  0  0
  6  7  2  0  0  0
  7  8  1  0  0  0
  7  9  1  0  0  0
  9 11  1  0  0  0
  9 10  2  0  0  0
 11 12  2  0  0  0
 11 13  1  0  0  0
M  CHG 1  11   1
M  CHG 1  13  -1
M  END
> <minimizedAffinity>
-8.40010

$$$$
cs_R3_output_folder/data/smiles/6.pdb


 32 35  0  0  0  0  0  0  0  0999 V2000
   70.7427   35.6273   60.0593 C   0  0  0  0  0  0  0  0  0  0  0  0
   70.4893   34.4477   60.7321 C   0  0  0  0  0  0  0  0  0  0  0  0
   71.0418   33.2490   60.2986 C   0  0  0  0  0  0  0  0  0  0  0  0
   71.8200   33.2474   59.2248 N   0  0  0  0  0  0  0  0  0  0  0  0
   72.1152   34.3756   58.5094 C   0  0  0  0  0  0  0  0  0  0  0  0
   72.9353   34.2980   57.4069 C   0  0  0  0  0  0  0  0  0  0  0  0
   73.2438   35.4443   56.6745 C   0  0  0  0  0  0  0  0  0  0  0  0
   72.6846   36.6179   57.1201 C   0  0  0  0  0  0  0  0  0  0  0  0
   71.8502   36.6950   58.2423 C   0  0  0  0  0  0  0  0  0  0  0  0
   71.5640   35.5580   58.9448 C   0  0  0  0  0  0  0  0  0  0  0  0
   69.1093   37.5264   59.8436 N   0  0  0  0  0  0  0  0  0  0  0  0
   70.1531   36.8693   60.5445 C   0  0  0  0  0  0  0  0  0  0  0  0
   70.5538   37.4202   61.6246 O   0  0  0  0  0  0  0  0  0  0  0  0
   68.5200   38.7738   60.3277 C   0  0  0  0  0  0  0  0  0  0  0  0
   70.0149   41.7815   58.3646 C   0  0  0  0  0  0  0  0  0  0  0  0
   71.4737   41.5812   57.9805 C   0  0  0  0  0  0  0  0  0  0  0  0
   72.0989   40.9375   59.1929 C   0  0  0  0  0  0  0  0  0  0  0  0
   72.8663   41.8597   59.8778 F   0  0  0  0  0  0  0  0  0  0  0  0
   72.8897   39.8831   58.7657 F   0  0  0  0  0  0  0  0  0  0  0  0
   70.9515   40.5123   60.0463 C   0  0  0  0  0  0  0  0  0  0  0  0
   69.7707   40.6428   59.2583 N   0  0  0  0  0  0  0  0  0  0  0  0
   68.5976   39.8582   59.3209 C   0  0  0  0  0  0  0  0  0  0  0  0
   67.6591   40.0934   58.5353 O   0  0  0  0  0  0  0  0  0  0  0  0
   69.5925   44.0193   59.6805 N   0  0  0  0  0  0  0  0  0  0  0  0
   69.7961   42.9894   59.0667 C   0  0  0  0  0  0  0  0  0  0  0  0
   74.0687   35.3913   55.5238 N   0  0  0  0  0  0  0  0  0  0  0  0
   73.5928   35.2214   54.1945 C   0  0  0  0  0  0  0  0  0  0  0  0
   72.2822   35.4831   53.8574 C   0  0  0  0  0  0  0  0  0  0  0  0
   71.8786   35.2745   52.5612 C   0  0  0  0  0  0  0  0  0  0  0  0
   72.7138   34.8200   51.5853 C   0  0  0  0  0  0  0  0  0  0  0  0
   74.0331   34.5594   51.9342 C   0  0  0  0  0  0  0  0  0  0  0  0
   74.4574   34.7653   53.2465 C   0  0  0  0  0  0  0  0  0  0  0  0
 24 25  3  0  0  0
 15 25  1  0  0  0
 15 16  1  0  0  0
 15 21  1  0  0  0
 16 17  1  0  0  0
 17 18  1  0  0  0
 17 19  1  0  0  0
 17 20  1  0  0  0
 20 21  1  0  0  0
 21 22  1  0  0  0
 22 23  2  0  0  0
 22 14  1  0  0  0
 14 11  1  0  0  0
 11 12  1  0  0  0
 12 13  2  0  0  0
 12  1  1  0  0  0
  1  2  2  0  0  0
  1 10  1  0  0  0
  2  3  1  0  0  0
  3  4  2  0  0  0
  4  5  1  0  0  0
  5  6  1  0  0  0
  5 10  2  0  0  0
  6  7  2  0  0  0
  7 26  1  0  0  0
  7  8  1  0  0  0
 26 27  1  0  0  0
 27 28  2  0  0  0
 27 32  1  0  0  0
 28 29  1  0  0  0
 29 30  2  0  0  0
 30 31  1  0  0  0
 31 32  2  0  0  0
  8  9  2  0  0  0
  9 10  1  0  0  0
M  END
> <minimizedAffinity>
-7.66587

$$$$
cs_R3_output_folder/data/smiles/7.pdb


 23 25  0  0  0  0  0  0  0  0999 V2000
   69.3372   47.5776   56.0190 C   0  0  0  0  0  0  0  0  0  0  0  0
   68.6696   46.6562   55.2379 C   0  0  0  0  0  0  0  0  0  0  0  0
   68.0134   45.5411   55.7889 O   0  0  0  0  0  0  0  0  0  0  0  0
   68.6294   46.8120   53.8679 C   0  0  0  0  0  0  0  0  0  0  0  0
   67.9766   45.9284   53.0439 C   0  0  0  0  0  0  0  0  0  0  0  0
   67.9398   46.0974   51.6662 C   0  0  0  0  0  0  0  0  0  0  0  0
   68.5692   47.1639   51.1473 N   0  0  0  0  0  0  0  0  0  0  0  0
   69.2257   48.0611   51.9285 C   0  0  0  0  0  0  0  0  0  0  0  0
   69.2703   47.9045   53.3004 C   0  0  0  0  0  0  0  0  0  0  0  0
   69.9337   48.8229   54.0492 N   0  0  0  0  0  0  0  0  0  0  0  0
   69.9473   48.6335   55.3734 C   0  0  0  0  0  0  0  0  0  0  0  0
   70.5734   49.4970   56.0778 O   0  0  0  0  0  0  0  0  0  0  0  0
   69.3486   47.4002   57.4791 C   0  0  0  0  0  0  0  0  0  0  0  0
   69.9612   45.0531   58.1299 N   0  0  0  0  0  0  0  0  0  0  0  0
   70.3376   46.3973   57.8910 C   0  0  0  0  0  0  0  0  0  0  0  0
   71.5606   46.6735   58.0527 O   0  0  0  0  0  0  0  0  0  0  0  0
   73.4425   40.8335   59.5716 C   0  0  0  0  0  0  0  0  0  0  0  0
   72.5184   41.9361   59.1879 C   0  0  0  0  0  0  0  0  0  0  0  0
   72.1231   42.8389   60.1610 C   0  0  0  0  0  0  0  0  0  0  0  0
   71.2858   43.8499   59.8043 C   0  0  0  0  0  0  0  0  0  0  0  0
   70.8211   44.0070   58.5187 C   0  0  0  0  0  0  0  0  0  0  0  0
   71.2283   43.0968   57.5730 C   0  0  0  0  0  0  0  0  0  0  0  0
   72.0851   42.0458   57.8970 C   0  0  0  0  0  0  0  0  0  0  0  0
 17 18  1  0  0  0
 18 19  2  0  0  0
 18 23  1  0  0  0
 19 20  1  0  0  0
 20 21  2  0  0  0
 21 14  1  0  0  0
 21 22  1  0  0  0
 14 15  1  0  0  0
 15 16  2  0  0  0
 15 13  1  0  0  0
 13  1  1  0  0  0
  1  2  2  0  0  0
  1 11  1  0  0  0
  2  3  1  0  0  0
  2  4  1  0  0  0
  4  5  2  0  0  0
  4  9  1  0  0  0
  5  6  1  0  0  0
  6  7  2  0  0  0
  7  8  1  0  0  0
  8  9  2  0  0  0
  9 10  1  0  0  0
 10 11  1  0  0  0
 11 12  2  0  0  0
 22 23  2  0  0  0
M  END
> <minimizedAffinity>
-7.46107

$$$$
cs_R3_output_folder/data/smiles/8.pdb


 26 28  0  0  0  0  0  0  0  0999 V2000
   68.6796   46.8447   55.7007 C   0  0  0  0  0  0  0  0  0  0  0  0
   68.2193   45.7528   55.0059 C   0  0  0  0  0  0  0  0  0  0  0  0
   68.1469   45.7393   53.6473 C   0  0  0  0  0  0  0  0  0  0  0  0
   68.5513   46.8638   52.9584 C   0  0  0  0  0  0  0  0  0  0  0  0
   69.0088   47.9560   53.6100 C   0  0  0  0  0  0  0  0  0  0  0  0
   69.0694   47.9345   54.9956 C   0  0  0  0  0  0  0  0  0  0  0  0
   68.7345   46.7875   57.1223 N   0  0  0  0  0  0  0  0  0  0  0  0
   70.1539   46.3223   57.9716 S   0  0  0  0  0  0  0  0  0  0  0  0
   69.7957   45.4292   59.1419 O   0  0  0  0  0  0  0  0  0  0  0  0
   70.9931   45.4708   57.0497 O   0  0  0  0  0  0  0  0  0  0  0  0
   71.8196   49.9978   58.4325 C   0  0  0  0  0  0  0  0  0  0  0  0
   71.0810   48.8046   57.9276 C   0  0  0  0  0  0  0  0  0  0  0  0
   71.0295   47.6706   58.6091 C   0  0  0  0  0  0  0  0  0  0  0  0
   71.6533   47.5478   59.8071 F   0  0  0  0  0  0  0  0  0  0  0  0
   69.4296   49.1673   52.8855 C   0  0  0  0  0  0  0  0  0  0  0  0
   70.4007   50.0210   53.5970 C   0  0  0  0  0  0  0  0  0  0  0  0
   71.7283   49.7206   53.5833 N   0  0  0  0  0  0  0  0  0  0  0  0
   72.6140   50.4350   54.2364 N   0  0  0  0  0  0  0  0  0  0  0  0
   72.2957   51.5167   54.9741 C   0  0  0  0  0  0  0  0  0  0  0  0
   73.1595   52.2055   55.6072 O   0  0  0  0  0  0  0  0  0  0  0  0
   70.9611   51.8452   55.0070 C   0  0  0  0  0  0  0  0  0  0  0  0
   69.9955   51.0977   54.3146 C   0  0  0  0  0  0  0  0  0  0  0  0
   68.6297   51.6188   54.4303 C   0  0  0  0  0  0  0  0  0  0  0  0
   68.2739   51.7790   55.8840 C   0  0  0  0  0  0  0  0  0  0  0  0
   69.3327   52.4921   56.6712 C   0  0  0  0  0  0  0  0  0  0  0  0
   70.4379   52.9988   55.7741 C   0  0  0  0  0  0  0  0  0  0  0  0
 11 12  1  0  0  0
 12 13  2  0  0  0
 13 14  1  0  0  0
 13  8  1  0  0  0
  8  9  2  0  0  0
  8 10  2  0  0  0
  8  7  1  0  0  0
  7  1  1  0  0  0
  1  2  2  0  0  0
  1  6  1  0  0  0
  2  3  1  0  0  0
  3  4  2  0  0  0
  4  5  1  0  0  0
  5 15  1  0  0  0
  5  6  2  0  0  0
 15 16  1  0  0  0
 16 17  2  0  0  0
 16 22  1  0  0  0
 17 18  1  0  0  0
 18 19  1  0  0  0
 19 20  2  0  0  0
 19 21  1  0  0  0
 21 22  2  0  0  0
 21 26  1  0  0  0
 22 23  1  0  0  0
 23 24  1  0  0  0
 24 25  1  0  0  0
 25 26  1  0  0  0
M  END
> <minimizedAffinity>
-8.54071

$$$$
cs_R3_output_folder/data/smiles/9.pdb


 27 30  0  0  0  0  0  0  0  0999 V2000
   71.1975   46.0397   58.4919 C   0  0  0  0  0  0  0  0  0  0  0  0
   70.2077   46.4399   57.6437 C   0  0  0  0  0  0  0  0  0  0  0  0
   69.8007   47.7803   57.5205 C   0  0  0  0  0  0  0  0  0  0  0  0
   70.4491   48.6799   58.3005 C   0  0  0  0  0  0  0  0  0  0  0  0
   71.4679   48.2856   59.1767 C   0  0  0  0  0  0  0  0  0  0  0  0
   71.8493   46.9657   59.2784 C   0  0  0  0  0  0  0  0  0  0  0  0
   72.8140   46.5452   60.1004 F   0  0  0  0  0  0  0  0  0  0  0  0
   69.5242   44.1512   59.6789 O   0  0  0  0  0  0  0  0  0  0  0  0
   70.5970   43.7810   59.1584 C   0  0  0  0  0  0  0  0  0  0  0  0
   70.9852   42.3249   59.1577 C   0  0  0  0  0  0  0  0  0  0  0  0
   71.5725   42.0567   57.7815 C   0  0  0  0  0  0  0  0  0  0  0  0
   72.9478   42.7243   57.7785 C   0  0  0  0  0  0  0  0  0  0  0  0
   72.7337   44.1762   57.9793 C   0  0  0  0  0  0  0  0  0  0  0  0
   73.6637   44.9551   57.6372 O   0  0  0  0  0  0  0  0  0  0  0  0
   71.5278   44.6568   58.5343 N   0  0  0  0  0  0  0  0  0  0  0  0
   68.6989   48.0457   56.5726 C   0  0  0  0  0  0  0  0  0  0  0  0
   69.2596   48.1905   55.2133 C   0  0  0  0  0  0  0  0  0  0  0  0
   70.2226   49.1350   54.9809 N   0  0  0  0  0  0  0  0  0  0  0  0
   70.7509   49.3730   53.8082 N   0  0  0  0  0  0  0  0  0  0  0  0
   70.3481   48.6625   52.7229 C   0  0  0  0  0  0  0  0  0  0  0  0
   70.8607   48.8930   51.5781 O   0  0  0  0  0  0  0  0  0  0  0  0
   69.3889   47.6946   52.8542 C   0  0  0  0  0  0  0  0  0  0  0  0
   68.9822   46.9631   51.7750 C   0  0  0  0  0  0  0  0  0  0  0  0
   68.0144   45.9687   51.9246 C   0  0  0  0  0  0  0  0  0  0  0  0
   67.4720   45.7298   53.1657 C   0  0  0  0  0  0  0  0  0  0  0  0
   67.8951   46.4834   54.2587 C   0  0  0  0  0  0  0  0  0  0  0  0
   68.8549   47.4734   54.1185 C   0  0  0  0  0  0  0  0  0  0  0  0
  8  9  2  0  0  0
  9 10  1  0  0  0
  9 15  1  0  0  0
 10 11  1  0  0  0
 11 12  1  0  0  0
 12 13  1  0  0  0
 13 14  2  0  0  0
 13 15  1  0  0  0
 15  1  1  0  0  0
  1  2  2  0  0  0
  1  6  1  0  0  0
  2  3  1  0  0  0
  3 16  1  0  0  0
  3  4  2  0  0  0
 16 17  1  0  0  0
 17 18  2  0  0  0
 17 27  1  0  0  0
 18 19  1  0  0  0
 19 20  1  0  0  0
 20 21  2  0  0  0
 20 22  1  0  0  0
 22 23  1  0  0  0
 22 27  2  0  0  0
 23 24  2  0  0  0
 24 25  1  0  0  0
 25 26  2  0  0  0
 26 27  1  0  0  0
  4  5  1  0  0  0
  5  6  2  0  0  0
  6  7  1  0  0  0
M  END
> <minimizedAffinity>
-9.29340

$$$$
cs_R3_output_folder/data/smiles/10.pdb


 25 27  0  0  0  0  0  0  0  0999 V2000
   68.7371   44.9884   56.4380 N   0  0  0  0  0  0  0  0  0  0  0  0
   69.8028   44.4493   57.1936 C   0  0  0  0  0  0  0  0  0  0  0  0
   70.7187   45.2484   57.5633 O   0  0  0  0  0  0  0  0  0  0  0  0
   69.8762   43.0354   57.5514 C   0  0  0  0  0  0  0  0  0  0  0  0
   68.7742   42.2184   57.7535 C   0  0  0  0  0  0  0  0  0  0  0  0
   69.2302   40.9910   58.0743 N   0  0  0  0  0  0  0  0  0  0  0  0
   70.5506   40.9508   58.0953 N   0  0  0  0  0  0  0  0  0  0  0  0
   70.9530   42.2132   57.7722 C   0  0  0  0  0  0  0  0  0  0  0  0
   72.2495   42.5819   57.6866 F   0  0  0  0  0  0  0  0  0  0  0  0
   71.3963   39.8381   58.3904 C   0  0  0  0  0  0  0  0  0  0  0  0
   72.5683   40.0185   59.0912 C   0  0  0  0  0  0  0  0  0  0  0  0
   73.4005   38.9569   59.3858 C   0  0  0  0  0  0  0  0  0  0  0  0
   73.0632   37.6790   58.9741 C   0  0  0  0  0  0  0  0  0  0  0  0
   71.8964   37.4756   58.2725 C   0  0  0  0  0  0  0  0  0  0  0  0
   71.0834   38.5572   57.9923 C   0  0  0  0  0  0  0  0  0  0  0  0
   68.5905   46.3769   56.0477 C   0  0  0  0  0  0  0  0  0  0  0  0
   69.4131   47.7243   52.6591 C   0  0  0  0  0  0  0  0  0  0  0  0
   68.6720   46.8991   51.8043 C   0  0  0  0  0  0  0  0  0  0  0  0
   67.8939   45.8994   52.3541 C   0  0  0  0  0  0  0  0  0  0  0  0
   67.8858   45.7606   53.7211 C   0  0  0  0  0  0  0  0  0  0  0  0
   68.6208   46.5758   54.5791 C   0  0  0  0  0  0  0  0  0  0  0  0
   69.3949   47.5720   54.0307 C   0  0  0  0  0  0  0  0  0  0  0  0
   71.3561   49.2961   52.7920 N   0  0  0  0  0  0  0  0  0  0  0  0
   70.2402   48.7836   52.0931 C   0  0  0  0  0  0  0  0  0  0  0  0
   69.9686   49.2597   50.9656 O   0  0  0  0  0  0  0  0  0  0  0  0
 23 24  1  0  0  0
 24 25  2  0  0  0
 24 17  1  0  0  0
 17 18  2  0  0  0
 17 22  1  0  0  0
 18 19  1  0  0  0
 19 20  2  0  0  0
 20 21  1  0  0  0
 21 16  1  0  0  0
 21 22  2  0  0  0
 16  1  1  0  0  0
  1  2  1  0  0  0
  2  3  2  0  0  0
  2  4  1  0  0  0
  4  5  1  0  0  0
  4  8  2  0  0  0
  5  6  2  0  0  0
  6  7  1  0  0  0
  7 10  1  0  0  0
  7  8  1  0  0  0
 10 11  2  0  0  0
 10 15  1  0  0  0
 11 12  1  0  0  0
 12 13  2  0  0  0
 13 14  1  0  0  0
 14 15  2  0  0  0
  8  9  1  0  0  0
M  END
> <minimizedAffinity>
-8.76306

$$$$
cs_R3_output_folder/data/smiles/11.pdb


 22 23  0  0  0  0  0  0  0  0999 V2000
   70.0865   44.4636   56.9933 N   0  0  0  0  0  0  0  0  0  0  0  0
   69.9610   45.5852   57.8557 C   0  0  0  0  0  0  0  0  0  0  0  0
   69.8720   45.3451   59.0856 O   0  0  0  0  0  0  0  0  0  0  0  0
   70.2824   40.4091   58.3162 C   0  0  0  0  0  0  0  0  0  0  0  0
   71.4111   41.2216   58.1923 C   0  0  0  0  0  0  0  0  0  0  0  0
   71.3208   42.5236   57.7630 C   0  0  0  0  0  0  0  0  0  0  0  0
   70.1147   43.1100   57.4267 C   0  0  0  0  0  0  0  0  0  0  0  0
   68.9941   42.3164   57.5452 C   0  0  0  0  0  0  0  0  0  0  0  0
   69.0862   40.9982   57.9802 C   0  0  0  0  0  0  0  0  0  0  0  0
   71.4659   38.2381   58.3878 C   0  0  0  0  0  0  0  0  0  0  0  0
   70.4194   39.0980   58.7544 O   0  0  0  0  0  0  0  0  0  0  0  0
   69.9323   46.9846   57.3343 C   0  0  0  0  0  0  0  0  0  0  0  0
   68.7060   47.2308   56.5401 C   0  0  0  0  0  0  0  0  0  0  0  0
   67.6755   47.5826   57.1672 O   0  0  0  0  0  0  0  0  0  0  0  0
   68.6405   47.0850   55.1058 C   0  0  0  0  0  0  0  0  0  0  0  0
   69.2319   48.0115   54.2940 C   0  0  0  0  0  0  0  0  0  0  0  0
   69.1958   47.9187   52.8972 C   0  0  0  0  0  0  0  0  0  0  0  0
   68.5485   46.8644   52.3106 C   0  0  0  0  0  0  0  0  0  0  0  0
   68.5025   46.7582   50.9604 F   0  0  0  0  0  0  0  0  0  0  0  0
   67.9524   45.9283   53.1300 C   0  0  0  0  0  0  0  0  0  0  0  0
   67.3122   44.8878   52.5742 F   0  0  0  0  0  0  0  0  0  0  0  0
   67.9850   46.0173   54.5080 C   0  0  0  0  0  0  0  0  0  0  0  0
 10 11  1  0  0  0
 11  4  1  0  0  0
  4  5  2  0  0  0
  4  9  1  0  0  0
  5  6  1  0  0  0
  6  7  2  0  0  0
  7  1  1  0  0  0
  7  8  1  0  0  0
  1  2  1  0  0  0
  2  3  2  0  0  0
  2 12  1  0  0  0
 12 13  1  0  0  0
 13 14  2  0  0  0
 13 15  1  0  0  0
 15 16  2  0  0  0
 15 22  1  0  0  0
 16 17  1  0  0  0
 17 18  2  0  0  0
 18 19  1  0  0  0
 18 20  1  0  0  0
 20 21  1  0  0  0
 20 22  2  0  0  0
  8  9  2  0  0  0
M  END
> <minimizedAffinity>
-7.89223

$$$$
cs_R3_output_folder/data/smiles/12.pdb


 32 36  0  0  0  0  0  0  0  0999 V2000
   70.8309   46.1700   58.3388 C   0  0  0  0  0  0  0  0  0  0  0  0
   71.9382   46.9043   58.6939 C   0  0  0  0  0  0  0  0  0  0  0  0
   72.0882   48.2011   58.2656 C   0  0  0  0  0  0  0  0  0  0  0  0
   71.1177   48.7603   57.4747 C   0  0  0  0  0  0  0  0  0  0  0  0
   69.9783   48.0650   57.0843 C   0  0  0  0  0  0  0  0  0  0  0  0
   69.8777   46.7830   57.5361 C   0  0  0  0  0  0  0  0  0  0  0  0
   69.6342   44.4197   59.3484 O   0  0  0  0  0  0  0  0  0  0  0  0
   70.7003   44.8078   58.8392 C   0  0  0  0  0  0  0  0  0  0  0  0
   71.7952   43.9360   58.7361 N   0  0  0  0  0  0  0  0  0  0  0  0
   73.0571   44.4291   58.1398 C   0  0  0  0  0  0  0  0  0  0  0  0
   73.5774   43.2681   57.3355 C   0  0  0  0  0  0  0  0  0  0  0  0
   74.0804   42.1659   58.2637 C   0  0  0  0  0  0  0  0  0  0  0  0
   73.2499   42.1848   59.4963 C   0  0  0  0  0  0  0  0  0  0  0  0
   71.8169   42.5643   59.1472 C   0  0  0  0  0  0  0  0  0  0  0  0
   75.5299   42.4440   58.5156 C   0  0  0  0  0  0  0  0  0  0  0  0
   75.9212   43.0055   59.7230 C   0  0  0  0  0  0  0  0  0  0  0  0
   77.2357   43.2949   59.9956 C   0  0  0  0  0  0  0  0  0  0  0  0
   78.1715   43.0018   59.0067 C   0  0  0  0  0  0  0  0  0  0  0  0
   77.7963   42.4395   57.7985 C   0  0  0  0  0  0  0  0  0  0  0  0
   76.4816   42.1868   57.6126 N   0  0  0  0  0  0  0  0  0  0  0  0
   69.0038   48.7582   56.2207 C   0  0  0  0  0  0  0  0  0  0  0  0
   69.4106   48.6303   54.8302 C   0  0  0  0  0  0  0  0  0  0  0  0
   70.3117   49.5300   54.3352 N   0  0  0  0  0  0  0  0  0  0  0  0
   70.6862   49.5399   53.0732 N   0  0  0  0  0  0  0  0  0  0  0  0
   70.2069   48.6593   52.1812 C   0  0  0  0  0  0  0  0  0  0  0  0
   70.5659   48.6592   50.9567 O   0  0  0  0  0  0  0  0  0  0  0  0
   69.2819   47.6959   52.5780 C   0  0  0  0  0  0  0  0  0  0  0  0
   68.7889   46.7617   51.6913 C   0  0  0  0  0  0  0  0  0  0  0  0
   67.8977   45.8038   52.1189 C   0  0  0  0  0  0  0  0  0  0  0  0
   67.5067   45.7955   53.4568 C   0  0  0  0  0  0  0  0  0  0  0  0
   68.0246   46.7483   54.3104 C   0  0  0  0  0  0  0  0  0  0  0  0
   68.9179   47.7289   53.9234 C   0  0  0  0  0  0  0  0  0  0  0  0
  7  8  2  0  0  0
  8  1  1  0  0  0
  8  9  1  0  0  0
  1  2  2  0  0  0
  1  6  1  0  0  0
  2  3  1  0  0  0
  3  4  2  0  0  0
  4  5  1  0  0  0
  5 21  1  0  0  0
  5  6  2  0  0  0
 21 22  1  0  0  0
 22 23  2  0  0  0
 22 32  1  0  0  0
 23 24  1  0  0  0
 24 25  1  0  0  0
 25 26  2  0  0  0
 25 27  1  0  0  0
 27 28  1  0  0  0
 27 32  2  0  0  0
 28 29  2  0  0  0
 29 30  1  0  0  0
 30 31  2  0  0  0
 31 32  1  0  0  0
  9 10  1  0  0  0
  9 14  1  0  0  0
 10 11  1  0  0  0
 11 12  1  0  0  0
 12 15  1  0  0  0
 12 13  1  0  0  0
 15 16  2  0  0  0
 15 20  1  0  0  0
 16 17  1  0  0  0
 17 18  2  0  0  0
 18 19  1  0  0  0
 19 20  2  0  0  0
 13 14  1  0  0  0
M  END
> <minimizedAffinity>
-10.10702

$$$$
cs_R3_output_folder/data/smiles/13.pdb


 24 26  0  0  0  0  0  0  0  0999 V2000
   69.0701   47.8916   55.0975 N   0  0  0  0  0  0  0  0  0  0  0  0
   69.9107   48.9272   54.9245 C   0  0  0  0  0  0  0  0  0  0  0  0
   70.3967   49.3704   53.7008 C   0  0  0  0  0  0  0  0  0  0  0  0
   69.9838   48.6959   52.5835 C   0  0  0  0  0  0  0  0  0  0  0  0
   70.3631   49.0175   51.4349 O   0  0  0  0  0  0  0  0  0  0  0  0
   69.1038   47.6084   52.7409 C   0  0  0  0  0  0  0  0  0  0  0  0
   68.7158   46.9444   51.5968 C   0  0  0  0  0  0  0  0  0  0  0  0
   67.8640   45.8685   51.7157 C   0  0  0  0  0  0  0  0  0  0  0  0
   67.4294   45.4903   52.9588 C   0  0  0  0  0  0  0  0  0  0  0  0
   67.8376   46.1769   54.0895 C   0  0  0  0  0  0  0  0  0  0  0  0
   68.6817   47.2499   54.0005 C   0  0  0  0  0  0  0  0  0  0  0  0
   71.3113   50.5180   53.6687 C   0  0  0  0  0  0  0  0  0  0  0  0
   70.8654   51.6698   53.3384 O   0  0  0  0  0  0  0  0  0  0  0  0
   72.6817   50.4826   53.9746 N   0  0  0  0  0  0  0  0  0  0  0  0
   73.4489   51.6284   53.9105 O   0  0  0  0  0  0  0  0  0  0  0  0
   68.6130   47.5594   56.4273 C   0  0  0  0  0  0  0  0  0  0  0  0
   71.6274   45.6903   58.8691 C   0  0  0  0  0  0  0  0  0  0  0  0
   70.8375   44.9490   58.0222 C   0  0  0  0  0  0  0  0  0  0  0  0
   69.8499   45.5258   57.2123 C   0  0  0  0  0  0  0  0  0  0  0  0
   69.6493   46.8799   57.2536 C   0  0  0  0  0  0  0  0  0  0  0  0
   70.4605   47.6263   58.1223 C   0  0  0  0  0  0  0  0  0  0  0  0
   71.4278   47.0568   58.9136 C   0  0  0  0  0  0  0  0  0  0  0  0
   72.8535   45.6995   60.9306 C   0  0  0  0  0  0  0  0  0  0  0  0
   72.6130   45.0998   59.6743 O   0  0  0  0  0  0  0  0  0  0  0  0
 23 24  1  0  0  0
 24 17  1  0  0  0
 17 18  2  0  0  0
 17 22  1  0  0  0
 18 19  1  0  0  0
 19 20  2  0  0  0
 20 16  1  0  0  0
 20 21  1  0  0  0
 16  1  1  0  0  0
  1  2  1  0  0  0
  1 11  1  0  0  0
  2  3  2  0  0  0
  3 12  1  0  0  0
  3  4  1  0  0  0
 12 13  2  0  0  0
 12 14  1  0  0  0
 14 15  1  0  0  0
  4  5  2  0  0  0
  4  6  1  0  0  0
  6  7  1  0  0  0
  6 11  2  0  0  0
  7  8  2  0  0  0
  8  9  1  0  0  0
  9 10  2  0  0  0
 10 11  1  0  0  0
 21 22  2  0  0  0
M  END
> <minimizedAffinity>
-8.37506

$$$$
cs_R3_output_folder/data/smiles/14.pdb


 24 26  0  0  0  0  0  0  0  0999 V2000
   67.9542   45.4217   54.6935 C   0  0  0  0  0  0  0  0  0  0  0  0
   68.6182   46.5634   54.0146 C   0  0  0  0  0  0  0  0  0  0  0  0
   69.0807   46.4607   52.7570 N   0  0  0  0  0  0  0  0  0  0  0  0
   69.6820   47.4817   52.1282 C   0  0  0  0  0  0  0  0  0  0  0  0
   70.0978   47.3277   50.9465 O   0  0  0  0  0  0  0  0  0  0  0  0
   69.8355   48.6602   52.7670 N   0  0  0  0  0  0  0  0  0  0  0  0
   69.3924   48.8456   54.0455 C   0  0  0  0  0  0  0  0  0  0  0  0
   68.7894   47.7974   54.6572 C   0  0  0  0  0  0  0  0  0  0  0  0
   69.5518   50.1828   54.5659 C   0  0  0  0  0  0  0  0  0  0  0  0
   68.5930   51.1430   54.7098 C   0  0  0  0  0  0  0  0  0  0  0  0
   68.8867   52.4054   55.2126 C   0  0  0  0  0  0  0  0  0  0  0  0
   70.1658   52.7382   55.5892 C   0  0  0  0  0  0  0  0  0  0  0  0
   71.1678   51.7978   55.4621 C   0  0  0  0  0  0  0  0  0  0  0  0
   70.8451   50.5732   54.9661 C   0  0  0  0  0  0  0  0  0  0  0  0
   70.4992   54.0189   56.1063 N   0  0  0  0  0  0  0  0  0  0  0  0
   71.5774   54.5198   55.7951 O   0  0  0  0  0  0  0  0  0  0  0  0
   69.6536   54.7020   56.9366 O   0  0  0  0  0  0  0  0  0  0  0  0
   68.2501   47.9172   56.0134 C   0  0  0  0  0  0  0  0  0  0  0  0
   69.3334   47.9545   57.0340 C   0  0  0  0  0  0  0  0  0  0  0  0
   70.0955   46.8573   57.3095 C   0  0  0  0  0  0  0  0  0  0  0  0
   71.1377   46.8796   58.2498 C   0  0  0  0  0  0  0  0  0  0  0  0
   71.3664   48.0733   58.8994 C   0  0  0  0  0  0  0  0  0  0  0  0
   70.6232   49.2048   58.6553 C   0  0  0  0  0  0  0  0  0  0  0  0
   69.6172   49.1310   57.7275 C   0  0  0  0  0  0  0  0  0  0  0  0
  1  2  1  0  0  0
  2  3  1  0  0  0
  2  8  2  0  0  0
  3  4  1  0  0  0
  4  5  2  0  0  0
  4  6  1  0  0  0
  6  7  2  0  0  0
  7  9  1  0  0  0
  7  8  1  0  0  0
  9 10  2  0  0  0
  9 14  1  0  0  0
 10 11  1  0  0  0
 11 12  2  0  0  0
 12 15  1  0  0  0
 12 13  1  0  0  0
 15 16  2  0  0  0
 15 17  1  0  0  0
 13 14  2  0  0  0
  8 18  1  0  0  0
 18 19  1  0  0  0
 19 20  2  0  0  0
 19 24  1  0  0  0
 20 21  1  0  0  0
 21 22  2  0  0  0
 22 23  1  0  0  0
 23 24  2  0  0  0
M  CHG 1  15   1
M  CHG 1  17  -1
M  END
> <minimizedAffinity>
-7.13796

$$$$
cs_R3_output_folder/data/smiles/15.pdb


 21 23  0  0  0  0  0  0  0  0999 V2000
   69.0638   47.8057   53.0660 C   0  0  0  0  0  0  0  0  0  0  0  0
   68.4505   47.1257   51.9880 C   0  0  0  0  0  0  0  0  0  0  0  0
   67.7393   45.9771   52.1880 C   0  0  0  0  0  0  0  0  0  0  0  0
   66.9880   45.1615   50.8089 Cl  0  0  0  0  0  0  0  0  0  0  0  0
   67.6056   45.4522   53.4572 C   0  0  0  0  0  0  0  0  0  0  0  0
   68.1999   46.1104   54.5113 C   0  0  0  0  0  0  0  0  0  0  0  0
   68.9292   47.2878   54.3226 C   0  0  0  0  0  0  0  0  0  0  0  0
   71.4689   48.9296   52.8867 O   0  0  0  0  0  0  0  0  0  0  0  0
   69.9855   49.2270   52.6789 S   0  0  0  0  0  0  0  0  0  0  0  0
   69.8895   49.5985   51.2209 O   0  0  0  0  0  0  0  0  0  0  0  0
   69.6310   50.5819   53.7063 C   0  0  0  0  0  0  0  0  0  0  0  0
   68.3950   51.0208   54.0675 C   0  0  0  0  0  0  0  0  0  0  0  0
   68.2213   52.1022   54.8834 C   0  0  0  0  0  0  0  0  0  0  0  0
   69.2953   52.7987   55.3798 C   0  0  0  0  0  0  0  0  0  0  0  0
   70.5485   52.3642   55.0216 C   0  0  0  0  0  0  0  0  0  0  0  0
   71.6404   53.0198   55.4850 F   0  0  0  0  0  0  0  0  0  0  0  0
   70.7155   51.2818   54.2042 C   0  0  0  0  0  0  0  0  0  0  0  0
   69.4722   47.9222   55.5310 C   0  0  0  0  0  0  0  0  0  0  0  0
   68.4781   48.2797   56.5113 N   0  0  0  0  0  0  0  0  0  0  0  0
   67.7577   49.0559   57.4119 N   0  0  0  0  0  0  0  0  0  0  0  0
   67.4029   47.8668   57.2756 N   0  0  0  0  0  0  0  0  0  0  0  0
  8  9  2  0  0  0
  9 10  2  0  0  0
  9 11  1  0  0  0
  9  1  1  0  0  0
 11 12  2  0  0  0
 11 17  1  0  0  0
 12 13  1  0  0  0
 13 14  2  0  0  0
 14 15  1  0  0  0
 15 16  1  0  0  0
 15 17  2  0  0  0
  1  2  2  0  0  0
  1  7  1  0  0  0
  2  3  1  0  0  0
  3  4  1  0  0  0
  3  5  2  0  0  0
  5  6  1  0  0  0
  6  7  2  0  0  0
  7 18  1  0  0  0
 18 19  1  0  0  0
 19 20  1  0  0  0
 19 21  1  0  0  0
 20 21  2  0  0  0
M  END
> <minimizedAffinity>
-7.97385

$$$$
cs_R3_output_folder/data/smiles/16.pdb


 25 27  0  0  0  0  0  0  0  0999 V2000
   70.8072   41.9330   58.6097 C   0  0  0  0  0  0  0  0  0  0  0  0
   69.6459   41.4923   57.8290 C   0  0  0  0  0  0  0  0  0  0  0  0
   68.9093   42.3659   57.0146 C   0  0  0  0  0  0  0  0  0  0  0  0
   67.9277   41.5897   56.4633 C   0  0  0  0  0  0  0  0  0  0  0  0
   68.0845   40.3451   56.9278 N   0  0  0  0  0  0  0  0  0  0  0  0
   69.1310   40.2673   57.7663 N   0  0  0  0  0  0  0  0  0  0  0  0
   69.5774   39.0915   58.4494 C   0  0  0  0  0  0  0  0  0  0  0  0
   68.8680   38.4919   59.4696 C   0  0  0  0  0  0  0  0  0  0  0  0
   69.3131   37.3438   60.1127 C   0  0  0  0  0  0  0  0  0  0  0  0
   70.4956   36.7495   59.7540 C   0  0  0  0  0  0  0  0  0  0  0  0
   71.0883   35.2895   60.5500 Cl  0  0  0  0  0  0  0  0  0  0  0  0
   71.2199   37.3353   58.7348 C   0  0  0  0  0  0  0  0  0  0  0  0
   70.7729   38.4811   58.0951 C   0  0  0  0  0  0  0  0  0  0  0  0
   69.1907   43.7807   56.8654 C   0  0  0  0  0  0  0  0  0  0  0  0
   70.1691   44.3366   57.4391 O   0  0  0  0  0  0  0  0  0  0  0  0
   68.3622   44.6114   56.0471 N   0  0  0  0  0  0  0  0  0  0  0  0
   68.6359   46.0365   55.8602 C   0  0  0  0  0  0  0  0  0  0  0  0
   68.5471   46.3105   54.4121 C   0  0  0  0  0  0  0  0  0  0  0  0
   67.7670   45.4857   53.6321 C   0  0  0  0  0  0  0  0  0  0  0  0
   67.6937   45.7096   52.2557 C   0  0  0  0  0  0  0  0  0  0  0  0
   68.3934   46.7430   51.6926 C   0  0  0  0  0  0  0  0  0  0  0  0
   69.1756   47.5774   52.4513 C   0  0  0  0  0  0  0  0  0  0  0  0
   69.2261   47.3323   53.7979 C   0  0  0  0  0  0  0  0  0  0  0  0
   69.9540   48.6512   51.7884 C   0  0  0  0  0  0  0  0  0  0  0  0
   70.9301   49.2325   52.5455 O   0  0  0  0  0  0  0  0  0  0  0  0
  1  2  1  0  0  0
  2  3  2  0  0  0
  2  6  1  0  0  0
  3 14  1  0  0  0
  3  4  1  0  0  0
 14 15  2  0  0  0
 14 16  1  0  0  0
 16 17  1  0  0  0
 17 18  1  0  0  0
 18 19  2  0  0  0
 18 23  1  0  0  0
 19 20  1  0  0  0
 20 21  2  0  0  0
 21 22  1  0  0  0
 22 24  1  0  0  0
 22 23  2  0  0  0
 24 25  1  0  0  0
  4  5  2  0  0  0
  5  6  1  0  0  0
  6  7  1  0  0  0
  7  8  2  0  0  0
  7 13  1  0  0  0
  8  9  1  0  0  0
  9 10  2  0  0  0
 10 11  1  0  0  0
 10 12  1  0  0  0
 12 13  2  0  0  0
M  END
> <minimizedAffinity>
-8.81709

$$$$
cs_R3_output_folder/data/smiles/17.pdb


 19 20  0  0  0  0  0  0  0  0999 V2000
   71.2251   51.4049   54.7585 S   0  0  0  0  0  0  0  0  0  0  0  0
   71.5137   52.1335   53.4691 O   0  0  0  0  0  0  0  0  0  0  0  0
   70.6000   52.3779   55.7268 O   0  0  0  0  0  0  0  0  0  0  0  0
   76.2680   49.1025   57.2395 C   0  0  0  0  0  0  0  0  0  0  0  0
   75.0247   49.6654   56.6350 C   0  0  0  0  0  0  0  0  0  0  0  0
   73.7853   49.4636   57.1988 C   0  0  0  0  0  0  0  0  0  0  0  0
   72.6434   49.9888   56.6306 C   0  0  0  0  0  0  0  0  0  0  0  0
   72.6895   50.7470   55.4618 C   0  0  0  0  0  0  0  0  0  0  0  0
   73.9386   50.9419   54.9077 C   0  0  0  0  0  0  0  0  0  0  0  0
   75.0842   50.4144   55.4783 C   0  0  0  0  0  0  0  0  0  0  0  0
   70.1408   50.0866   54.4934 N   0  0  0  0  0  0  0  0  0  0  0  0
   70.3412   49.0726   53.5334 C   0  0  0  0  0  0  0  0  0  0  0  0
   71.3885   49.1552   52.8358 O   0  0  0  0  0  0  0  0  0  0  0  0
   69.4295   47.9630   53.3093 C   0  0  0  0  0  0  0  0  0  0  0  0
   68.7724   47.3162   54.3324 C   0  0  0  0  0  0  0  0  0  0  0  0
   67.9028   46.2530   54.0722 C   0  0  0  0  0  0  0  0  0  0  0  0
   67.6918   45.8360   52.7840 C   0  0  0  0  0  0  0  0  0  0  0  0
   68.3301   46.4604   51.7594 C   0  0  0  0  0  0  0  0  0  0  0  0
   69.1821   47.5062   52.0358 C   0  0  0  0  0  0  0  0  0  0  0  0
  4  5  1  0  0  0
  5  6  2  0  0  0
  5 10  1  0  0  0
  6  7  1  0  0  0
  7  8  2  0  0  0
  8  1  1  0  0  0
  8  9  1  0  0  0
  1  2  2  0  0  0
  1  3  2  0  0  0
  1 11  1  0  0  0
 11 12  1  0  0  0
 12 13  2  0  0  0
 12 14  1  0  0  0
 14 15  2  0  0  0
 14 19  1  0  0  0
 15 16  1  0  0  0
 16 17  2  0  0  0
 17 18  1  0  0  0
 18 19  2  0  0  0
  9 10  2  0  0  0
M  END
> <minimizedAffinity>
-6.48984

$$$$
cs_R3_output_folder/data/smiles/18.pdb


 24 26  0  0  0  0  0  0  0  0999 V2000
   68.8349   48.1209   56.8917 C   0  0  0  0  0  0  0  0  0  0  0  0
   67.5414   48.3778   57.2945 C   0  0  0  0  0  0  0  0  0  0  0  0
   67.1536   49.6767   57.6054 C   0  0  0  0  0  0  0  0  0  0  0  0
   68.0255   50.7430   57.5271 C   0  0  0  0  0  0  0  0  0  0  0  0
   67.6441   52.0137   57.8318 F   0  0  0  0  0  0  0  0  0  0  0  0
   69.3330   50.4800   57.1195 C   0  0  0  0  0  0  0  0  0  0  0  0
   69.7030   49.1761   56.8127 C   0  0  0  0  0  0  0  0  0  0  0  0
   70.2664   51.5487   57.0244 N   0  0  0  0  0  0  0  0  0  0  0  0
   70.1905   52.5121   55.9777 C   0  0  0  0  0  0  0  0  0  0  0  0
   69.3750   52.3632   55.0334 O   0  0  0  0  0  0  0  0  0  0  0  0
   71.0582   53.6942   55.9790 C   0  0  0  0  0  0  0  0  0  0  0  0
   71.8690   53.8430   57.2243 C   0  0  0  0  0  0  0  0  0  0  0  0
   72.4331   52.5515   57.7443 C   0  0  0  0  0  0  0  0  0  0  0  0
   71.2903   51.6379   58.0067 C   0  0  0  0  0  0  0  0  0  0  0  0
   71.1856   50.9509   59.0397 O   0  0  0  0  0  0  0  0  0  0  0  0
   69.3146   46.7550   56.5441 C   0  0  0  0  0  0  0  0  0  0  0  0
   67.0249   45.1062   51.6477 N   0  0  0  0  0  0  0  0  0  0  0  0
   67.6189   45.5618   52.8524 C   0  0  0  0  0  0  0  0  0  0  0  0
   67.4758   44.8404   53.9763 N   0  0  0  0  0  0  0  0  0  0  0  0
   68.0298   45.2748   55.0835 N   0  0  0  0  0  0  0  0  0  0  0  0
   68.7441   46.3984   55.2007 C   0  0  0  0  0  0  0  0  0  0  0  0
   68.9201   47.1677   54.0887 C   0  0  0  0  0  0  0  0  0  0  0  0
   68.3527   46.7459   52.9042 C   0  0  0  0  0  0  0  0  0  0  0  0
   68.4792   47.4465   51.7654 F   0  0  0  0  0  0  0  0  0  0  0  0
 17 18  1  0  0  0
 18 19  2  0  0  0
 18 23  1  0  0  0
 19 20  1  0  0  0
 20 21  2  0  0  0
 21 16  1  0  0  0
 21 22  1  0  0  0
 16  1  1  0  0  0
  1  2  2  0  0  0
  1  7  1  0  0  0
  2  3  1  0  0  0
  3  4  2  0  0  0
  4  5  1  0  0  0
  4  6  1  0  0  0
  6  8  1  0  0  0
  6  7  2  0  0  0
  8  9  1  0  0  0
  8 14  1  0  0  0
  9 10  2  0  0  0
  9 11  1  0  0  0
 11 12  1  0  0  0
 12 13  1  0  0  0
 13 14  1  0  0  0
 14 15  2  0  0  0
 22 23  2  0  0  0
 23 24  1  0  0  0
M  END
> <minimizedAffinity>
-7.93373

$$$$
cs_R3_output_folder/data/smiles/19.pdb


 25 27  0  0  0  0  0  0  0  0999 V2000
   70.4511   39.5217   58.6526 C   0  0  0  0  0  0  0  0  0  0  0  0
   71.0513   40.7528   58.6384 C   0  0  0  0  0  0  0  0  0  0  0  0
   70.4716   41.8252   57.9854 C   0  0  0  0  0  0  0  0  0  0  0  0
   69.2736   41.6620   57.3370 C   0  0  0  0  0  0  0  0  0  0  0  0
   68.6744   40.4192   57.3560 C   0  0  0  0  0  0  0  0  0  0  0  0
   69.2536   39.3341   58.0120 C   0  0  0  0  0  0  0  0  0  0  0  0
   67.4600   40.5307   56.6174 N   0  0  0  0  0  0  0  0  0  0  0  0
   67.2971   41.8600   56.1312 C   0  0  0  0  0  0  0  0  0  0  0  0
   66.3706   42.3464   55.4491 O   0  0  0  0  0  0  0  0  0  0  0  0
   68.4551   42.6055   56.5838 C   0  0  0  0  0  0  0  0  0  0  0  0
   68.6926   43.8723   56.3478 N   0  0  0  0  0  0  0  0  0  0  0  0
   72.0473   38.8647   60.4150 C   0  0  0  0  0  0  0  0  0  0  0  0
   71.0800   38.3875   59.3528 C   0  0  0  0  0  0  0  0  0  0  0  0
   71.8849   37.5195   58.3945 C   0  0  0  0  0  0  0  0  0  0  0  0
   70.0194   37.4740   59.9547 C   0  0  0  0  0  0  0  0  0  0  0  0
   67.8278   44.6576   55.6143 N   0  0  0  0  0  0  0  0  0  0  0  0
   68.2739   45.7416   54.8399 C   0  0  0  0  0  0  0  0  0  0  0  0
   68.8100   46.8724   55.4202 C   0  0  0  0  0  0  0  0  0  0  0  0
   69.2467   47.9355   54.6490 C   0  0  0  0  0  0  0  0  0  0  0  0
   69.1643   47.9070   53.2735 C   0  0  0  0  0  0  0  0  0  0  0  0
   68.6296   46.7818   52.6820 C   0  0  0  0  0  0  0  0  0  0  0  0
   68.1903   45.7122   53.4688 C   0  0  0  0  0  0  0  0  0  0  0  0
   69.7067   49.2353   52.2621 S   0  0  0  0  0  0  0  0  0  0  0  0
   70.6036   50.1681   53.0500 O   0  0  0  0  0  0  0  0  0  0  0  0
   70.5085   48.7036   51.1081 O   0  0  0  0  0  0  0  0  0  0  0  0
 12 13  1  0  0  0
 13 14  1  0  0  0
 13 15  1  0  0  0
 13  1  1  0  0  0
  1  2  2  0  0  0
  1  6  1  0  0  0
  2  3  1  0  0  0
  3  4  2  0  0  0
  4  5  1  0  0  0
  4 10  1  0  0  0
  5  6  2  0  0  0
  5  7  1  0  0  0
  7  8  1  0  0  0
  8  9  2  0  0  0
  8 10  1  0  0  0
 10 11  2  0  0  0
 11 16  1  0  0  0
 16 17  1  0  0  0
 17 18  2  0  0  0
 17 22  1  0  0  0
 18 19  1  0  0  0
 19 20  2  0  0  0
 20 23  1  0  0  0
 20 21  1  0  0  0
 23 24  2  0  0  0
 23 25  2  0  0  0
 21 22  2  0  0  0
M  END
> <minimizedAffinity>
-9.29903

$$$$
cs_R3_output_folder/data/smiles/20.pdb


 19 20  0  0  0  0  0  0  0  0999 V2000
   70.7496   51.1274   54.5636 N   0  0  0  0  0  0  0  0  0  0  0  0
   69.8337   50.1342   54.0384 C   0  0  0  0  0  0  0  0  0  0  0  0
   68.6343   50.4326   53.8017 O   0  0  0  0  0  0  0  0  0  0  0  0
   70.2457   48.8155   53.7769 N   0  0  0  0  0  0  0  0  0  0  0  0
   69.3924   47.8026   53.2696 C   0  0  0  0  0  0  0  0  0  0  0  0
   68.7483   46.9790   54.1689 C   0  0  0  0  0  0  0  0  0  0  0  0
   67.8975   45.9592   53.7850 C   0  0  0  0  0  0  0  0  0  0  0  0
   67.6665   45.7336   52.4438 C   0  0  0  0  0  0  0  0  0  0  0  0
   68.3049   46.5505   51.5376 C   0  0  0  0  0  0  0  0  0  0  0  0
   69.1642   47.5813   51.9267 C   0  0  0  0  0  0  0  0  0  0  0  0
   70.2884   52.4521   54.8102 C   0  0  0  0  0  0  0  0  0  0  0  0
   69.8459   52.8393   56.1554 C   0  0  0  0  0  0  0  0  0  0  0  0
   71.0103   51.0497   58.2688 C   0  0  0  0  0  0  0  0  0  0  0  0
   69.5713   51.0928   57.8870 C   0  0  0  0  0  0  0  0  0  0  0  0
   68.7757   50.2386   58.5799 N   0  0  0  0  0  0  0  0  0  0  0  0
   67.4778   50.1190   58.2974 C   0  0  0  0  0  0  0  0  0  0  0  0
   66.8998   50.8509   57.3029 C   0  0  0  0  0  0  0  0  0  0  0  0
   67.6875   51.7132   56.6012 C   0  0  0  0  0  0  0  0  0  0  0  0
   69.0565   51.8526   56.8835 C   0  0  0  0  0  0  0  0  0  0  0  0
 13 14  1  0  0  0
 14 15  2  0  0  0
 14 19  1  0  0  0
 15 16  1  0  0  0
 16 17  2  0  0  0
 17 18  1  0  0  0
 18 19  2  0  0  0
 19 12  1  0  0  0
 12 11  1  0  0  0
 11  1  1  0  0  0
  1  2  1  0  0  0
  2  3  2  0  0  0
  2  4  1  0  0  0
  4  5  1  0  0  0
  5  6  2  0  0  0
  5 10  1  0  0  0
  6  7  1  0  0  0
  7  8  2  0  0  0
  8  9  1  0  0  0
  9 10  2  0  0  0
M  END
> <minimizedAffinity>
-6.53806

$$$$
cs_R3_output_folder/data/smiles/21.pdb


 25 27  0  0  0  0  0  0  0  0999 V2000
   68.4613   43.8319   56.2709 C   0  0  0  0  0  0  0  0  0  0  0  0
   67.6849   42.7819   55.8426 C   0  0  0  0  0  0  0  0  0  0  0  0
   67.6757   41.5860   56.5616 C   0  0  0  0  0  0  0  0  0  0  0  0
   68.4277   41.4671   57.6716 N   0  0  0  0  0  0  0  0  0  0  0  0
   69.1865   42.4958   58.0885 C   0  0  0  0  0  0  0  0  0  0  0  0
   69.1803   43.6223   57.3911 N   0  0  0  0  0  0  0  0  0  0  0  0
   68.6129   47.5773   54.1516 C   0  0  0  0  0  0  0  0  0  0  0  0
   68.0566   46.4446   53.5949 C   0  0  0  0  0  0  0  0  0  0  0  0
   68.0166   45.2523   54.2882 C   0  0  0  0  0  0  0  0  0  0  0  0
   68.5250   45.1258   55.5665 C   0  0  0  0  0  0  0  0  0  0  0  0
   69.0794   46.2506   56.1260 C   0  0  0  0  0  0  0  0  0  0  0  0
   69.1233   47.4638   55.4269 C   0  0  0  0  0  0  0  0  0  0  0  0
   69.8914   50.4422   51.9969 N   0  0  0  0  0  0  0  0  0  0  0  0
   69.8156   49.2107   52.6911 C   0  0  0  0  0  0  0  0  0  0  0  0
   70.7635   48.3759   52.6717 O   0  0  0  0  0  0  0  0  0  0  0  0
   68.6680   48.8210   53.4609 N   0  0  0  0  0  0  0  0  0  0  0  0
   69.9813   42.3347   59.2823 N   0  0  0  0  0  0  0  0  0  0  0  0
   69.5495   42.8299   60.5330 C   0  0  0  0  0  0  0  0  0  0  0  0
   68.4347   43.4187   60.5543 O   0  0  0  0  0  0  0  0  0  0  0  0
   70.3093   42.6950   61.7592 C   0  0  0  0  0  0  0  0  0  0  0  0
   71.5310   43.3078   61.9353 C   0  0  0  0  0  0  0  0  0  0  0  0
   72.2382   43.1557   63.1327 C   0  0  0  0  0  0  0  0  0  0  0  0
   71.7385   42.4086   64.1343 N   0  0  0  0  0  0  0  0  0  0  0  0
   70.5423   41.8016   63.9778 C   0  0  0  0  0  0  0  0  0  0  0  0
   69.8248   41.9367   62.8032 C   0  0  0  0  0  0  0  0  0  0  0  0
 13 14  1  0  0  0
 14 15  2  0  0  0
 14 16  1  0  0  0
 16  7  1  0  0  0
  7  8  2  0  0  0
  7 12  1  0  0  0
  8  9  1  0  0  0
  9 10  2  0  0  0
 10  1  1  0  0  0
 10 11  1  0  0  0
  1  2  2  0  0  0
  1  6  1  0  0  0
  2  3  1  0  0  0
  3  4  2  0  0  0
  4  5  1  0  0  0
  5 17  1  0  0  0
  5  6  2  0  0  0
 17 18  1  0  0  0
 18 19  2  0  0  0
 18 20  1  0  0  0
 20 21  2  0  0  0
 20 25  1  0  0  0
 21 22  1  0  0  0
 22 23  2  0  0  0
 23 24  1  0  0  0
 24 25  2  0  0  0
 11 12  2  0  0  0
M  END
> <minimizedAffinity>
-7.49174

$$$$
cs_R3_output_folder/data/smiles/22.pdb


 21 22  0  0  0  0  0  0  0  0999 V2000
   69.6131   48.3693   55.1730 N   0  0  0  0  0  0  0  0  0  0  0  0
   68.9242   49.3829   55.8866 C   0  0  0  0  0  0  0  0  0  0  0  0
   69.0186   50.7075   55.4262 C   0  0  0  0  0  0  0  0  0  0  0  0
   69.8185   50.9404   54.3539 F   0  0  0  0  0  0  0  0  0  0  0  0
   68.3379   51.7413   56.0201 C   0  0  0  0  0  0  0  0  0  0  0  0
   68.4820   53.0036   55.5121 F   0  0  0  0  0  0  0  0  0  0  0  0
   67.5501   51.4946   57.0796 N   0  0  0  0  0  0  0  0  0  0  0  0
   67.4335   50.2299   57.5532 C   0  0  0  0  0  0  0  0  0  0  0  0
   66.6286   50.0062   58.6300 F   0  0  0  0  0  0  0  0  0  0  0  0
   68.1044   49.1789   56.9764 C   0  0  0  0  0  0  0  0  0  0  0  0
   67.9892   47.8999   57.4439 F   0  0  0  0  0  0  0  0  0  0  0  0
   69.0713   47.5147   52.9671 C   0  0  0  0  0  0  0  0  0  0  0  0
   68.4402   46.5013   52.2164 C   0  0  0  0  0  0  0  0  0  0  0  0
   67.7994   45.4271   52.7997 C   0  0  0  0  0  0  0  0  0  0  0  0
   67.7782   45.3456   54.1727 C   0  0  0  0  0  0  0  0  0  0  0  0
   68.3749   46.3038   54.9402 C   0  0  0  0  0  0  0  0  0  0  0  0
   69.0295   47.4038   54.3133 C   0  0  0  0  0  0  0  0  0  0  0  0
   69.8744   50.3425   50.5800 N   0  0  0  0  0  0  0  0  0  0  0  0
   69.1743   49.3305   51.2604 N   0  0  0  0  0  0  0  0  0  0  0  0
   69.7678   48.5424   52.2711 C   0  0  0  0  0  0  0  0  0  0  0  0
   70.9811   48.8150   52.5255 O   0  0  0  0  0  0  0  0  0  0  0  0
 18 19  1  0  0  0
 19 20  1  0  0  0
 20 21  2  0  0  0
 20 12  1  0  0  0
 12 13  2  0  0  0
 12 17  1  0  0  0
 13 14  1  0  0  0
 14 15  2  0  0  0
 15 16  1  0  0  0
 16 17  2  0  0  0
 17  1  1  0  0  0
  1  2  1  0  0  0
  2  3  2  0  0  0
  2 10  1  0  0  0
  3  4  1  0  0  0
  3  5  1  0  0  0
  5  6  1  0  0  0
  5  7  2  0  0  0
  7  8  1  0  0  0
  8  9  1  0  0  0
  8 10  2  0  0  0
 10 11  1  0  0  0
M  END
> <minimizedAffinity>
-8.33596

$$$$
cs_R3_output_folder/data/smiles/23.pdb


 22 24  0  0  0  0  0  0  0  0999 V2000
   71.1553   52.6993   55.7727 C   0  0  0  0  0  0  0  0  0  0  0  0
   71.6250   53.9306   56.1646 C   0  0  0  0  0  0  0  0  0  0  0  0
   72.7589   54.4972   55.6219 C   0  0  0  0  0  0  0  0  0  0  0  0
   73.4405   53.8063   54.6556 C   0  0  0  0  0  0  0  0  0  0  0  0
   72.9905   52.5565   54.2362 C   0  0  0  0  0  0  0  0  0  0  0  0
   71.8562   52.0136   54.7937 C   0  0  0  0  0  0  0  0  0  0  0  0
   70.0533   51.3175   57.5135 C   0  0  0  0  0  0  0  0  0  0  0  0
   68.9676   50.6611   58.0450 C   0  0  0  0  0  0  0  0  0  0  0  0
   67.7576   50.6963   57.4047 C   0  0  0  0  0  0  0  0  0  0  0  0
   67.6432   51.4000   56.2172 C   0  0  0  0  0  0  0  0  0  0  0  0
   68.7496   52.0619   55.6880 C   0  0  0  0  0  0  0  0  0  0  0  0
   69.9796   52.0390   56.3171 C   0  0  0  0  0  0  0  0  0  0  0  0
   71.9033   50.0608   58.4989 C   0  0  0  0  0  0  0  0  0  0  0  0
   71.2739   51.2837   58.1577 O   0  0  0  0  0  0  0  0  0  0  0  0
   71.3436   50.7195   54.3562 C   0  0  0  0  0  0  0  0  0  0  0  0
   71.6013   49.6675   55.0320 O   0  0  0  0  0  0  0  0  0  0  0  0
   70.5689   50.6179   53.1949 N   0  0  0  0  0  0  0  0  0  0  0  0
   70.0679   49.3750   52.7451 C   0  0  0  0  0  0  0  0  0  0  0  0
   70.3874   48.8314   51.5333 N   0  0  0  0  0  0  0  0  0  0  0  0
   69.7863   47.6777   51.3720 N   0  0  0  0  0  0  0  0  0  0  0  0
   69.0560   47.4286   52.4629 C   0  0  0  0  0  0  0  0  0  0  0  0
   69.2434   48.4798   53.2896 N   0  0  0  0  0  0  0  0  0  0  0  0
 13 14  1  0  0  0
 14  7  1  0  0  0
  7  8  2  0  0  0
  7 12  1  0  0  0
  8  9  1  0  0  0
  9 10  2  0  0  0
 10 11  1  0  0  0
 11 12  2  0  0  0
 12  1  1  0  0  0
  1  2  2  0  0  0
  1  6  1  0  0  0
  2  3  1  0  0  0
  3  4  2  0  0  0
  4  5  1  0  0  0
  5  6  2  0  0  0
  6 15  1  0  0  0
 15 16  2  0  0  0
 15 17  1  0  0  0
 17 18  1  0  0  0
 18 19  2  0  0  0
 18 22  1  0  0  0
 19 20  1  0  0  0
 20 21  2  0  0  0
 21 22  1  0  0  0
M  END
> <minimizedAffinity>
-6.85514

$$$$
cs_R3_output_folder/data/smiles/24.pdb


 27 28  0  0  0  0  0  0  0  0999 V2000
   69.4666   50.8132   56.7916 C   0  0  0  0  0  0  0  0  0  0  0  0
   69.2376   52.0701   57.0418 C   0  0  0  0  0  0  0  0  0  0  0  0
   68.9929   52.9894   55.9848 C   0  0  0  0  0  0  0  0  0  0  0  0
   68.9917   52.5117   54.6608 C   0  0  0  0  0  0  0  0  0  0  0  0
   69.1980   51.2562   54.3350 C   0  0  0  0  0  0  0  0  0  0  0  0
   69.4513   50.3111   55.4354 C   0  0  0  0  0  0  0  0  0  0  0  0
   70.6756   49.1118   58.2619 C   0  0  0  0  0  0  0  0  0  0  0  0
   70.1725   49.8183   57.6398 C   0  0  0  0  0  0  0  0  0  0  0  0
   72.0099   47.2851   59.9109 C   0  0  0  0  0  0  0  0  0  0  0  0
   71.4033   48.1297   59.1464 C   0  0  0  0  0  0  0  0  0  0  0  0
   73.6193   48.4585   61.4730 C   0  0  0  0  0  0  0  0  0  0  0  0
   73.5494   46.9432   61.6017 C   0  0  0  0  0  0  0  0  0  0  0  0
   72.6406   46.3679   60.7145 C   0  0  0  0  0  0  0  0  0  0  0  0
   74.4171   46.3131   62.4978 C   0  0  0  0  0  0  0  0  0  0  0  0
   75.0270   45.2408   62.0254 O   0  0  0  0  0  0  0  0  0  0  0  0
   74.7699   46.6027   63.8190 N   0  0  0  0  0  0  0  0  0  0  0  0
   75.6748   45.7822   64.4876 O   0  0  0  0  0  0  0  0  0  0  0  0
   69.2652   50.6335   53.0692 N   0  0  0  0  0  0  0  0  0  0  0  0
   69.9602   49.1791   52.5783 S   0  0  0  0  0  0  0  0  0  0  0  0
   70.1705   49.1983   51.0356 O   0  0  0  0  0  0  0  0  0  0  0  0
   71.3922   49.0676   53.1112 O   0  0  0  0  0  0  0  0  0  0  0  0
   69.1330   47.7342   52.9338 C   0  0  0  0  0  0  0  0  0  0  0  0
   68.5766   46.9050   51.9647 C   0  0  0  0  0  0  0  0  0  0  0  0
   67.9095   45.7948   52.2690 C   0  0  0  0  0  0  0  0  0  0  0  0
   67.7175   45.3884   53.5772 C   0  0  0  0  0  0  0  0  0  0  0  0
   68.2409   46.1776   54.5574 C   0  0  0  0  0  0  0  0  0  0  0  0
   68.9258   47.3095   54.2723 C   0  0  0  0  0  0  0  0  0  0  0  0
 11 12  1  0  0  0
 12 13  2  0  0  0
 12 14  1  0  0  0
 13  9  1  0  0  0
  9 10  3  0  0  0
 10  7  1  0  0  0
  7  8  3  0  0  0
  8  1  1  0  0  0
  1  2  2  0  0  0
  1  6  1  0  0  0
  2  3  1  0  0  0
  3  4  2  0  0  0
  4  5  1  0  0  0
  5 18  1  0  0  0
  5  6  2  0  0  0
 18 19  1  0  0  0
 19 20  2  0  0  0
 19 21  2  0  0  0
 19 22  1  0  0  0
 22 23  2  0  0  0
 22 27  1  0  0  0
 23 24  1  0  0  0
 24 25  2  0  0  0
 25 26  1  0  0  0
 26 27  2  0  0  0
 14 15  2  0  0  0
 14 16  1  0  0  0
 16 17  1  0  0  0
M  END
> <minimizedAffinity>
-8.79351

$$$$
cs_R3_output_folder/data/smiles/25.pdb


 26 27  0  0  0  0  0  0  0  0999 V2000
   69.9151   49.2811   52.5485 S   0  0  0  0  0  0  0  0  0  0  0  0
   71.4046   49.1262   52.8421 O   0  0  0  0  0  0  0  0  0  0  0  0
   69.8313   49.3537   51.0348 O   0  0  0  0  0  0  0  0  0  0  0  0
   69.1530   47.8272   53.1258 C   0  0  0  0  0  0  0  0  0  0  0  0
   69.2362   47.5590   54.4784 C   0  0  0  0  0  0  0  0  0  0  0  0
   69.8798   48.4454   55.2909 F   0  0  0  0  0  0  0  0  0  0  0  0
   68.6814   46.4168   55.0047 C   0  0  0  0  0  0  0  0  0  0  0  0
   68.7685   46.1597   56.3441 F   0  0  0  0  0  0  0  0  0  0  0  0
   68.0256   45.5057   54.2022 C   0  0  0  0  0  0  0  0  0  0  0  0
   67.4889   44.3960   54.7316 F   0  0  0  0  0  0  0  0  0  0  0  0
   67.9564   45.8028   52.8359 C   0  0  0  0  0  0  0  0  0  0  0  0
   67.2985   44.8745   52.0787 F   0  0  0  0  0  0  0  0  0  0  0  0
   68.5049   46.9349   52.3107 C   0  0  0  0  0  0  0  0  0  0  0  0
   68.4199   47.1886   50.9947 F   0  0  0  0  0  0  0  0  0  0  0  0
   69.3565   50.7206   53.2709 N   0  0  0  0  0  0  0  0  0  0  0  0
   71.9930   52.0229   55.5864 C   0  0  0  0  0  0  0  0  0  0  0  0
   71.3518   51.2747   54.6056 C   0  0  0  0  0  0  0  0  0  0  0  0
   70.0290   51.4488   54.2715 C   0  0  0  0  0  0  0  0  0  0  0  0
   69.3602   52.4505   55.0013 C   0  0  0  0  0  0  0  0  0  0  0  0
   69.9841   53.1973   55.9736 C   0  0  0  0  0  0  0  0  0  0  0  0
   71.2914   53.0018   56.2809 C   0  0  0  0  0  0  0  0  0  0  0  0
   72.0422   53.7563   57.3092 C   0  0  0  0  0  0  0  0  0  0  0  0
   75.1721   50.0813   56.4735 C   0  0  0  0  0  0  0  0  0  0  0  0
   73.7583   50.4479   56.1943 C   0  0  0  0  0  0  0  0  0  0  0  0
   72.8951   49.5110   56.2929 O   0  0  0  0  0  0  0  0  0  0  0  0
   73.3517   51.7479   55.8365 N   0  0  0  0  0  0  0  0  0  0  0  0
 23 24  1  0  0  0
 24 25  2  0  0  0
 24 26  1  0  0  0
 26 16  1  0  0  0
 16 17  2  0  0  0
 16 21  1  0  0  0
 17 18  1  0  0  0
 18 15  1  0  0  0
 18 19  2  0  0  0
 15  1  1  0  0  0
  1  2  2  0  0  0
  1  3  2  0  0  0
  1  4  1  0  0  0
  4  5  2  0  0  0
  4 13  1  0  0  0
  5  6  1  0  0  0
  5  7  1  0  0  0
  7  8  1  0  0  0
  7  9  2  0  0  0
  9 10  1  0  0  0
  9 11  1  0  0  0
 11 12  1  0  0  0
 11 13  2  0  0  0
 13 14  1  0  0  0
 19 20  1  0  0  0
 20 21  2  0  0  0
 21 22  1  0  0  0
M  END
> <minimizedAffinity>
-9.07026

$$$$
cs_R3_output_folder/data/smiles/26.pdb


 25 28  0  0  0  0  0  0  0  0999 V2000
   71.0019   45.5748   58.1592 C   0  0  0  0  0  0  0  0  0  0  0  0
   70.0762   46.2736   57.4056 C   0  0  0  0  0  0  0  0  0  0  0  0
   70.0325   47.6274   57.2956 C   0  0  0  0  0  0  0  0  0  0  0  0
   70.9942   48.3607   57.9941 C   0  0  0  0  0  0  0  0  0  0  0  0
   71.9458   47.6948   58.7644 C   0  0  0  0  0  0  0  0  0  0  0  0
   71.9431   46.3165   58.8421 C   0  0  0  0  0  0  0  0  0  0  0  0
   72.8804   45.6660   59.6005 F   0  0  0  0  0  0  0  0  0  0  0  0
   69.2602   43.9390   59.8307 O   0  0  0  0  0  0  0  0  0  0  0  0
   70.0795   43.4286   59.0438 C   0  0  0  0  0  0  0  0  0  0  0  0
   70.2888   41.9671   58.7656 C   0  0  0  0  0  0  0  0  0  0  0  0
   71.7689   41.9654   58.4228 C   0  0  0  0  0  0  0  0  0  0  0  0
   71.8782   43.2027   57.5481 C   0  0  0  0  0  0  0  0  0  0  0  0
   70.9959   44.1545   58.2382 N   0  0  0  0  0  0  0  0  0  0  0  0
   69.0575   48.4070   56.5055 C   0  0  0  0  0  0  0  0  0  0  0  0
   69.4175   48.3799   55.0757 C   0  0  0  0  0  0  0  0  0  0  0  0
   70.3670   49.2883   54.6937 N   0  0  0  0  0  0  0  0  0  0  0  0
   70.7953   49.3922   53.4465 N   0  0  0  0  0  0  0  0  0  0  0  0
   70.3184   48.6077   52.4891 C   0  0  0  0  0  0  0  0  0  0  0  0
   70.7460   48.7287   51.3028 O   0  0  0  0  0  0  0  0  0  0  0  0
   69.3450   47.6580   52.8158 C   0  0  0  0  0  0  0  0  0  0  0  0
   68.8965   47.5495   54.1223 C   0  0  0  0  0  0  0  0  0  0  0  0
   67.8684   46.5420   54.5020 C   0  0  0  0  0  0  0  0  0  0  0  0
   67.8436   45.4606   53.4332 C   0  0  0  0  0  0  0  0  0  0  0  0
   67.6559   46.0635   52.0625 C   0  0  0  0  0  0  0  0  0  0  0  0
   68.8767   46.8244   51.6893 C   0  0  0  0  0  0  0  0  0  0  0  0
  8  9  2  0  0  0
  9 10  1  0  0  0
  9 13  1  0  0  0
 10 11  1  0  0  0
 11 12  1  0  0  0
 12 13  1  0  0  0
 13  1  1  0  0  0
  1  2  2  0  0  0
  1  6  1  0  0  0
  2  3  1  0  0  0
  3 14  1  0  0  0
  3  4  2  0  0  0
 14 15  1  0  0  0
 15 16  2  0  0  0
 15 21  1  0  0  0
 16 17  1  0  0  0
 17 18  1  0  0  0
 18 19  2  0  0  0
 18 20  1  0  0  0
 20 21  2  0  0  0
 20 25  1  0  0  0
 21 22  1  0  0  0
 22 23  1  0  0  0
 23 24  1  0  0  0
 24 25  1  0  0  0
  4  5  1  0  0  0
  5  6  2  0  0  0
  6  7  1  0  0  0
M  END
> <minimizedAffinity>
-8.46892

$$$$
cs_R3_output_folder/data/smiles/27.pdb


 32 36  0  0  0  0  0  0  0  0999 V2000
   71.8258   46.5353   58.9181 C   0  0  0  0  0  0  0  0  0  0  0  0
   72.8748   47.4162   58.5938 C   0  0  0  0  0  0  0  0  0  0  0  0
   72.6552   48.5322   57.8312 C   0  0  0  0  0  0  0  0  0  0  0  0
   71.4233   48.8456   57.3500 C   0  0  0  0  0  0  0  0  0  0  0  0
   70.3584   47.9897   57.6553 C   0  0  0  0  0  0  0  0  0  0  0  0
   70.5876   46.8983   58.4048 C   0  0  0  0  0  0  0  0  0  0  0  0
   71.6784   45.4408   60.9260 O   0  0  0  0  0  0  0  0  0  0  0  0
   72.0893   45.3795   59.7145 C   0  0  0  0  0  0  0  0  0  0  0  0
   72.7452   44.1945   59.3168 N   0  0  0  0  0  0  0  0  0  0  0  0
   72.9475   43.1100   60.2592 C   0  0  0  0  0  0  0  0  0  0  0  0
   73.2197   41.8004   59.5021 C   0  0  0  0  0  0  0  0  0  0  0  0
   72.3283   41.8012   58.3763 N   0  0  0  0  0  0  0  0  0  0  0  0
   72.6497   42.7519   57.3366 C   0  0  0  0  0  0  0  0  0  0  0  0
   73.2618   43.9695   57.9881 C   0  0  0  0  0  0  0  0  0  0  0  0
   71.2172   40.9254   58.3226 C   0  0  0  0  0  0  0  0  0  0  0  0
   71.3673   39.5597   58.5372 C   0  0  0  0  0  0  0  0  0  0  0  0
   70.2725   38.7441   58.4661 C   0  0  0  0  0  0  0  0  0  0  0  0
   68.9832   39.2056   58.1844 C   0  0  0  0  0  0  0  0  0  0  0  0
   68.8404   40.5587   57.9735 C   0  0  0  0  0  0  0  0  0  0  0  0
   69.9498   41.3669   58.0486 C   0  0  0  0  0  0  0  0  0  0  0  0
   69.0005   48.3551   57.1213 C   0  0  0  0  0  0  0  0  0  0  0  0
   68.7905   47.4905   55.9363 C   0  0  0  0  0  0  0  0  0  0  0  0
   68.1840   46.2702   56.1198 N   0  0  0  0  0  0  0  0  0  0  0  0
   67.8788   45.4686   55.1246 N   0  0  0  0  0  0  0  0  0  0  0  0
   68.1393   45.7851   53.8438 C   0  0  0  0  0  0  0  0  0  0  0  0
   67.8305   44.9911   52.9160 O   0  0  0  0  0  0  0  0  0  0  0  0
   68.7471   46.9893   53.5776 C   0  0  0  0  0  0  0  0  0  0  0  0
   69.0423   47.3241   52.2805 C   0  0  0  0  0  0  0  0  0  0  0  0
   69.6702   48.5175   52.0273 C   0  0  0  0  0  0  0  0  0  0  0  0
   69.9930   49.3511   53.0684 C   0  0  0  0  0  0  0  0  0  0  0  0
   69.6987   49.0185   54.3708 C   0  0  0  0  0  0  0  0  0  0  0  0
   69.0715   47.8385   54.6441 C   0  0  0  0  0  0  0  0  0  0  0  0
  7  8  2  0  0  0
  8  1  1  0  0  0
  8  9  1  0  0  0
  1  2  2  0  0  0
  1  6  1  0  0  0
  2  3  1  0  0  0
  3  4  2  0  0  0
  4  5  1  0  0  0
  5 21  1  0  0  0
  5  6  2  0  0  0
 21 22  1  0  0  0
 22 23  2  0  0  0
 22 32  1  0  0  0
 23 24  1  0  0  0
 24 25  1  0  0  0
 25 26  2  0  0  0
 25 27  1  0  0  0
 27 28  1  0  0  0
 27 32  2  0  0  0
 28 29  2  0  0  0
 29 30  1  0  0  0
 30 31  2  0  0  0
 31 32  1  0  0  0
  9 10  1  0  0  0
  9 14  1  0  0  0
 10 11  1  0  0  0
 11 12  1  0  0  0
 12 15  1  0  0  0
 12 13  1  0  0  0
 15 16  2  0  0  0
 15 20  1  0  0  0
 16 17  1  0  0  0
 17 18  2  0  0  0
 18 19  1  0  0  0
 19 20  2  0  0  0
 13 14  1  0  0  0
M  END
> <minimizedAffinity>
-9.45568

$$$$
cs_R3_output_folder/data/smiles/28.pdb


 20 22  0  0  0  0  0  0  0  0999 V2000
   70.8668   49.5950   54.6482 F   0  0  0  0  0  0  0  0  0  0  0  0
   70.0833   48.6842   54.0162 C   0  0  0  0  0  0  0  0  0  0  0  0
   70.0973   48.5824   52.6205 C   0  0  0  0  0  0  0  0  0  0  0  0
   69.2745   47.6677   51.9920 C   0  0  0  0  0  0  0  0  0  0  0  0
   68.4256   46.8370   52.6860 C   0  0  0  0  0  0  0  0  0  0  0  0
   68.4103   46.9337   54.0557 C   0  0  0  0  0  0  0  0  0  0  0  0
   69.2397   47.8575   54.7177 C   0  0  0  0  0  0  0  0  0  0  0  0
   67.5557   45.8654   51.9929 C   0  0  0  0  0  0  0  0  0  0  0  0
   67.0415   45.9732   50.7574 N   0  0  0  0  0  0  0  0  0  0  0  0
   66.3194   44.8905   50.5144 N   0  0  0  0  0  0  0  0  0  0  0  0
   66.3570   44.0863   51.5648 N   0  0  0  0  0  0  0  0  0  0  0  0
   67.1072   44.6867   52.4529 N   0  0  0  0  0  0  0  0  0  0  0  0
   69.2316   47.9310   56.1981 C   0  0  0  0  0  0  0  0  0  0  0  0
   68.3094   48.9643   56.7637 C   0  0  0  0  0  0  0  0  0  0  0  0
   68.7819   50.3646   56.6826 C   0  0  0  0  0  0  0  0  0  0  0  0
   68.2562   51.2550   55.7657 C   0  0  0  0  0  0  0  0  0  0  0  0
   68.7109   52.5444   55.6965 C   0  0  0  0  0  0  0  0  0  0  0  0
   69.7070   53.0354   56.5202 C   0  0  0  0  0  0  0  0  0  0  0  0
   70.2219   52.1308   57.4319 C   0  0  0  0  0  0  0  0  0  0  0  0
   69.7778   50.8340   57.5169 C   0  0  0  0  0  0  0  0  0  0  0  0
  1  2  1  0  0  0
  2  3  2  0  0  0
  2  7  1  0  0  0
  3  4  1  0  0  0
  4  5  2  0  0  0
  5  8  1  0  0  0
  5  6  1  0  0  0
  8  9  2  0  0  0
  8 12  1  0  0  0
  9 10  1  0  0  0
 10 11  2  0  0  0
 11 12  1  0  0  0
  6  7  2  0  0  0
  7 13  1  0  0  0
 13 14  1  0  0  0
 14 15  1  0  0  0
 15 16  2  0  0  0
 15 20  1  0  0  0
 16 17  1  0  0  0
 17 18  2  0  0  0
 18 19  1  0  0  0
 19 20  2  0  0  0
M  END
> <minimizedAffinity>
-7.38872

$$$$
cs_R3_output_folder/data/smiles/29.pdb


 25 27  0  0  0  0  0  0  0  0999 V2000
   74.7252   50.1722   55.7996 C   0  0  0  0  0  0  0  0  0  0  0  0
   74.3709   50.9225   54.7180 C   0  0  0  0  0  0  0  0  0  0  0  0
   73.0293   51.1483   54.3549 C   0  0  0  0  0  0  0  0  0  0  0  0
   72.0047   50.6073   55.0953 C   0  0  0  0  0  0  0  0  0  0  0  0
   72.3869   49.8521   56.1834 C   0  0  0  0  0  0  0  0  0  0  0  0
   73.6662   49.6549   56.5045 N   0  0  0  0  0  0  0  0  0  0  0  0
   76.9852   51.7948   55.5469 O   0  0  0  0  0  0  0  0  0  0  0  0
   77.1950   50.6450   56.1504 C   0  0  0  0  0  0  0  0  0  0  0  0
   76.0431   49.8817   56.2503 N   0  0  0  0  0  0  0  0  0  0  0  0
   78.5352   50.4519   56.5564 C   0  0  0  0  0  0  0  0  0  0  0  0
   79.2652   50.2402   57.5803 C   0  0  0  0  0  0  0  0  0  0  0  0
   79.0081   50.0811   58.9892 C   0  0  0  0  0  0  0  0  0  0  0  0
   79.7463   50.7808   59.8707 F   0  0  0  0  0  0  0  0  0  0  0  0
   70.5618   50.8085   54.7511 C   0  0  0  0  0  0  0  0  0  0  0  0
   70.1186   49.7386   53.8165 C   0  0  0  0  0  0  0  0  0  0  0  0
   70.4827   49.7952   52.5145 N   0  0  0  0  0  0  0  0  0  0  0  0
   70.1287   48.8899   51.6216 N   0  0  0  0  0  0  0  0  0  0  0  0
   69.3646   47.8372   51.9886 C   0  0  0  0  0  0  0  0  0  0  0  0
   69.0163   46.9592   51.1411 O   0  0  0  0  0  0  0  0  0  0  0  0
   68.9493   47.7075   53.3115 C   0  0  0  0  0  0  0  0  0  0  0  0
   69.3346   48.6679   54.2096 C   0  0  0  0  0  0  0  0  0  0  0  0
   68.9156   48.6061   55.6243 C   0  0  0  0  0  0  0  0  0  0  0  0
   68.2352   47.3296   56.0088 C   0  0  0  0  0  0  0  0  0  0  0  0
   68.6649   46.1783   55.1267 C   0  0  0  0  0  0  0  0  0  0  0  0
   68.1317   46.5430   53.7292 C   0  0  0  0  0  0  0  0  0  0  0  0
  7  8  2  0  0  0
  8 10  1  0  0  0
  8  9  1  0  0  0
 10 11  2  0  0  0
 11 12  1  0  0  0
 12 13  1  0  0  0
  9  1  1  0  0  0
  1  2  2  0  0  0
  1  6  1  0  0  0
  2  3  1  0  0  0
  3  4  2  0  0  0
  4 14  1  0  0  0
  4  5  1  0  0  0
 14 15  1  0  0  0
 15 16  2  0  0  0
 15 21  1  0  0  0
 16 17  1  0  0  0
 17 18  1  0  0  0
 18 19  2  0  0  0
 18 20  1  0  0  0
 20 21  2  0  0  0
 20 25  1  0  0  0
 21 22  1  0  0  0
 22 23  1  0  0  0
 23 24  1  0  0  0
 24 25  1  0  0  0
  5  6  2  0  0  0
M  END
> <minimizedAffinity>
-8.04637

$$$$
cs_R3_output_folder/data/smiles/30.pdb


 22 23  0  0  0  0  0  0  0  0999 V2000
   67.7876   43.8659   55.2736 N   0  0  0  0  0  0  0  0  0  0  0  0
   68.1483   45.2162   55.0835 C   0  0  0  0  0  0  0  0  0  0  0  0
   68.3867   45.9019   56.1097 O   0  0  0  0  0  0  0  0  0  0  0  0
   68.2607   45.8624   53.7786 C   0  0  0  0  0  0  0  0  0  0  0  0
   67.5336   45.4714   52.6750 C   0  0  0  0  0  0  0  0  0  0  0  0
   67.6624   46.1015   51.4546 C   0  0  0  0  0  0  0  0  0  0  0  0
   68.5289   47.1593   51.2763 C   0  0  0  0  0  0  0  0  0  0  0  0
   69.2663   47.5660   52.3681 C   0  0  0  0  0  0  0  0  0  0  0  0
   69.1292   46.9285   53.5802 C   0  0  0  0  0  0  0  0  0  0  0  0
   70.1612   48.6529   52.1969 N   0  0  0  0  0  0  0  0  0  0  0  0
   70.0200   49.3803   51.1992 O   0  0  0  0  0  0  0  0  0  0  0  0
   71.1730   48.9470   53.0715 O   0  0  0  0  0  0  0  0  0  0  0  0
   67.4602   41.2126   55.5288 O   0  0  0  0  0  0  0  0  0  0  0  0
   67.5083   41.8448   56.6269 C   0  0  0  0  0  0  0  0  0  0  0  0
   67.6795   43.2490   56.5317 N   0  0  0  0  0  0  0  0  0  0  0  0
   67.3884   41.1288   57.9072 C   0  0  0  0  0  0  0  0  0  0  0  0
   66.6635   41.6532   58.9555 C   0  0  0  0  0  0  0  0  0  0  0  0
   66.5239   41.0188   60.1689 C   0  0  0  0  0  0  0  0  0  0  0  0
   67.1235   39.7967   60.3907 C   0  0  0  0  0  0  0  0  0  0  0  0
   67.0134   39.1169   61.5950 O   0  0  0  0  0  0  0  0  0  0  0  0
   67.8552   39.2465   59.3599 C   0  0  0  0  0  0  0  0  0  0  0  0
   67.9851   39.9087   58.1315 C   0  0  0  0  0  0  0  0  0  0  0  0
 13 14  2  0  0  0
 14 15  1  0  0  0
 14 16  1  0  0  0
 15  1  1  0  0  0
  1  2  1  0  0  0
  2  3  2  0  0  0
  2  4  1  0  0  0
  4  5  2  0  0  0
  4  9  1  0  0  0
  5  6  1  0  0  0
  6  7  2  0  0  0
  7  8  1  0  0  0
  8 10  1  0  0  0
  8  9  2  0  0  0
 10 11  2  0  0  0
 10 12  1  0  0  0
 16 17  2  0  0  0
 16 22  1  0  0  0
 17 18  1  0  0  0
 18 19  2  0  0  0
 19 20  1  0  0  0
 19 21  1  0  0  0
 21 22  2  0  0  0
M  CHG 1  10   1
M  CHG 1  12  -1
M  END
> <minimizedAffinity>
-8.46908

$$$$
cs_R3_output_folder/data/smiles/31.pdb


 23 25  0  0  0  0  0  0  0  0999 V2000
   69.5897   37.1969   61.1005 C   0  0  0  0  0  0  0  0  0  0  0  0
   69.3025   38.4454   60.3418 C   0  0  0  0  0  0  0  0  0  0  0  0
   69.5196   39.6811   60.8956 C   0  0  0  0  0  0  0  0  0  0  0  0
   69.2753   40.8941   60.2497 C   0  0  0  0  0  0  0  0  0  0  0  0
   68.7853   40.7902   58.9690 C   0  0  0  0  0  0  0  0  0  0  0  0
   68.5175   41.9149   58.2281 C   0  0  0  0  0  0  0  0  0  0  0  0
   68.7237   43.0262   58.7377 O   0  0  0  0  0  0  0  0  0  0  0  0
   68.0458   41.7937   56.9744 N   0  0  0  0  0  0  0  0  0  0  0  0
   67.8260   40.5943   56.4214 C   0  0  0  0  0  0  0  0  0  0  0  0
   67.3836   40.4438   55.2469 O   0  0  0  0  0  0  0  0  0  0  0  0
   68.0810   39.4952   57.1269 N   0  0  0  0  0  0  0  0  0  0  0  0
   68.5535   39.5379   58.3811 C   0  0  0  0  0  0  0  0  0  0  0  0
   68.8098   38.3908   59.0609 C   0  0  0  0  0  0  0  0  0  0  0  0
   69.5023   42.1957   60.9605 C   0  0  0  0  0  0  0  0  0  0  0  0
   69.2918   42.0967   62.4215 C   0  0  0  0  0  0  0  0  0  0  0  0
   67.9612   42.5278   62.8832 C   0  0  0  0  0  0  0  0  0  0  0  0
   67.0518   41.5445   63.4776 C   0  0  0  0  0  0  0  0  0  0  0  0
   66.4854   40.4420   62.6976 C   0  0  0  0  0  0  0  0  0  0  0  0
   65.9400   40.7255   61.4388 C   0  0  0  0  0  0  0  0  0  0  0  0
   65.4813   39.7134   60.6550 C   0  0  0  0  0  0  0  0  0  0  0  0
   65.5125   38.3843   61.0137 C   0  0  0  0  0  0  0  0  0  0  0  0
   66.0585   38.1366   62.2652 C   0  0  0  0  0  0  0  0  0  0  0  0
   66.5255   39.1234   63.0728 C   0  0  0  0  0  0  0  0  0  0  0  0
  1  2  1  0  0  0
  2  3  2  0  0  0
  2 13  1  0  0  0
  3  4  1  0  0  0
  4 14  1  0  0  0
  4  5  2  0  0  0
 14 15  1  0  0  0
 15 16  1  0  0  0
 16 17  1  0  0  0
 17 18  1  0  0  0
 18 19  2  0  0  0
 18 23  1  0  0  0
 19 20  1  0  0  0
 20 21  2  0  0  0
 21 22  1  0  0  0
 22 23  2  0  0  0
  5  6  1  0  0  0
  5 12  1  0  0  0
  6  7  2  0  0  0
  6  8  1  0  0  0
  8  9  1  0  0  0
  9 10  2  0  0  0
  9 11  1  0  0  0
 11 12  1  0  0  0
 12 13  2  0  0  0
M  END
> <minimizedAffinity>
-5.93729

$$$$
cs_R3_output_folder/data/smiles/32.pdb


 30 33  0  0  0  0  0  0  0  0999 V2000
   71.0980   45.6254   58.1408 C   0  0  0  0  0  0  0  0  0  0  0  0
   71.7653   46.5049   58.9575 C   0  0  0  0  0  0  0  0  0  0  0  0
   71.4134   47.8368   58.9889 C   0  0  0  0  0  0  0  0  0  0  0  0
   70.3858   48.3109   58.2027 C   0  0  0  0  0  0  0  0  0  0  0  0
   69.6754   47.4492   57.3529 C   0  0  0  0  0  0  0  0  0  0  0  0
   70.0623   46.1369   57.3579 C   0  0  0  0  0  0  0  0  0  0  0  0
   70.5220   43.2739   58.5584 C   0  0  0  0  0  0  0  0  0  0  0  0
   69.4343   43.7042   59.0420 O   0  0  0  0  0  0  0  0  0  0  0  0
   71.4279   44.2423   58.0737 N   0  0  0  0  0  0  0  0  0  0  0  0
   70.0294   39.5208   58.4685 C   0  0  0  0  0  0  0  0  0  0  0  0
   69.7548   40.8934   58.4877 C   0  0  0  0  0  0  0  0  0  0  0  0
   70.7684   41.8238   58.5319 C   0  0  0  0  0  0  0  0  0  0  0  0
   72.0631   41.3531   58.5566 C   0  0  0  0  0  0  0  0  0  0  0  0
   72.3380   39.9934   58.5379 C   0  0  0  0  0  0  0  0  0  0  0  0
   71.3258   39.0549   58.4933 C   0  0  0  0  0  0  0  0  0  0  0  0
   71.6429   37.5995   58.4746 C   0  0  0  0  0  0  0  0  0  0  0  0
   67.6618   38.9763   58.7419 C   0  0  0  0  0  0  0  0  0  0  0  0
   68.9890   38.6043   58.4235 O   0  0  0  0  0  0  0  0  0  0  0  0
   68.5743   48.0200   56.5420 C   0  0  0  0  0  0  0  0  0  0  0  0
   68.9970   48.3136   55.1723 C   0  0  0  0  0  0  0  0  0  0  0  0
   69.5605   49.5405   54.9407 N   0  0  0  0  0  0  0  0  0  0  0  0
   70.0044   49.9306   53.7821 N   0  0  0  0  0  0  0  0  0  0  0  0
   69.9180   49.0885   52.7223 C   0  0  0  0  0  0  0  0  0  0  0  0
   70.3421   49.4617   51.6196 O   0  0  0  0  0  0  0  0  0  0  0  0
   69.3599   47.8491   52.9107 C   0  0  0  0  0  0  0  0  0  0  0  0
   68.8861   47.4207   54.1226 C   0  0  0  0  0  0  0  0  0  0  0  0
   68.2924   46.1106   54.2835 C   0  0  0  0  0  0  0  0  0  0  0  0
   67.6127   45.5788   53.0521 C   0  0  0  0  0  0  0  0  0  0  0  0
   67.8258   46.3790   51.8028 C   0  0  0  0  0  0  0  0  0  0  0  0
   69.2459   46.8991   51.7522 C   0  0  0  0  0  0  0  0  0  0  0  0
 17 18  1  0  0  0
 18 10  1  0  0  0
 10 11  2  0  0  0
 10 15  1  0  0  0
 11 12  1  0  0  0
 12  7  1  0  0  0
 12 13  2  0  0  0
  7  8  2  0  0  0
  7  9  1  0  0  0
  9  1  1  0  0  0
  1  2  2  0  0  0
  1  6  1  0  0  0
  2  3  1  0  0  0
  3  4  2  0  0  0
  4  5  1  0  0  0
  5 19  1  0  0  0
  5  6  2  0  0  0
 19 20  1  0  0  0
 20 21  2  0  0  0
 20 26  1  0  0  0
 21 22  1  0  0  0
 22 23  1  0  0  0
 23 24  2  0  0  0
 23 25  1  0  0  0
 25 26  2  0  0  0
 25 30  1  0  0  0
 26 27  1  0  0  0
 27 28  1  0  0  0
 28 29  1  0  0  0
 29 30  1  0  0  0
 13 14  1  0  0  0
 14 15  2  0  0  0
 15 16  1  0  0  0
M  END
> <minimizedAffinity>
-9.50037

$$$$
cs_R3_output_folder/data/smiles/33.pdb


 25 27  0  0  0  0  0  0  0  0999 V2000
   72.6111   50.3218   54.2086 N   0  0  0  0  0  0  0  0  0  0  0  0
   71.2804   50.4641   53.7536 C   0  0  0  0  0  0  0  0  0  0  0  0
   70.8207   51.6389   53.5063 O   0  0  0  0  0  0  0  0  0  0  0  0
   70.4126   49.3228   53.5599 C   0  0  0  0  0  0  0  0  0  0  0  0
   70.3101   48.6974   52.3203 C   0  0  0  0  0  0  0  0  0  0  0  0
   69.5304   47.5788   52.1292 C   0  0  0  0  0  0  0  0  0  0  0  0
   69.4669   47.0476   50.9970 O   0  0  0  0  0  0  0  0  0  0  0  0
   68.8567   47.0896   53.1713 N   0  0  0  0  0  0  0  0  0  0  0  0
   68.0380   45.9245   53.0496 C   0  0  0  0  0  0  0  0  0  0  0  0
   68.9303   47.6699   54.3913 C   0  0  0  0  0  0  0  0  0  0  0  0
   68.2146   47.1368   55.4607 C   0  0  0  0  0  0  0  0  0  0  0  0
   68.2810   47.7277   56.7191 C   0  0  0  0  0  0  0  0  0  0  0  0
   69.0610   48.8481   56.9075 C   0  0  0  0  0  0  0  0  0  0  0  0
   69.7910   49.4108   55.8666 C   0  0  0  0  0  0  0  0  0  0  0  0
   69.7073   48.8055   54.6310 C   0  0  0  0  0  0  0  0  0  0  0  0
   73.4981   51.4481   54.4469 C   0  0  0  0  0  0  0  0  0  0  0  0
   73.2985   52.0929   55.7892 C   0  0  0  0  0  0  0  0  0  0  0  0
   73.8146   51.3295   56.7937 O   0  0  0  0  0  0  0  0  0  0  0  0
   71.8249   46.8909   59.7151 C   0  0  0  0  0  0  0  0  0  0  0  0
   72.3331   48.0827   58.9484 C   0  0  0  0  0  0  0  0  0  0  0  0
   73.3735   47.9328   58.0687 C   0  0  0  0  0  0  0  0  0  0  0  0
   73.8287   49.0345   57.3782 C   0  0  0  0  0  0  0  0  0  0  0  0
   73.2930   50.3042   57.5214 C   0  0  0  0  0  0  0  0  0  0  0  0
   72.2394   50.4133   58.4233 C   0  0  0  0  0  0  0  0  0  0  0  0
   71.7635   49.3136   59.1303 C   0  0  0  0  0  0  0  0  0  0  0  0
 19 20  1  0  0  0
 20 21  2  0  0  0
 20 25  1  0  0  0
 21 22  1  0  0  0
 22 23  2  0  0  0
 23 18  1  0  0  0
 23 24  1  0  0  0
 18 17  1  0  0  0
 17 16  1  0  0  0
 16  1  1  0  0  0
  1  2  1  0  0  0
  2  3  2  0  0  0
  2  4  1  0  0  0
  4  5  2  0  0  0
  4 15  1  0  0  0
  5  6  1  0  0  0
  6  7  2  0  0  0
  6  8  1  0  0  0
  8  9  1  0  0  0
  8 10  1  0  0  0
 10 11  1  0  0  0
 10 15  2  0  0  0
 11 12  2  0  0  0
 12 13  1  0  0  0
 13 14  2  0  0  0
 14 15  1  0  0  0
 24 25  2  0  0  0
M  END
> <minimizedAffinity>
-7.07461

$$$$
cs_R3_output_folder/data/smiles/34.pdb


 26 29  0  0  0  0  0  0  0  0999 V2000
   73.2480   49.1901   57.4413 C   0  0  0  0  0  0  0  0  0  0  0  0
   71.9753   49.4004   56.8850 C   0  0  0  0  0  0  0  0  0  0  0  0
   71.7580   50.2063   55.8059 C   0  0  0  0  0  0  0  0  0  0  0  0
   72.8814   50.8385   55.2496 C   0  0  0  0  0  0  0  0  0  0  0  0
   74.1337   50.6556   55.7663 C   0  0  0  0  0  0  0  0  0  0  0  0
   74.3097   49.8352   56.8560 C   0  0  0  0  0  0  0  0  0  0  0  0
   75.5416   49.6367   57.3870 F   0  0  0  0  0  0  0  0  0  0  0  0
   73.6361   50.0795   60.1015 O   0  0  0  0  0  0  0  0  0  0  0  0
   73.2630   48.8994   59.8767 C   0  0  0  0  0  0  0  0  0  0  0  0
   72.7282   48.0324   60.8676 N   0  0  0  0  0  0  0  0  0  0  0  0
   72.3581   46.6865   60.5942 C   0  0  0  0  0  0  0  0  0  0  0  0
   72.7599   46.1379   59.3593 N   0  0  0  0  0  0  0  0  0  0  0  0
   73.5794   46.9127   58.5019 C   0  0  0  0  0  0  0  0  0  0  0  0
   73.3617   48.3424   58.5580 N   0  0  0  0  0  0  0  0  0  0  0  0
   70.4238   50.4552   55.2237 C   0  0  0  0  0  0  0  0  0  0  0  0
   70.1417   49.5289   54.1447 C   0  0  0  0  0  0  0  0  0  0  0  0
   70.7336   49.7208   52.9498 N   0  0  0  0  0  0  0  0  0  0  0  0
   70.5679   48.9283   51.9052 N   0  0  0  0  0  0  0  0  0  0  0  0
   69.7638   47.8487   51.9990 C   0  0  0  0  0  0  0  0  0  0  0  0
   69.5954   47.0831   51.0116 O   0  0  0  0  0  0  0  0  0  0  0  0
   69.1067   47.5582   53.1768 C   0  0  0  0  0  0  0  0  0  0  0  0
   69.3169   48.4222   54.2402 C   0  0  0  0  0  0  0  0  0  0  0  0
   68.6064   48.1527   55.4814 C   0  0  0  0  0  0  0  0  0  0  0  0
   68.6522   46.7018   55.8029 C   0  0  0  0  0  0  0  0  0  0  0  0
   68.3319   45.7651   54.7067 C   0  0  0  0  0  0  0  0  0  0  0  0
   68.2075   46.3843   53.3402 C   0  0  0  0  0  0  0  0  0  0  0  0
  8  9  2  0  0  0
  9 10  1  0  0  0
  9 14  1  0  0  0
 10 11  1  0  0  0
 11 12  1  0  0  0
 12 13  1  0  0  0
 13 14  1  0  0  0
 14  1  1  0  0  0
  1  2  2  0  0  0
  1  6  1  0  0  0
  2  3  1  0  0  0
  3 15  1  0  0  0
  3  4  2  0  0  0
 15 16  1  0  0  0
 16 17  2  0  0  0
 16 22  1  0  0  0
 17 18  1  0  0  0
 18 19  1  0  0  0
 19 20  2  0  0  0
 19 21  1  0  0  0
 21 22  2  0  0  0
 21 26  1  0  0  0
 22 23  1  0  0  0
 23 24  1  0  0  0
 24 25  1  0  0  0
 25 26  1  0  0  0
  4  5  1  0  0  0
  5  6  2  0  0  0
  6  7  1  0  0  0
M  CHG 1  12   1
M  END
> <minimizedAffinity>
-7.89330

$$$$
cs_R3_output_folder/data/smiles/35.pdb


 27 30  0  0  0  0  0  0  0  0999 V2000
   70.0808   44.8535   57.4018 C   0  0  0  0  0  0  0  0  0  0  0  0
   71.2520   44.6444   58.1206 C   0  0  0  0  0  0  0  0  0  0  0  0
   71.7426   43.3746   58.3565 C   0  0  0  0  0  0  0  0  0  0  0  0
   71.1008   42.2443   57.8955 C   0  0  0  0  0  0  0  0  0  0  0  0
   69.9393   42.4516   57.1827 C   0  0  0  0  0  0  0  0  0  0  0  0
   69.4398   43.7156   56.9399 C   0  0  0  0  0  0  0  0  0  0  0  0
   71.6432   40.9560   58.1625 N   0  0  0  0  0  0  0  0  0  0  0  0
   70.8222   39.8627   58.5569 C   0  0  0  0  0  0  0  0  0  0  0  0
   69.5878   40.1286   58.6488 O   0  0  0  0  0  0  0  0  0  0  0  0
   71.3349   38.5710   58.8277 N   0  0  0  0  0  0  0  0  0  0  0  0
   70.5112   37.4514   59.2309 C   0  0  0  0  0  0  0  0  0  0  0  0
   71.4755   36.2649   59.3393 C   0  0  0  0  0  0  0  0  0  0  0  0
   72.5806   36.6929   58.4340 C   0  0  0  0  0  0  0  0  0  0  0  0
   72.6126   36.2000   57.0323 C   0  0  0  0  0  0  0  0  0  0  0  0
   73.6957   35.8442   58.0506 C   0  0  0  0  0  0  0  0  0  0  0  0
   72.7204   38.1626   58.7502 C   0  0  0  0  0  0  0  0  0  0  0  0
   69.4396   46.4532   57.1309 S   0  0  0  0  0  0  0  0  0  0  0  0
   70.5426   47.3881   56.6380 O   0  0  0  0  0  0  0  0  0  0  0  0
   69.0083   47.0727   58.4523 O   0  0  0  0  0  0  0  0  0  0  0  0
   68.1935   46.4537   55.9892 N   0  0  0  0  0  0  0  0  0  0  0  0
   69.9423   48.6951   51.9492 C   0  0  0  0  0  0  0  0  0  0  0  0
   69.1646   47.6417   52.6434 C   0  0  0  0  0  0  0  0  0  0  0  0
   68.5288   46.6939   51.8462 C   0  0  0  0  0  0  0  0  0  0  0  0
   67.7973   45.6975   52.4186 C   0  0  0  0  0  0  0  0  0  0  0  0
   67.6919   45.6348   53.7699 C   0  0  0  0  0  0  0  0  0  0  0  0
   68.3227   46.5749   54.5824 C   0  0  0  0  0  0  0  0  0  0  0  0
   69.0607   47.5813   54.0142 C   0  0  0  0  0  0  0  0  0  0  0  0
 21 22  1  0  0  0
 22 23  2  0  0  0
 22 27  1  0  0  0
 23 24  1  0  0  0
 24 25  2  0  0  0
 25 26  1  0  0  0
 26 20  1  0  0  0
 26 27  2  0  0  0
 20 17  1  0  0  0
 17 18  2  0  0  0
 17 19  2  0  0  0
 17  1  1  0  0  0
  1  2  2  0  0  0
  1  6  1  0  0  0
  2  3  1  0  0  0
  3  4  2  0  0  0
  4  7  1  0  0  0
  4  5  1  0  0  0
  7  8  1  0  0  0
  8  9  2  0  0  0
  8 10  1  0  0  0
 10 11  1  0  0  0
 10 16  1  0  0  0
 11 12  1  0  0  0
 12 13  1  0  0  0
 13 14  1  0  0  0
 13 15  1  0  0  0
 13 16  1  0  0  0
 14 15  1  0  0  0
  5  6  2  0  0  0
M  END
> <minimizedAffinity>
-8.46790

$$$$
cs_R3_output_folder/data/smiles/36.pdb


 22 24  0  0  0  0  0  0  0  0999 V2000
   70.1118   49.5746   55.1152 C   0  0  0  0  0  0  0  0  0  0  0  0
   70.0558   49.2000   53.7934 N   0  0  0  0  0  0  0  0  0  0  0  0
   69.3534   48.1305   53.4061 C   0  0  0  0  0  0  0  0  0  0  0  0
   69.2971   47.7490   52.0680 C   0  0  0  0  0  0  0  0  0  0  0  0
   68.5820   46.6513   51.6398 C   0  0  0  0  0  0  0  0  0  0  0  0
   67.8808   45.8694   52.5331 C   0  0  0  0  0  0  0  0  0  0  0  0
   67.9316   46.2402   53.8595 C   0  0  0  0  0  0  0  0  0  0  0  0
   68.6501   47.3463   54.2937 C   0  0  0  0  0  0  0  0  0  0  0  0
   68.6987   47.7042   55.5785 N   0  0  0  0  0  0  0  0  0  0  0  0
   69.4148   48.8022   55.9936 C   0  0  0  0  0  0  0  0  0  0  0  0
   72.5350   52.9761   56.0878 C   0  0  0  0  0  0  0  0  0  0  0  0
   71.1890   53.1360   55.8469 C   0  0  0  0  0  0  0  0  0  0  0  0
   70.4089   52.0336   55.5421 C   0  0  0  0  0  0  0  0  0  0  0  0
   70.8999   50.7577   55.4604 C   0  0  0  0  0  0  0  0  0  0  0  0
   72.2690   50.6048   55.7079 C   0  0  0  0  0  0  0  0  0  0  0  0
   73.0505   51.7016   56.0130 C   0  0  0  0  0  0  0  0  0  0  0  0
   73.4163   54.3732   57.9045 C   0  0  0  0  0  0  0  0  0  0  0  0
   73.3823   54.1447   56.4155 C   0  0  0  0  0  0  0  0  0  0  0  0
   74.6944   53.9313   55.9813 O   0  0  0  0  0  0  0  0  0  0  0  0
   69.3428   49.1818   57.4014 C   0  0  0  0  0  0  0  0  0  0  0  0
   70.2112   48.9069   58.2412 O   0  0  0  0  0  0  0  0  0  0  0  0
   68.2428   49.9021   57.8847 O   0  0  0  0  0  0  0  0  0  0  0  0
 18 17  1  0  0  0
 18 19  1  0  0  0
 18 11  1  0  0  0
 11 12  2  0  0  0
 11 16  1  0  0  0
 12 13  1  0  0  0
 13 14  2  0  0  0
 14  1  1  0  0  0
 14 15  1  0  0  0
  1  2  2  0  0  0
  1 10  1  0  0  0
  2  3  1  0  0  0
  3  4  2  0  0  0
  3  8  1  0  0  0
  4  5  1  0  0  0
  5  6  2  0  0  0
  6  7  1  0  0  0
  7  8  2  0  0  0
  8  9  1  0  0  0
  9 10  2  0  0  0
 10 20  1  0  0  0
 20 21  2  0  0  0
 20 22  1  0  0  0
 15 16  2  0  0  0
M  END
> <minimizedAffinity>
-6.36515

$$$$
cs_R3_output_folder/data/smiles/37.pdb


 27 28  0  0  0  0  0  0  0  0999 V2000
   71.2025   46.7012   58.5828 S   0  0  0  0  0  0  0  0  0  0  0  0
   71.0877   47.0336   60.0489 O   0  0  0  0  0  0  0  0  0  0  0  0
   71.8231   47.8886   57.8904 O   0  0  0  0  0  0  0  0  0  0  0  0
   72.2354   45.3226   58.3237 C   0  0  0  0  0  0  0  0  0  0  0  0
   73.6216   45.3745   58.3897 C   0  0  0  0  0  0  0  0  0  0  0  0
   74.1447   46.6058   58.6768 F   0  0  0  0  0  0  0  0  0  0  0  0
   74.4364   44.2809   58.1844 C   0  0  0  0  0  0  0  0  0  0  0  0
   75.8005   44.4104   58.2662 F   0  0  0  0  0  0  0  0  0  0  0  0
   73.8670   43.0576   57.8968 C   0  0  0  0  0  0  0  0  0  0  0  0
   74.6824   41.9879   57.6963 F   0  0  0  0  0  0  0  0  0  0  0  0
   72.4945   42.9499   57.8196 C   0  0  0  0  0  0  0  0  0  0  0  0
   71.9777   41.7306   57.5346 F   0  0  0  0  0  0  0  0  0  0  0  0
   71.7054   44.0600   58.0300 C   0  0  0  0  0  0  0  0  0  0  0  0
   70.3600   43.9568   57.9546 F   0  0  0  0  0  0  0  0  0  0  0  0
   69.6445   46.4931   57.9022 N   0  0  0  0  0  0  0  0  0  0  0  0
   68.8849   48.1045   54.6126 C   0  0  0  0  0  0  0  0  0  0  0  0
   69.2673   47.9454   55.9310 C   0  0  0  0  0  0  0  0  0  0  0  0
   69.2550   46.7306   56.5768 C   0  0  0  0  0  0  0  0  0  0  0  0
   68.8259   45.6304   55.8211 C   0  0  0  0  0  0  0  0  0  0  0  0
   68.4507   45.8002   54.5190 C   0  0  0  0  0  0  0  0  0  0  0  0
   68.4684   47.0237   53.8859 C   0  0  0  0  0  0  0  0  0  0  0  0
   70.1021   51.1177   52.6372 N   0  0  0  0  0  0  0  0  0  0  0  0
   70.0722   49.8530   53.2840 C   0  0  0  0  0  0  0  0  0  0  0  0
   71.0710   49.0787   53.2934 O   0  0  0  0  0  0  0  0  0  0  0  0
   68.9062   49.3780   53.9649 N   0  0  0  0  0  0  0  0  0  0  0  0
   68.0698   47.1278   52.5483 O   0  0  0  0  0  0  0  0  0  0  0  0
   68.9879   46.8149   51.5998 F   0  0  0  0  0  0  0  0  0  0  0  0
 22 23  1  0  0  0
 23 24  2  0  0  0
 23 25  1  0  0  0
 25 16  1  0  0  0
 16 17  2  0  0  0
 16 21  1  0  0  0
 17 18  1  0  0  0
 18 15  1  0  0  0
 18 19  2  0  0  0
 15  1  1  0  0  0
  1  2  2  0  0  0
  1  3  2  0  0  0
  1  4  1  0  0  0
  4  5  2  0  0  0
  4 13  1  0  0  0
  5  6  1  0  0  0
  5  7  1  0  0  0
  7  8  1  0  0  0
  7  9  2  0  0  0
  9 10  1  0  0  0
  9 11  1  0  0  0
 11 12  1  0  0  0
 11 13  2  0  0  0
 13 14  1  0  0  0
 19 20  1  0  0  0
 20 21  2  0  0  0
 21 26  1  0  0  0
 26 27  1  0  0  0
M  END
> <minimizedAffinity>
-7.93850

$$$$
cs_R3_output_folder/data/smiles/38.pdb


 23 24  0  0  0  0  0  0  0  0999 V2000
   69.0898   49.8914   55.2444 N   0  0  0  0  0  0  0  0  0  0  0  0
   69.6914   48.9283   54.4067 C   0  0  0  0  0  0  0  0  0  0  0  0
   70.9441   49.0733   54.1878 O   0  0  0  0  0  0  0  0  0  0  0  0
   71.3712   51.7521   57.5268 C   0  0  0  0  0  0  0  0  0  0  0  0
   70.6807   50.7811   56.8748 C   0  0  0  0  0  0  0  0  0  0  0  0
   69.7559   50.9970   55.8423 C   0  0  0  0  0  0  0  0  0  0  0  0
   69.5265   52.2911   55.4573 C   0  0  0  0  0  0  0  0  0  0  0  0
   70.2124   53.3280   56.0981 C   0  0  0  0  0  0  0  0  0  0  0  0
   71.1086   53.0640   57.1035 C   0  0  0  0  0  0  0  0  0  0  0  0
   71.7476   54.1032   57.6953 F   0  0  0  0  0  0  0  0  0  0  0  0
   74.5638   51.1823   59.6706 C   0  0  0  0  0  0  0  0  0  0  0  0
   73.6876   51.3288   58.4419 C   0  0  0  0  0  0  0  0  0  0  0  0
   74.1831   51.2172   57.3007 O   0  0  0  0  0  0  0  0  0  0  0  0
   72.3080   51.5895   58.5631 N   0  0  0  0  0  0  0  0  0  0  0  0
   69.0520   47.8032   53.7693 C   0  0  0  0  0  0  0  0  0  0  0  0
   69.0187   47.7426   52.3683 C   0  0  0  0  0  0  0  0  0  0  0  0
   68.4243   46.7103   51.6977 C   0  0  0  0  0  0  0  0  0  0  0  0
   67.8451   45.7075   52.4588 C   0  0  0  0  0  0  0  0  0  0  0  0
   67.8861   45.7796   53.8000 N   0  0  0  0  0  0  0  0  0  0  0  0
   68.4747   46.8011   54.4630 C   0  0  0  0  0  0  0  0  0  0  0  0
   68.4801   46.7810   55.9065 C   0  0  0  0  0  0  0  0  0  0  0  0
   69.4385   46.1816   56.7331 N   0  0  0  0  0  0  0  0  0  0  0  0
   67.5234   47.3620   56.5305 O   0  0  0  0  0  0  0  0  0  0  0  0
 11 12  1  0  0  0
 12 13  2  0  0  0
 12 14  1  0  0  0
 14  4  1  0  0  0
  4  5  2  0  0  0
  4  9  1  0  0  0
  5  6  1  0  0  0
  6  1  1  0  0  0
  6  7  2  0  0  0
  1  2  1  0  0  0
  2  3  2  0  0  0
  2 15  1  0  0  0
 15 16  2  0  0  0
 15 20  1  0  0  0
 16 17  1  0  0  0
 17 18  2  0  0  0
 18 19  1  0  0  0
 19 20  2  0  0  0
 20 21  1  0  0  0
 21 22  1  0  0  0
 21 23  2  0  0  0
  7  8  1  0  0  0
  8  9  2  0  0  0
  9 10  1  0  0  0
M  END
> <minimizedAffinity>
-6.88742

$$$$
cs_R3_output_folder/data/smiles/39.pdb


 19 20  0  0  0  0  0  0  0  0999 V2000
   69.0788   46.2831   57.2618 O   0  0  0  0  0  0  0  0  0  0  0  0
   68.8199   46.3736   55.9009 C   0  0  0  0  0  0  0  0  0  0  0  0
   68.2646   45.2742   55.2806 C   0  0  0  0  0  0  0  0  0  0  0  0
   67.9751   45.2870   53.9151 C   0  0  0  0  0  0  0  0  0  0  0  0
   68.2338   46.3951   53.1371 C   0  0  0  0  0  0  0  0  0  0  0  0
   68.7891   47.4931   53.7588 C   0  0  0  0  0  0  0  0  0  0  0  0
   69.0786   47.4791   55.1272 C   0  0  0  0  0  0  0  0  0  0  0  0
   67.9353   46.4028   51.7381 N   0  0  0  0  0  0  0  0  0  0  0  0
   68.6666   47.0681   50.9852 O   0  0  0  0  0  0  0  0  0  0  0  0
   66.8972   45.7222   51.1933 O   0  0  0  0  0  0  0  0  0  0  0  0
   70.9476   46.8401   58.3628 O   0  0  0  0  0  0  0  0  0  0  0  0
   70.2768   45.9324   57.8127 C   0  0  0  0  0  0  0  0  0  0  0  0
   70.8366   44.5880   57.8109 C   0  0  0  0  0  0  0  0  0  0  0  0
   70.0345   43.4717   57.7280 C   0  0  0  0  0  0  0  0  0  0  0  0
   70.5402   42.1855   57.7245 C   0  0  0  0  0  0  0  0  0  0  0  0
   71.9014   41.9775   57.8054 C   0  0  0  0  0  0  0  0  0  0  0  0
   72.7073   43.0923   57.8886 C   0  0  0  0  0  0  0  0  0  0  0  0
   74.4542   42.8387   57.9931 Cl  0  0  0  0  0  0  0  0  0  0  0  0
   72.2048   44.3756   57.8926 C   0  0  0  0  0  0  0  0  0  0  0  0
 11 12  2  0  0  0
 12  1  1  0  0  0
 12 13  1  0  0  0
  1  2  1  0  0  0
  2  3  2  0  0  0
  2  7  1  0  0  0
  3  4  1  0  0  0
  4  5  2  0  0  0
  5  8  1  0  0  0
  5  6  1  0  0  0
  8  9  2  0  0  0
  8 10  1  0  0  0
  6  7  2  0  0  0
 13 14  2  0  0  0
 13 19  1  0  0  0
 14 15  1  0  0  0
 15 16  2  0  0  0
 16 17  1  0  0  0
 17 18  1  0  0  0
 17 19  2  0  0  0
M  CHG 1   8   1
M  CHG 1  10  -1
M  END
> <minimizedAffinity>
-7.41387

$$$$
cs_R3_output_folder/data/smiles/40.pdb


 32 36  0  0  0  0  0  0  0  0999 V2000
   71.2912   46.9265   58.9054 C   0  0  0  0  0  0  0  0  0  0  0  0
   71.2407   45.5858   58.6620 C   0  0  0  0  0  0  0  0  0  0  0  0
   70.4175   45.0656   57.6597 C   0  0  0  0  0  0  0  0  0  0  0  0
   69.6665   45.9375   56.9297 C   0  0  0  0  0  0  0  0  0  0  0  0
   69.7031   47.3144   57.1622 C   0  0  0  0  0  0  0  0  0  0  0  0
   70.5085   47.7782   58.1365 C   0  0  0  0  0  0  0  0  0  0  0  0
   71.8528   47.3412   61.1328 O   0  0  0  0  0  0  0  0  0  0  0  0
   72.1821   47.4826   59.9357 C   0  0  0  0  0  0  0  0  0  0  0  0
   73.3852   48.1616   59.5703 N   0  0  0  0  0  0  0  0  0  0  0  0
   74.2585   48.7103   60.5607 C   0  0  0  0  0  0  0  0  0  0  0  0
   75.6098   49.1346   60.1177 C   0  0  0  0  0  0  0  0  0  0  0  0
   75.9111   48.7663   58.7533 N   0  0  0  0  0  0  0  0  0  0  0  0
   75.1354   47.7881   58.0254 C   0  0  0  0  0  0  0  0  0  0  0  0
   73.6764   48.2613   58.1638 C   0  0  0  0  0  0  0  0  0  0  0  0
   76.9951   49.3661   58.0648 C   0  0  0  0  0  0  0  0  0  0  0  0
   77.7856   50.2478   58.6563 C   0  0  0  0  0  0  0  0  0  0  0  0
   78.9014   50.8876   58.0067 C   0  0  0  0  0  0  0  0  0  0  0  0
   79.1773   50.8409   56.7375 C   0  0  0  0  0  0  0  0  0  0  0  0
   78.4529   49.6616   55.8943 S   0  0  0  0  0  0  0  0  0  0  0  0
   77.2214   48.9930   56.7004 N   0  0  0  0  0  0  0  0  0  0  0  0
   68.8314   48.1822   56.2736 C   0  0  0  0  0  0  0  0  0  0  0  0
   69.3058   48.2032   54.9039 C   0  0  0  0  0  0  0  0  0  0  0  0
   70.2764   49.1059   54.5941 N   0  0  0  0  0  0  0  0  0  0  0  0
   70.7099   49.2571   53.3418 N   0  0  0  0  0  0  0  0  0  0  0  0
   70.2451   48.5588   52.3099 C   0  0  0  0  0  0  0  0  0  0  0  0
   70.6824   48.7332   51.1211 O   0  0  0  0  0  0  0  0  0  0  0  0
   69.2583   47.6176   52.5369 C   0  0  0  0  0  0  0  0  0  0  0  0
   68.7736   46.8607   51.5018 C   0  0  0  0  0  0  0  0  0  0  0  0
   67.8152   45.9127   51.7478 C   0  0  0  0  0  0  0  0  0  0  0  0
   67.3803   45.7684   53.0585 C   0  0  0  0  0  0  0  0  0  0  0  0
   67.8691   46.5322   54.1003 C   0  0  0  0  0  0  0  0  0  0  0  0
   68.8216   47.4745   53.8412 C   0  0  0  0  0  0  0  0  0  0  0  0
  7  8  2  0  0  0
  8  1  1  0  0  0
  8  9  1  0  0  0
  1  2  2  0  0  0
  1  6  1  0  0  0
  2  3  1  0  0  0
  3  4  2  0  0  0
  4  5  1  0  0  0
  5 21  1  0  0  0
  5  6  2  0  0  0
 21 22  1  0  0  0
 22 23  2  0  0  0
 22 32  1  0  0  0
 23 24  1  0  0  0
 24 25  1  0  0  0
 25 26  2  0  0  0
 25 27  1  0  0  0
 27 28  1  0  0  0
 27 32  2  0  0  0
 28 29  2  0  0  0
 29 30  1  0  0  0
 30 31  2  0  0  0
 31 32  1  0  0  0
  9 10  1  0  0  0
  9 14  1  0  0  0
 10 11  1  0  0  0
 11 12  1  0  0  0
 12 15  1  0  0  0
 12 13  1  0  0  0
 15 16  2  0  0  0
 15 20  1  0  0  0
 16 17  1  0  0  0
 17 18  2  0  0  0
 18 19  2  0  0  0
 19 20  2  0  0  0
 13 14  1  0  0  0
M  END
> <minimizedAffinity>
-10.34950

$$$$
cs_R3_output_folder/data/smiles/41.pdb


 29 32  0  0  0  0  0  0  0  0999 V2000
   69.6553   43.9605   58.0278 C   0  0  0  0  0  0  0  0  0  0  0  0
   69.5863   42.6987   57.4966 C   0  0  0  0  0  0  0  0  0  0  0  0
   69.4762   41.5540   58.3092 C   0  0  0  0  0  0  0  0  0  0  0  0
   69.4335   41.6827   59.6760 C   0  0  0  0  0  0  0  0  0  0  0  0
   69.5062   42.9865   60.1722 C   0  0  0  0  0  0  0  0  0  0  0  0
   69.6119   44.0584   59.3673 N   0  0  0  0  0  0  0  0  0  0  0  0
   69.3175   40.5330   60.6254 C   0  0  0  0  0  0  0  0  0  0  0  0
   69.7577   39.3664   59.8900 N   0  0  0  0  0  0  0  0  0  0  0  0
   70.7487   38.4729   60.4013 C   0  0  0  0  0  0  0  0  0  0  0  0
   71.2889   38.6558   61.5214 O   0  0  0  0  0  0  0  0  0  0  0  0
   69.1328   39.1595   58.5996 C   0  0  0  0  0  0  0  0  0  0  0  0
   69.4116   40.2421   57.6259 C   0  0  0  0  0  0  0  0  0  0  0  0
   71.1888   37.3014   59.6552 C   0  0  0  0  0  0  0  0  0  0  0  0
   71.9474   37.3880   58.5068 C   0  0  0  0  0  0  0  0  0  0  0  0
   72.3703   36.2866   57.7908 C   0  0  0  0  0  0  0  0  0  0  0  0
   72.0113   35.0348   58.2531 C   0  0  0  0  0  0  0  0  0  0  0  0
   72.4107   33.9381   57.5731 F   0  0  0  0  0  0  0  0  0  0  0  0
   71.2528   34.9239   59.4002 C   0  0  0  0  0  0  0  0  0  0  0  0
   70.8360   36.0477   60.1093 C   0  0  0  0  0  0  0  0  0  0  0  0
   68.0587   44.4999   55.9307 O   0  0  0  0  0  0  0  0  0  0  0  0
   68.9196   45.4272   56.1542 C   0  0  0  0  0  0  0  0  0  0  0  0
   69.7683   45.1587   57.2566 N   0  0  0  0  0  0  0  0  0  0  0  0
   68.9668   46.6107   55.3202 C   0  0  0  0  0  0  0  0  0  0  0  0
   68.7039   46.5853   53.9647 C   0  0  0  0  0  0  0  0  0  0  0  0
   68.7479   47.7062   53.1655 C   0  0  0  0  0  0  0  0  0  0  0  0
   69.0680   48.9284   53.7243 C   0  0  0  0  0  0  0  0  0  0  0  0
   69.1132   50.0511   52.9329 F   0  0  0  0  0  0  0  0  0  0  0  0
   69.3352   48.9911   55.0731 C   0  0  0  0  0  0  0  0  0  0  0  0
   69.2824   47.8307   55.8603 C   0  0  0  0  0  0  0  0  0  0  0  0
 20 21  2  0  0  0
 21 22  1  0  0  0
 21 23  1  0  0  0
 22  1  1  0  0  0
  1  2  2  0  0  0
  1  6  1  0  0  0
  2  3  1  0  0  0
  3  4  2  0  0  0
  3 12  1  0  0  0
  4  5  1  0  0  0
  4  7  1  0  0  0
  5  6  2  0  0  0
  7  8  1  0  0  0
  8  9  1  0  0  0
  8 11  1  0  0  0
  9 10  2  0  0  0
  9 13  1  0  0  0
 13 14  2  0  0  0
 13 19  1  0  0  0
 14 15  1  0  0  0
 15 16  2  0  0  0
 16 17  1  0  0  0
 16 18  1  0  0  0
 18 19  2  0  0  0
 11 12  1  0  0  0
 23 24  2  0  0  0
 23 29  1  0  0  0
 24 25  1  0  0  0
 25 26  2  0  0  0
 26 27  1  0  0  0
 26 28  1  0  0  0
 28 29  2  0  0  0
M  END
> <minimizedAffinity>
-7.77512

$$$$
cs_R3_output_folder/data/smiles/42.pdb


 19 21  0  0  0  0  0  0  0  0999 V2000
   70.4834   51.8783   52.7915 O   0  0  0  0  0  0  0  0  0  0  0  0
   70.1723   50.8756   53.5609 C   0  0  0  0  0  0  0  0  0  0  0  0
   70.1287   51.1225   54.9423 N   0  0  0  0  0  0  0  0  0  0  0  0
   69.8919   49.5990   52.9314 C   0  0  0  0  0  0  0  0  0  0  0  0
   70.2855   49.3109   51.6768 O   0  0  0  0  0  0  0  0  0  0  0  0
   69.9376   48.1374   51.3255 N   0  0  0  0  0  0  0  0  0  0  0  0
   69.2694   47.5129   52.3198 C   0  0  0  0  0  0  0  0  0  0  0  0
   68.7039   46.2627   52.4574 C   0  0  0  0  0  0  0  0  0  0  0  0
   68.0928   45.9141   53.6386 C   0  0  0  0  0  0  0  0  0  0  0  0
   68.0685   46.8383   54.6565 C   0  0  0  0  0  0  0  0  0  0  0  0
   68.6417   48.1040   54.5131 C   0  0  0  0  0  0  0  0  0  0  0  0
   69.2496   48.4669   53.3456 C   0  0  0  0  0  0  0  0  0  0  0  0
   70.4458   52.4541   55.5128 C   0  0  0  0  0  0  0  0  0  0  0  0
   69.3087   52.8939   56.3825 C   0  0  0  0  0  0  0  0  0  0  0  0
   68.6831   51.7328   57.0943 C   0  0  0  0  0  0  0  0  0  0  0  0
   67.4225   51.3467   56.9672 C   0  0  0  0  0  0  0  0  0  0  0  0
   67.1588   50.1689   57.8171 C   0  0  0  0  0  0  0  0  0  0  0  0
   68.5281   49.5873   58.0434 C   0  0  0  0  0  0  0  0  0  0  0  0
   69.4043   50.8468   58.0498 C   0  0  0  0  0  0  0  0  0  0  0  0
  1  2  2  0  0  0
  2  3  1  0  0  0
  2  4  1  0  0  0
  3 13  1  0  0  0
 13 14  1  0  0  0
 14 15  1  0  0  0
 15 16  2  0  0  0
 15 19  1  0  0  0
 16 17  1  0  0  0
 17 18  1  0  0  0
 18 19  1  0  0  0
  4  5  1  0  0  0
  4 12  2  0  0  0
  5  6  1  0  0  0
  6  7  2  0  0  0
  7  8  1  0  0  0
  7 12  1  0  0  0
  8  9  2  0  0  0
  9 10  1  0  0  0
 10 11  2  0  0  0
 11 12  1  0  0  0
M  END
> <minimizedAffinity>
-7.92234

$$$$
cs_R3_output_folder/data/smiles/43.pdb


 27 29  0  0  0  0  0  0  0  0999 V2000
   74.0856   34.8015   53.8463 C   0  0  0  0  0  0  0  0  0  0  0  0
   72.9564   34.9485   53.3460 O   0  0  0  0  0  0  0  0  0  0  0  0
   74.2260   34.2253   55.1125 N   0  0  0  0  0  0  0  0  0  0  0  0
   76.9383   35.3570   51.5834 N   0  0  0  0  0  0  0  0  0  0  0  0
   77.1714   36.2286   52.5169 N   0  0  0  0  0  0  0  0  0  0  0  0
   76.2145   36.1992   53.4844 C   0  0  0  0  0  0  0  0  0  0  0  0
   75.2981   35.2227   53.1297 C   0  0  0  0  0  0  0  0  0  0  0  0
   75.7870   34.7199   51.9366 C   0  0  0  0  0  0  0  0  0  0  0  0
   75.1899   33.6493   51.1164 C   0  0  0  0  0  0  0  0  0  0  0  0
   80.1445   34.2534   46.9212 C   0  0  0  0  0  0  0  0  0  0  0  0
   79.3076   34.5522   48.1111 C   0  0  0  0  0  0  0  0  0  0  0  0
   78.4128   35.5949   48.1589 C   0  0  0  0  0  0  0  0  0  0  0  0
   77.6400   35.8718   49.2770 C   0  0  0  0  0  0  0  0  0  0  0  0
   77.7309   35.1028   50.4203 C   0  0  0  0  0  0  0  0  0  0  0  0
   78.6329   34.0578   50.3623 C   0  0  0  0  0  0  0  0  0  0  0  0
   79.4040   33.7731   49.2589 C   0  0  0  0  0  0  0  0  0  0  0  0
   73.1706   33.7528   55.9639 C   0  0  0  0  0  0  0  0  0  0  0  0
   72.7321   34.7246   56.9641 C   0  0  0  0  0  0  0  0  0  0  0  0
   72.7536   36.0659   56.6738 C   0  0  0  0  0  0  0  0  0  0  0  0
   72.3243   37.0076   57.6203 C   0  0  0  0  0  0  0  0  0  0  0  0
   71.8762   36.5728   58.8610 C   0  0  0  0  0  0  0  0  0  0  0  0
   71.8507   35.2316   59.1602 C   0  0  0  0  0  0  0  0  0  0  0  0
   72.2782   34.3341   58.2112 C   0  0  0  0  0  0  0  0  0  0  0  0
   71.3519   34.8131   60.4863 C   0  0  0  0  0  0  0  0  0  0  0  0
   70.2109   35.7432   60.8644 C   0  0  0  0  0  0  0  0  0  0  0  0
   70.8807   33.3804   60.5377 C   0  0  0  0  0  0  0  0  0  0  0  0
   72.3456   34.9519   61.4605 O   0  0  0  0  0  0  0  0  0  0  0  0
 10 11  1  0  0  0
 11 12  2  0  0  0
 11 16  1  0  0  0
 12 13  1  0  0  0
 13 14  2  0  0  0
 14  4  1  0  0  0
 14 15  1  0  0  0
  4  5  1  0  0  0
  4  8  1  0  0  0
  5  6  2  0  0  0
  6  7  1  0  0  0
  7  1  1  0  0  0
  7  8  2  0  0  0
  1  2  2  0  0  0
  1  3  1  0  0  0
  3 17  1  0  0  0
 17 18  1  0  0  0
 18 19  2  0  0  0
 18 23  1  0  0  0
 19 20  1  0  0  0
 20 21  2  0  0  0
 21 22  1  0  0  0
 22 24  1  0  0  0
 22 23  2  0  0  0
 24 25  1  0  0  0
 24 26  1  0  0  0
 24 27  1  0  0  0
  8  9  1  0  0  0
 15 16  2  0  0  0
M  END
> <minimizedAffinity>
-7.50354

$$$$
cs_R3_output_folder/data/smiles/44.pdb


 22 23  0  0  0  0  0  0  0  0999 V2000
   73.7770   35.2358   54.4149 N   0  0  0  0  0  0  0  0  0  0  0  0
   75.1218   35.2148   53.9867 C   0  0  0  0  0  0  0  0  0  0  0  0
   76.0067   35.0405   54.8320 O   0  0  0  0  0  0  0  0  0  0  0  0
   75.4905   35.3893   52.6141 N   0  0  0  0  0  0  0  0  0  0  0  0
   72.3116   35.8769   57.7853 C   0  0  0  0  0  0  0  0  0  0  0  0
   72.3112   34.5909   58.2761 C   0  0  0  0  0  0  0  0  0  0  0  0
   72.7826   33.5247   57.5184 C   0  0  0  0  0  0  0  0  0  0  0  0
   73.2571   33.7737   56.2499 C   0  0  0  0  0  0  0  0  0  0  0  0
   73.2732   35.0764   55.7139 C   0  0  0  0  0  0  0  0  0  0  0  0
   72.8015   36.0817   56.4983 C   0  0  0  0  0  0  0  0  0  0  0  0
   72.9533   37.9388   59.6832 N   0  0  0  0  0  0  0  0  0  0  0  0
   71.7362   37.2527   58.6816 S   0  0  0  0  0  0  0  0  0  0  0  0
   71.2839   38.3481   57.7364 O   0  0  0  0  0  0  0  0  0  0  0  0
   70.5159   36.8525   59.4773 O   0  0  0  0  0  0  0  0  0  0  0  0
   76.8581   35.3845   52.1534 C   0  0  0  0  0  0  0  0  0  0  0  0
   76.9795   35.2280   50.6889 C   0  0  0  0  0  0  0  0  0  0  0  0
   76.1546   34.3311   49.9961 C   0  0  0  0  0  0  0  0  0  0  0  0
   76.2463   34.1598   48.6295 C   0  0  0  0  0  0  0  0  0  0  0  0
   77.1685   34.8818   47.9074 C   0  0  0  0  0  0  0  0  0  0  0  0
   77.2681   34.6476   46.1741 Cl  0  0  0  0  0  0  0  0  0  0  0  0
   77.9843   35.7623   48.5575 C   0  0  0  0  0  0  0  0  0  0  0  0
   77.8789   35.9217   49.9321 C   0  0  0  0  0  0  0  0  0  0  0  0
 11 12  1  0  0  0
 12 13  2  0  0  0
 12 14  2  0  0  0
 12  5  1  0  0  0
  5  6  2  0  0  0
  5 10  1  0  0  0
  6  7  1  0  0  0
  7  8  2  0  0  0
  8  9  1  0  0  0
  9  1  1  0  0  0
  9 10  2  0  0  0
  1  2  1  0  0  0
  2  3  2  0  0  0
  2  4  1  0  0  0
  4 15  1  0  0  0
 15 16  1  0  0  0
 16 17  2  0  0  0
 16 22  1  0  0  0
 17 18  1  0  0  0
 18 19  2  0  0  0
 19 20  1  0  0  0
 19 21  1  0  0  0
 21 22  2  0  0  0
M  END
> <minimizedAffinity>
-7.36846

$$$$
cs_R3_output_folder/data/smiles/45.pdb


 20 21  0  0  0  0  0  0  0  0999 V2000
   68.3587   47.2725   55.8943 C   0  0  0  0  0  0  0  0  0  0  0  0
   68.5029   47.1579   54.4047 C   0  0  0  0  0  0  0  0  0  0  0  0
   67.7545   46.1689   53.7595 C   0  0  0  0  0  0  0  0  0  0  0  0
   67.8569   45.9756   52.4194 C   0  0  0  0  0  0  0  0  0  0  0  0
   68.6892   46.7294   51.6313 C   0  0  0  0  0  0  0  0  0  0  0  0
   69.4241   47.7013   52.2638 C   0  0  0  0  0  0  0  0  0  0  0  0
   69.3354   47.9193   53.6432 C   0  0  0  0  0  0  0  0  0  0  0  0
   70.1159   48.9684   54.1950 N   0  0  0  0  0  0  0  0  0  0  0  0
   69.7239   50.3301   54.1610 C   0  0  0  0  0  0  0  0  0  0  0  0
   70.5549   51.4116   54.7431 C   0  0  0  0  0  0  0  0  0  0  0  0
   68.6263   50.6290   53.6150 O   0  0  0  0  0  0  0  0  0  0  0  0
   69.1079   46.2684   56.6008 N   0  0  0  0  0  0  0  0  0  0  0  0
   70.6268   45.4427   58.2719 C   0  0  0  0  0  0  0  0  0  0  0  0
   71.5731   45.7960   59.2727 C   0  0  0  0  0  0  0  0  0  0  0  0
   71.9299   47.0803   59.5413 C   0  0  0  0  0  0  0  0  0  0  0  0
   71.3638   48.1101   58.8265 C   0  0  0  0  0  0  0  0  0  0  0  0
   70.4549   47.8017   57.8637 C   0  0  0  0  0  0  0  0  0  0  0  0
   70.0829   46.5107   57.5782 C   0  0  0  0  0  0  0  0  0  0  0  0
   71.4992   42.5576   57.7509 C   0  0  0  0  0  0  0  0  0  0  0  0
   70.3164   43.7709   58.0801 S   0  0  0  0  0  0  0  0  0  0  0  0
 19 20  1  0  0  0
 20 13  1  0  0  0
 13 14  2  0  0  0
 13 18  1  0  0  0
 14 15  1  0  0  0
 15 16  2  0  0  0
 16 17  1  0  0  0
 17 18  2  0  0  0
 18 12  1  0  0  0
 12  1  1  0  0  0
  1  2  1  0  0  0
  2  3  2  0  0  0
  2  7  1  0  0  0
  3  4  1  0  0  0
  4  5  2  0  0  0
  5  6  1  0  0  0
  6  7  2  0  0  0
  7  8  1  0  0  0
  8  9  1  0  0  0
  9 10  1  0  0  0
  9 11  2  0  0  0
M  END
> <minimizedAffinity>
-6.66450

$$$$
cs_R3_output_folder/data/smiles/46.pdb


 20 21  0  0  0  0  0  0  0  0999 V2000
   68.7333   43.1726   57.0632 O   0  0  0  0  0  0  0  0  0  0  0  0
   67.8095   42.9028   56.3010 C   0  0  0  0  0  0  0  0  0  0  0  0
   67.4988   43.7277   55.2227 N   0  0  0  0  0  0  0  0  0  0  0  0
   67.0812   41.6882   56.5956 N   0  0  0  0  0  0  0  0  0  0  0  0
   67.4088   40.8604   57.6953 C   0  0  0  0  0  0  0  0  0  0  0  0
   66.8081   41.0269   58.9229 C   0  0  0  0  0  0  0  0  0  0  0  0
   67.1185   40.2238   60.0133 C   0  0  0  0  0  0  0  0  0  0  0  0
   68.0655   39.2084   59.8865 C   0  0  0  0  0  0  0  0  0  0  0  0
   68.6686   39.0374   58.6622 C   0  0  0  0  0  0  0  0  0  0  0  0
   69.5860   38.0532   58.5407 F   0  0  0  0  0  0  0  0  0  0  0  0
   68.3507   39.8430   57.5887 C   0  0  0  0  0  0  0  0  0  0  0  0
   68.0842   44.9052   54.8033 N   0  0  0  0  0  0  0  0  0  0  0  0
   67.9229   45.6223   53.6181 C   0  0  0  0  0  0  0  0  0  0  0  0
   67.1517   45.2082   52.7564 O   0  0  0  0  0  0  0  0  0  0  0  0
   68.6254   46.8839   53.3024 C   0  0  0  0  0  0  0  0  0  0  0  0
   69.2181   47.0566   52.0595 C   0  0  0  0  0  0  0  0  0  0  0  0
   69.8762   48.2130   51.7382 C   0  0  0  0  0  0  0  0  0  0  0  0
   69.9828   49.2572   52.6235 C   0  0  0  0  0  0  0  0  0  0  0  0
   69.4053   49.1171   53.8631 C   0  0  0  0  0  0  0  0  0  0  0  0
   68.7375   47.9300   54.1758 C   0  0  0  0  0  0  0  0  0  0  0  0
  1  2  2  0  0  0
  2  3  1  0  0  0
  2  4  1  0  0  0
  3 12  1  0  0  0
 12 13  1  0  0  0
 13 14  2  0  0  0
 13 15  1  0  0  0
 15 16  2  0  0  0
 15 20  1  0  0  0
 16 17  1  0  0  0
 17 18  2  0  0  0
 18 19  1  0  0  0
 19 20  2  0  0  0
  4  5  1  0  0  0
  5  6  2  0  0  0
  5 11  1  0  0  0
  6  7  1  0  0  0
  7  8  2  0  0  0
  8  9  1  0  0  0
  9 10  1  0  0  0
  9 11  2  0  0  0
M  END
> <minimizedAffinity>
-7.30906

$$$$
cs_R3_output_folder/data/smiles/47.pdb


 22 23  0  0  0  0  0  0  0  0999 V2000
   67.6718   43.1705   56.5704 N   0  0  0  0  0  0  0  0  0  0  0  0
   67.4948   41.7762   56.7370 C   0  0  0  0  0  0  0  0  0  0  0  0
   67.4213   41.1115   55.6466 O   0  0  0  0  0  0  0  0  0  0  0  0
   67.3992   41.0979   58.0215 C   0  0  0  0  0  0  0  0  0  0  0  0
   68.0958   39.9486   58.2953 C   0  0  0  0  0  0  0  0  0  0  0  0
   68.0064   39.2979   59.5248 C   0  0  0  0  0  0  0  0  0  0  0  0
   68.7680   38.0525   59.8042 C   0  0  0  0  0  0  0  0  0  0  0  0
   67.1821   39.8487   60.4836 C   0  0  0  0  0  0  0  0  0  0  0  0
   67.0892   39.2118   61.6995 F   0  0  0  0  0  0  0  0  0  0  0  0
   66.4652   41.0020   60.2494 C   0  0  0  0  0  0  0  0  0  0  0  0
   65.5955   41.5472   61.3202 C   0  0  0  0  0  0  0  0  0  0  0  0
   66.5862   41.6211   58.9994 C   0  0  0  0  0  0  0  0  0  0  0  0
   68.1296   45.1466   55.1437 C   0  0  0  0  0  0  0  0  0  0  0  0
   68.3907   45.8085   56.1785 O   0  0  0  0  0  0  0  0  0  0  0  0
   67.7625   43.8022   55.3285 N   0  0  0  0  0  0  0  0  0  0  0  0
   69.9512   48.8357   52.4684 C   0  0  0  0  0  0  0  0  0  0  0  0
   69.0993   47.5929   52.5401 C   0  0  0  0  0  0  0  0  0  0  0  0
   68.4493   47.1227   51.4270 C   0  0  0  0  0  0  0  0  0  0  0  0
   67.6669   45.9751   51.5086 C   0  0  0  0  0  0  0  0  0  0  0  0
   67.5781   45.3482   52.7348 C   0  0  0  0  0  0  0  0  0  0  0  0
   68.2251   45.8087   53.8584 C   0  0  0  0  0  0  0  0  0  0  0  0
   68.9866   46.9427   53.7378 C   0  0  0  0  0  0  0  0  0  0  0  0
 16 17  1  0  0  0
 17 18  2  0  0  0
 17 22  1  0  0  0
 18 19  1  0  0  0
 19 20  2  0  0  0
 20 21  1  0  0  0
 21 13  1  0  0  0
 21 22  2  0  0  0
 13 14  2  0  0  0
 13 15  1  0  0  0
 15  1  1  0  0  0
  1  2  1  0  0  0
  2  3  2  0  0  0
  2  4  1  0  0  0
  4  5  2  0  0  0
  4 12  1  0  0  0
  5  6  1  0  0  0
  6  7  1  0  0  0
  6  8  2  0  0  0
  8  9  1  0  0  0
  8 10  1  0  0  0
 10 11  1  0  0  0
 10 12  2  0  0  0
M  END
> <minimizedAffinity>
-8.22488

$$$$
cs_R3_output_folder/data/smiles/48.pdb


 21 22  0  0  0  0  0  0  0  0999 V2000
   68.4653   46.7132   52.9645 C   0  0  0  0  0  0  0  0  0  0  0  0
   69.1910   47.3375   51.9337 C   0  0  0  0  0  0  0  0  0  0  0  0
   70.0864   48.3290   52.1631 C   0  0  0  0  0  0  0  0  0  0  0  0
   70.3655   48.8168   53.4594 C   0  0  0  0  0  0  0  0  0  0  0  0
   69.6553   48.2060   54.4550 C   0  0  0  0  0  0  0  0  0  0  0  0
   68.7188   47.1714   54.2218 C   0  0  0  0  0  0  0  0  0  0  0  0
   67.3815   44.5667   53.2829 O   0  0  0  0  0  0  0  0  0  0  0  0
   67.5884   45.6014   52.6247 C   0  0  0  0  0  0  0  0  0  0  0  0
   66.8756   45.6802   51.4174 O   0  0  0  0  0  0  0  0  0  0  0  0
   68.0674   46.6543   55.3737 N   0  0  0  0  0  0  0  0  0  0  0  0
   67.1045   47.3156   55.8797 O   0  0  0  0  0  0  0  0  0  0  0  0
   68.4580   45.4852   55.9340 O   0  0  0  0  0  0  0  0  0  0  0  0
   71.2678   49.7992   53.5813 O   0  0  0  0  0  0  0  0  0  0  0  0
   71.4380   50.8710   54.4067 C   0  0  0  0  0  0  0  0  0  0  0  0
   70.3952   51.1775   55.3906 C   0  0  0  0  0  0  0  0  0  0  0  0
   69.1859   51.7194   55.0471 C   0  0  0  0  0  0  0  0  0  0  0  0
   68.1847   51.9998   55.9668 C   0  0  0  0  0  0  0  0  0  0  0  0
   68.3876   51.7331   57.2905 C   0  0  0  0  0  0  0  0  0  0  0  0
   69.5958   51.1884   57.6712 C   0  0  0  0  0  0  0  0  0  0  0  0
   69.7671   50.9336   59.0050 F   0  0  0  0  0  0  0  0  0  0  0  0
   70.5863   50.9110   56.7551 C   0  0  0  0  0  0  0  0  0  0  0  0
  7  8  2  0  0  0
  8  9  1  0  0  0
  8  1  1  0  0  0
  1  2  2  0  0  0
  1  6  1  0  0  0
  2  3  1  0  0  0
  3  4  2  0  0  0
  4 13  1  0  0  0
  4  5  1  0  0  0
 13 14  1  0  0  0
 14 15  1  0  0  0
 15 16  2  0  0  0
 15 21  1  0  0  0
 16 17  1  0  0  0
 17 18  2  0  0  0
 18 19  1  0  0  0
 19 20  1  0  0  0
 19 21  2  0  0  0
  5  6  2  0  0  0
  6 10  1  0  0  0
 10 11  2  0  0  0
 10 12  1  0  0  0
M  CHG 1  10   1
M  CHG 1  12  -1
M  END
> <minimizedAffinity>
-7.62368

$$$$
cs_R3_output_folder/data/smiles/49.pdb


 25 28  0  0  0  0  0  0  0  0999 V2000
   73.6312   50.0108   57.0509 C   0  0  0  0  0  0  0  0  0  0  0  0
   73.4211   49.0926   58.0510 C   0  0  0  0  0  0  0  0  0  0  0  0
   72.1766   48.5042   58.2518 C   0  0  0  0  0  0  0  0  0  0  0  0
   71.1397   48.8473   57.4376 C   0  0  0  0  0  0  0  0  0  0  0  0
   71.2985   49.7816   56.4000 C   0  0  0  0  0  0  0  0  0  0  0  0
   72.5351   50.3272   56.2442 C   0  0  0  0  0  0  0  0  0  0  0  0
   75.3755   49.1529   55.1699 O   0  0  0  0  0  0  0  0  0  0  0  0
   75.7942   50.1113   55.8885 C   0  0  0  0  0  0  0  0  0  0  0  0
   74.9118   50.5913   56.8862 N   0  0  0  0  0  0  0  0  0  0  0  0
   77.1547   50.6604   55.6506 C   0  0  0  0  0  0  0  0  0  0  0  0
   77.8105   51.1851   56.7753 N   0  0  0  0  0  0  0  0  0  0  0  0
   78.7853   50.4509   57.0667 C   0  0  0  0  0  0  0  0  0  0  0  0
   78.4159   49.3640   55.7125 S   0  0  0  0  0  0  0  0  0  0  0  0
   70.1245   50.0827   55.5538 C   0  0  0  0  0  0  0  0  0  0  0  0
   70.0715   49.2555   54.3734 C   0  0  0  0  0  0  0  0  0  0  0  0
   70.8413   49.6510   53.3069 N   0  0  0  0  0  0  0  0  0  0  0  0
   70.8309   48.9967   52.1698 N   0  0  0  0  0  0  0  0  0  0  0  0
   70.0530   47.9149   52.0368 C   0  0  0  0  0  0  0  0  0  0  0  0
   70.0598   47.3056   50.9358 O   0  0  0  0  0  0  0  0  0  0  0  0
   69.2353   47.4511   53.0900 C   0  0  0  0  0  0  0  0  0  0  0  0
   69.2580   48.1463   54.2782 C   0  0  0  0  0  0  0  0  0  0  0  0
   68.4920   47.6999   55.4338 C   0  0  0  0  0  0  0  0  0  0  0  0
   68.4508   46.1627   55.3477 C   0  0  0  0  0  0  0  0  0  0  0  0
   67.7895   45.7424   54.0682 C   0  0  0  0  0  0  0  0  0  0  0  0
   68.4211   46.2542   52.8249 C   0  0  0  0  0  0  0  0  0  0  0  0
  7  8  2  0  0  0
  8  9  1  0  0  0
 10  8  1  0  0  0
  9  1  1  0  0  0
  1  2  2  0  0  0
  1  6  1  0  0  0
  2  3  1  0  0  0
  3  4  2  0  0  0
  4  5  1  0  0  0
  5 14  1  0  0  0
  5  6  2  0  0  0
 14 15  1  0  0  0
 15 16  2  0  0  0
 15 21  1  0  0  0
 16 17  1  0  0  0
 17 18  1  0  0  0
 18 19  2  0  0  0
 18 20  1  0  0  0
 20 21  2  0  0  0
 20 25  1  0  0  0
 21 22  1  0  0  0
 22 23  1  0  0  0
 23 24  1  0  0  0
 24 25  1  0  0  0
 10 11  1  0  0  0
 10 13  1  0  0  0
 11 12  2  0  0  0
 12 13  1  0  0  0
M  END
> <minimizedAffinity>
-8.53543

$$$$
cs_R3_output_folder/data/smiles/50.pdb


 27 30  0  0  0  0  0  0  0  0999 V2000
   72.2976   47.3380   58.6661 C   0  0  0  0  0  0  0  0  0  0  0  0
   72.3316   48.5436   58.0271 C   0  0  0  0  0  0  0  0  0  0  0  0
   71.3314   49.0540   57.2346 C   0  0  0  0  0  0  0  0  0  0  0  0
   70.2012   48.2750   57.0822 C   0  0  0  0  0  0  0  0  0  0  0  0
   70.1607   47.0690   57.7165 C   0  0  0  0  0  0  0  0  0  0  0  0
   71.1857   46.6148   58.4877 N   0  0  0  0  0  0  0  0  0  0  0  0
   73.2897   46.8607   59.5821 N   0  0  0  0  0  0  0  0  0  0  0  0
   75.4766   47.1734   58.8871 N   0  0  0  0  0  0  0  0  0  0  0  0
   74.5492   46.3661   59.0224 C   0  0  0  0  0  0  0  0  0  0  0  0
   74.6602   44.9589   58.6376 C   0  0  0  0  0  0  0  0  0  0  0  0
   75.7839   44.1892   58.9281 C   0  0  0  0  0  0  0  0  0  0  0  0
   75.8434   42.8436   58.5235 C   0  0  0  0  0  0  0  0  0  0  0  0
   74.8059   42.2665   57.8335 C   0  0  0  0  0  0  0  0  0  0  0  0
   73.6865   43.0184   57.5422 C   0  0  0  0  0  0  0  0  0  0  0  0
   73.6557   44.3307   57.9545 C   0  0  0  0  0  0  0  0  0  0  0  0
   69.0488   48.8179   56.2704 C   0  0  0  0  0  0  0  0  0  0  0  0
   69.4068   48.7790   54.8380 C   0  0  0  0  0  0  0  0  0  0  0  0
   70.1353   49.7918   54.3400 N   0  0  0  0  0  0  0  0  0  0  0  0
   70.4352   49.8870   53.0580 N   0  0  0  0  0  0  0  0  0  0  0  0
   70.0047   48.9445   52.1908 C   0  0  0  0  0  0  0  0  0  0  0  0
   70.2836   49.0374   50.9795 O   0  0  0  0  0  0  0  0  0  0  0  0
   69.2494   47.8854   52.6992 C   0  0  0  0  0  0  0  0  0  0  0  0
   68.9339   47.7714   54.0285 C   0  0  0  0  0  0  0  0  0  0  0  0
   68.2048   46.6525   54.5825 C   0  0  0  0  0  0  0  0  0  0  0  0
   67.6218   45.6882   53.5834 C   0  0  0  0  0  0  0  0  0  0  0  0
   68.0241   45.9245   52.1916 C   0  0  0  0  0  0  0  0  0  0  0  0
   68.7537   46.9006   51.7581 C   0  0  0  0  0  0  0  0  0  0  0  0
  8  9  2  0  0  0
  9  7  1  0  0  0
  9 10  1  0  0  0
  7  1  1  0  0  0
  1  2  2  0  0  0
  1  6  1  0  0  0
  2  3  1  0  0  0
  3  4  2  0  0  0
  4 16  1  0  0  0
  4  5  1  0  0  0
 16 17  1  0  0  0
 17 18  2  0  0  0
 17 23  1  0  0  0
 18 19  1  0  0  0
 19 20  1  0  0  0
 20 21  2  0  0  0
 20 22  1  0  0  0
 22 23  2  0  0  0
 22 27  1  0  0  0
 23 24  1  0  0  0
 24 25  1  0  0  0
 25 26  1  0  0  0
 26 27  2  0  0  0
  5  6  2  0  0  0
 10 11  2  0  0  0
 10 15  1  0  0  0
 11 12  1  0  0  0
 12 13  2  0  0  0
 13 14  1  0  0  0
 14 15  2  0  0  0
M  CHG 1   8   1
M  END
> <minimizedAffinity>
-8.75085

$$$$
cs_R3_output_folder/data/smiles/51.pdb


 32 36  0  0  0  0  0  0  0  0999 V2000
   71.3870   46.6077   58.8583 C   0  0  0  0  0  0  0  0  0  0  0  0
   71.4615   45.2947   58.5522 C   0  0  0  0  0  0  0  0  0  0  0  0
   70.6272   44.7311   57.5815 C   0  0  0  0  0  0  0  0  0  0  0  0
   69.6958   45.5672   56.9257 C   0  0  0  0  0  0  0  0  0  0  0  0
   69.6334   46.8742   57.2428 C   0  0  0  0  0  0  0  0  0  0  0  0
   70.4595   47.4079   58.1920 C   0  0  0  0  0  0  0  0  0  0  0  0
   71.7908   47.3521   61.0749 O   0  0  0  0  0  0  0  0  0  0  0  0
   72.2206   47.2442   59.8977 C   0  0  0  0  0  0  0  0  0  0  0  0
   73.4863   47.7315   59.5313 N   0  0  0  0  0  0  0  0  0  0  0  0
   74.2861   48.4422   60.5107 C   0  0  0  0  0  0  0  0  0  0  0  0
   75.0022   49.5965   59.8103 C   0  0  0  0  0  0  0  0  0  0  0  0
   75.5915   49.1066   58.5867 N   0  0  0  0  0  0  0  0  0  0  0  0
   74.5407   48.7884   57.6810 C   0  0  0  0  0  0  0  0  0  0  0  0
   73.9519   47.4776   58.1795 C   0  0  0  0  0  0  0  0  0  0  0  0
   76.5917   50.0176   58.0855 C   0  0  0  0  0  0  0  0  0  0  0  0
   76.8925   49.6731   56.6908 N   0  0  0  0  0  0  0  0  0  0  0  0
   78.1482   49.4016   56.3881 C   0  0  0  0  0  0  0  0  0  0  0  0
   78.8379   49.0334   55.1995 C   0  0  0  0  0  0  0  0  0  0  0  0
   79.9955   48.9724   55.7924 C   0  0  0  0  0  0  0  0  0  0  0  0
   79.4260   49.3410   57.0759 C   0  0  0  0  0  0  0  0  0  0  0  0
   68.5514   47.7680   56.6762 C   0  0  0  0  0  0  0  0  0  0  0  0
   69.1087   48.0940   55.2959 C   0  0  0  0  0  0  0  0  0  0  0  0
   70.0706   49.0195   55.1650 N   0  0  0  0  0  0  0  0  0  0  0  0
   70.6905   49.2878   54.0376 N   0  0  0  0  0  0  0  0  0  0  0  0
   70.3927   48.6391   52.9119 C   0  0  0  0  0  0  0  0  0  0  0  0
   70.9760   48.8875   51.8346 O   0  0  0  0  0  0  0  0  0  0  0  0
   69.3920   47.6642   52.9769 C   0  0  0  0  0  0  0  0  0  0  0  0
   69.0513   47.0074   51.8154 C   0  0  0  0  0  0  0  0  0  0  0  0
   68.0597   46.0677   51.8220 C   0  0  0  0  0  0  0  0  0  0  0  0
   67.4195   45.8034   53.0376 C   0  0  0  0  0  0  0  0  0  0  0  0
   67.7492   46.4488   54.2081 C   0  0  0  0  0  0  0  0  0  0  0  0
   68.7479   47.3905   54.1773 C   0  0  0  0  0  0  0  0  0  0  0  0
  7  8  2  0  0  0
  8  1  1  0  0  0
  8  9  1  0  0  0
  1  2  2  0  0  0
  1  6  1  0  0  0
  2  3  1  0  0  0
  3  4  2  0  0  0
  4  5  1  0  0  0
  5 21  1  0  0  0
  5  6  2  0  0  0
 21 22  1  0  0  0
 22 23  2  0  0  0
 22 32  1  0  0  0
 23 24  1  0  0  0
 24 25  1  0  0  0
 25 26  2  0  0  0
 25 27  1  0  0  0
 27 28  1  0  0  0
 27 32  2  0  0  0
 28 29  2  0  0  0
 29 30  1  0  0  0
 30 31  2  0  0  0
 31 32  1  0  0  0
  9 10  1  0  0  0
  9 14  1  0  0  0
 10 11  1  0  0  0
 11 12  1  0  0  0
 12 15  1  0  0  0
 12 13  1  0  0  0
 15 16  1  0  0  0
 16 17  2  0  0  0
 17 18  1  0  0  0
 17 20  1  0  0  0
 18 19  2  0  0  0
 19 20  1  0  0  0
 13 14  1  0  0  0
M  CHG 1  12   1
M  END
> <minimizedAffinity>
-9.23856

$$$$
cs_R3_output_folder/data/smiles/52.pdb


 23 24  0  0  0  0  0  0  0  0999 V2000
   69.5496   47.9418   54.6533 C   0  0  0  0  0  0  0  0  0  0  0  0
   69.0928   47.6524   52.2449 C   0  0  0  0  0  0  0  0  0  0  0  0
   68.3871   47.0234   51.2716 N   0  0  0  0  0  0  0  0  0  0  0  0
   67.4799   46.0842   51.5518 C   0  0  0  0  0  0  0  0  0  0  0  0
   66.8270   45.5033   50.6227 O   0  0  0  0  0  0  0  0  0  0  0  0
   67.2427   45.7355   52.8366 N   0  0  0  0  0  0  0  0  0  0  0  0
   67.9092   46.3244   53.8237 C   0  0  0  0  0  0  0  0  0  0  0  0
   67.6832   45.9924   55.0376 O   0  0  0  0  0  0  0  0  0  0  0  0
   68.8670   47.3151   53.5486 C   0  0  0  0  0  0  0  0  0  0  0  0
   69.8397   49.5762   51.0095 O   0  0  0  0  0  0  0  0  0  0  0  0
   70.0875   48.6663   51.8221 C   0  0  0  0  0  0  0  0  0  0  0  0
   71.3732   48.6344   52.3345 O   0  0  0  0  0  0  0  0  0  0  0  0
   69.4688   49.3793   54.9464 C   0  0  0  0  0  0  0  0  0  0  0  0
   68.6036   49.8018   56.0501 C   0  0  0  0  0  0  0  0  0  0  0  0
   68.0074   48.7575   56.7695 C   0  0  0  0  0  0  0  0  0  0  0  0
   67.1023   48.9906   57.7644 C   0  0  0  0  0  0  0  0  0  0  0  0
   66.7502   50.2772   58.0855 C   0  0  0  0  0  0  0  0  0  0  0  0
   67.3358   51.2853   57.3816 C   0  0  0  0  0  0  0  0  0  0  0  0
   68.2601   51.0762   56.3689 C   0  0  0  0  0  0  0  0  0  0  0  0
   68.8916   52.2533   55.7560 C   0  0  0  0  0  0  0  0  0  0  0  0
   68.3680   52.5688   54.5696 F   0  0  0  0  0  0  0  0  0  0  0  0
   68.6830   53.3607   56.5936 F   0  0  0  0  0  0  0  0  0  0  0  0
   70.2815   52.1240   55.7221 F   0  0  0  0  0  0  0  0  0  0  0  0
 10 11  2  0  0  0
 11 12  1  0  0  0
 11  2  1  0  0  0
  2  3  1  0  0  0
  2  9  2  0  0  0
  3  4  1  0  0  0
  4  5  2  0  0  0
  4  6  1  0  0  0
  6  7  1  0  0  0
  7  8  2  0  0  0
  7  9  1  0  0  0
  9  1  1  0  0  0
  1 13  1  0  0  0
 13 14  1  0  0  0
 14 15  2  0  0  0
 14 19  1  0  0  0
 15 16  1  0  0  0
 16 17  2  0  0  0
 17 18  1  0  0  0
 18 19  2  0  0  0
 19 20  1  0  0  0
 20 21  1  0  0  0
 20 22  1  0  0  0
 20 23  1  0  0  0
M  END
> <minimizedAffinity>
-9.44257

$$$$
cs_R3_output_folder/data/smiles/53.pdb


 23 25  0  0  0  0  0  0  0  0999 V2000
   68.1959   44.0232   56.1290 N   0  0  0  0  0  0  0  0  0  0  0  0
   68.1893   42.6597   56.5889 C   0  0  0  0  0  0  0  0  0  0  0  0
   67.6518   41.8411   55.8144 O   0  0  0  0  0  0  0  0  0  0  0  0
   68.7771   42.3003   57.8688 C   0  0  0  0  0  0  0  0  0  0  0  0
   68.1292   42.5813   58.9377 O   0  0  0  0  0  0  0  0  0  0  0  0
   70.0580   41.6387   58.0207 C   0  0  0  0  0  0  0  0  0  0  0  0
   71.3024   42.1999   57.8546 C   0  0  0  0  0  0  0  0  0  0  0  0
   72.2488   41.2583   58.0851 N   0  0  0  0  0  0  0  0  0  0  0  0
   71.6648   40.0904   58.4005 C   0  0  0  0  0  0  0  0  0  0  0  0
   72.1626   38.8278   58.7231 C   0  0  0  0  0  0  0  0  0  0  0  0
   71.2668   37.8232   59.0005 C   0  0  0  0  0  0  0  0  0  0  0  0
   69.8991   38.0264   58.9697 C   0  0  0  0  0  0  0  0  0  0  0  0
   69.4329   39.2813   58.6483 C   0  0  0  0  0  0  0  0  0  0  0  0
   70.3004   40.3243   58.3613 C   0  0  0  0  0  0  0  0  0  0  0  0
   67.6401   44.3907   54.9086 N   0  0  0  0  0  0  0  0  0  0  0  0
   69.0965   47.8676   52.9785 C   0  0  0  0  0  0  0  0  0  0  0  0
   68.5815   46.8081   52.2613 C   0  0  0  0  0  0  0  0  0  0  0  0
   68.1105   45.6819   52.8982 C   0  0  0  0  0  0  0  0  0  0  0  0
   68.1300   45.5592   54.2720 C   0  0  0  0  0  0  0  0  0  0  0  0
   68.6482   46.6244   54.9859 C   0  0  0  0  0  0  0  0  0  0  0  0
   69.1212   47.7533   54.3546 C   0  0  0  0  0  0  0  0  0  0  0  0
   70.3370   48.7176   51.1961 N   0  0  0  0  0  0  0  0  0  0  0  0
   69.5853   49.0352   52.3149 N   0  0  0  0  0  0  0  0  0  0  0  0
 22 23  1  0  0  0
 23 16  1  0  0  0
 16 17  2  0  0  0
 16 21  1  0  0  0
 17 18  1  0  0  0
 18 19  2  0  0  0
 19 15  1  0  0  0
 19 20  1  0  0  0
 15  1  1  0  0  0
  1  2  1  0  0  0
  2  3  2  0  0  0
  2  4  1  0  0  0
  4  5  2  0  0  0
  4  6  1  0  0  0
  6  7  2  0  0  0
  6 14  1  0  0  0
  7  8  1  0  0  0
  8  9  1  0  0  0
  9 10  1  0  0  0
  9 14  2  0  0  0
 10 11  2  0  0  0
 11 12  1  0  0  0
 12 13  2  0  0  0
 13 14  1  0  0  0
 20 21  2  0  0  0
M  CHG 1  23   1
M  END
> <minimizedAffinity>
-8.85053

$$$$
cs_R3_output_folder/data/smiles/54.pdb


 22 23  0  0  0  0  0  0  0  0999 V2000
   69.6611   46.6588   57.4214 S   0  0  0  0  0  0  0  0  0  0  0  0
   69.2779   47.1259   58.8151 O   0  0  0  0  0  0  0  0  0  0  0  0
   70.6709   47.6047   56.8458 O   0  0  0  0  0  0  0  0  0  0  0  0
   71.4485   42.5507   57.9505 C   0  0  0  0  0  0  0  0  0  0  0  0
   70.1702   42.6878   57.4212 C   0  0  0  0  0  0  0  0  0  0  0  0
   69.6287   43.9444   57.2612 C   0  0  0  0  0  0  0  0  0  0  0  0
   70.3556   45.0585   57.6255 C   0  0  0  0  0  0  0  0  0  0  0  0
   71.6204   44.9341   58.1498 C   0  0  0  0  0  0  0  0  0  0  0  0
   72.1461   43.6800   58.3030 C   0  0  0  0  0  0  0  0  0  0  0  0
   71.1169   40.1755   58.6145 C   0  0  0  0  0  0  0  0  0  0  0  0
   72.0796   41.2270   58.1452 C   0  0  0  0  0  0  0  0  0  0  0  0
   68.2860   46.6227   56.4017 N   0  0  0  0  0  0  0  0  0  0  0  0
   68.4269   46.6432   54.9961 C   0  0  0  0  0  0  0  0  0  0  0  0
   67.8329   45.6937   54.1759 C   0  0  0  0  0  0  0  0  0  0  0  0
   68.0046   45.7595   52.8034 C   0  0  0  0  0  0  0  0  0  0  0  0
   68.7691   46.7708   52.2146 C   0  0  0  0  0  0  0  0  0  0  0  0
   68.9281   46.8219   50.8622 F   0  0  0  0  0  0  0  0  0  0  0  0
   69.3620   47.7160   53.0114 C   0  0  0  0  0  0  0  0  0  0  0  0
   69.1821   47.6358   54.3559 C   0  0  0  0  0  0  0  0  0  0  0  0
   70.1747   48.7970   52.4248 C   0  0  0  0  0  0  0  0  0  0  0  0
   69.7743   49.5327   51.3117 N   0  0  0  0  0  0  0  0  0  0  0  0
   71.2903   49.0739   52.9510 O   0  0  0  0  0  0  0  0  0  0  0  0
 10 11  1  0  0  0
 11  4  1  0  0  0
  4  5  2  0  0  0
  4  9  1  0  0  0
  5  6  1  0  0  0
  6  7  2  0  0  0
  7  1  1  0  0  0
  7  8  1  0  0  0
  1  2  2  0  0  0
  1  3  2  0  0  0
  1 12  1  0  0  0
 12 13  1  0  0  0
 13 14  2  0  0  0
 13 19  1  0  0  0
 14 15  1  0  0  0
 15 16  2  0  0  0
 16 17  1  0  0  0
 16 18  1  0  0  0
 18 20  1  0  0  0
 18 19  2  0  0  0
 20 21  1  0  0  0
 20 22  2  0  0  0
  8  9  2  0  0  0
M  END
> <minimizedAffinity>
-7.66376

$$$$
cs_R3_output_folder/data/smiles/55.pdb


 19 20  0  0  0  0  0  0  0  0999 V2000
   70.3146   50.9593   52.8237 O   0  0  0  0  0  0  0  0  0  0  0  0
   70.3541   50.0531   53.7018 C   0  0  0  0  0  0  0  0  0  0  0  0
   71.0407   50.3511   54.8903 N   0  0  0  0  0  0  0  0  0  0  0  0
   69.6927   48.7829   53.4178 C   0  0  0  0  0  0  0  0  0  0  0  0
   69.6816   48.2123   52.1637 C   0  0  0  0  0  0  0  0  0  0  0  0
   69.0328   46.9912   51.9397 C   0  0  0  0  0  0  0  0  0  0  0  0
   68.3870   46.3165   52.9538 C   0  0  0  0  0  0  0  0  0  0  0  0
   68.3982   46.8886   54.2087 C   0  0  0  0  0  0  0  0  0  0  0  0
   67.7513   46.2268   55.2519 O   0  0  0  0  0  0  0  0  0  0  0  0
   69.0381   48.0883   54.4177 C   0  0  0  0  0  0  0  0  0  0  0  0
   71.6816   51.5919   55.1569 C   0  0  0  0  0  0  0  0  0  0  0  0
   70.9245   52.6888   55.5119 C   0  0  0  0  0  0  0  0  0  0  0  0
   71.5602   53.9027   55.7721 C   0  0  0  0  0  0  0  0  0  0  0  0
   72.9262   54.0582   55.6879 C   0  0  0  0  0  0  0  0  0  0  0  0
   73.6686   52.9584   55.3336 C   0  0  0  0  0  0  0  0  0  0  0  0
   73.0532   51.7276   55.0676 C   0  0  0  0  0  0  0  0  0  0  0  0
   73.8332   50.5655   54.6927 C   0  0  0  0  0  0  0  0  0  0  0  0
   74.4027   49.8972   55.5830 O   0  0  0  0  0  0  0  0  0  0  0  0
   73.9450   50.2042   53.3755 O   0  0  0  0  0  0  0  0  0  0  0  0
  1  2  2  0  0  0
  2  3  1  0  0  0
  2  4  1  0  0  0
  3 11  1  0  0  0
 11 12  2  0  0  0
 11 16  1  0  0  0
 12 13  1  0  0  0
 13 14  2  0  0  0
 14 15  1  0  0  0
 15 16  2  0  0  0
 16 17  1  0  0  0
 17 18  2  0  0  0
 17 19  1  0  0  0
  4  5  2  0  0  0
  4 10  1  0  0  0
  5  6  1  0  0  0
  6  7  2  0  0  0
  7  8  1  0  0  0
  8  9  1  0  0  0
  8 10  2  0  0  0
M  END
> <minimizedAffinity>
-7.19885

$$$$
cs_R3_output_folder/data/smiles/56.pdb


 24 26  0  0  0  0  0  0  0  0999 V2000
   71.8125   47.1966   59.2471 C   0  0  0  0  0  0  0  0  0  0  0  0
   72.0443   45.8587   58.9995 C   0  0  0  0  0  0  0  0  0  0  0  0
   71.2180   45.1762   58.1318 C   0  0  0  0  0  0  0  0  0  0  0  0
   70.1688   45.8569   57.5270 C   0  0  0  0  0  0  0  0  0  0  0  0
   69.9244   47.1855   57.7623 C   0  0  0  0  0  0  0  0  0  0  0  0
   70.7621   47.8457   58.6311 C   0  0  0  0  0  0  0  0  0  0  0  0
   72.4740   47.8932   61.4132 O   0  0  0  0  0  0  0  0  0  0  0  0
   72.6766   47.9526   60.1591 C   0  0  0  0  0  0  0  0  0  0  0  0
   73.7307   48.7430   59.6476 N   0  0  0  0  0  0  0  0  0  0  0  0
   74.5929   49.4800   60.5754 C   0  0  0  0  0  0  0  0  0  0  0  0
   75.9413   48.8195   60.4549 C   0  0  0  0  0  0  0  0  0  0  0  0
   76.4193   48.5495   59.0851 C   0  0  0  0  0  0  0  0  0  0  0  0
   75.4976   48.6764   57.9504 C   0  0  0  0  0  0  0  0  0  0  0  0
   74.0559   48.9010   58.2660 C   0  0  0  0  0  0  0  0  0  0  0  0
   68.8209   47.9732   57.1553 C   0  0  0  0  0  0  0  0  0  0  0  0
   68.8063   47.6948   55.7333 N   0  0  0  0  0  0  0  0  0  0  0  0
   68.0766   46.6770   55.2479 C   0  0  0  0  0  0  0  0  0  0  0  0
   68.0245   46.3646   53.9022 C   0  0  0  0  0  0  0  0  0  0  0  0
   68.7475   47.1182   53.0001 C   0  0  0  0  0  0  0  0  0  0  0  0
   69.4925   48.1613   53.5188 C   0  0  0  0  0  0  0  0  0  0  0  0
   69.5178   48.4438   54.8797 C   0  0  0  0  0  0  0  0  0  0  0  0
   70.2007   49.3979   55.3345 O   0  0  0  0  0  0  0  0  0  0  0  0
   68.7091   46.7995   51.5411 C   0  0  0  0  0  0  0  0  0  0  0  0
   69.9142   47.2048   50.9679 O   0  0  0  0  0  0  0  0  0  0  0  0
  7  8  2  0  0  0
  8  1  1  0  0  0
  8  9  1  0  0  0
  1  2  2  0  0  0
  1  6  1  0  0  0
  2  3  1  0  0  0
  3  4  2  0  0  0
  4  5  1  0  0  0
  5 15  1  0  0  0
  5  6  2  0  0  0
 15 16  1  0  0  0
 16 17  1  0  0  0
 16 21  1  0  0  0
 17 18  2  0  0  0
 18 19  1  0  0  0
 19 23  1  0  0  0
 19 20  2  0  0  0
 23 24  1  0  0  0
 20 21  1  0  0  0
 21 22  2  0  0  0
  9 10  1  0  0  0
  9 14  1  0  0  0
 10 11  1  0  0  0
 11 12  1  0  0  0
 12 13  1  0  0  0
 13 14  1  0  0  0
M  END
> <minimizedAffinity>
-6.89215

$$$$
cs_R3_output_folder/data/smiles/57.pdb


 28 29  0  0  0  0  0  0  0  0999 V2000
   70.8675   42.0908   59.0771 C   0  0  0  0  0  0  0  0  0  0  0  0
   69.9199   42.3435   59.8614 O   0  0  0  0  0  0  0  0  0  0  0  0
   71.4184   43.2036   58.3833 N   0  0  0  0  0  0  0  0  0  0  0  0
   72.1169   38.0116   58.6095 C   0  0  0  0  0  0  0  0  0  0  0  0
   72.9951   38.9671   59.0718 C   0  0  0  0  0  0  0  0  0  0  0  0
   72.6074   40.3044   59.2314 C   0  0  0  0  0  0  0  0  0  0  0  0
   71.3281   40.7154   58.9307 C   0  0  0  0  0  0  0  0  0  0  0  0
   70.4594   39.7426   58.4688 C   0  0  0  0  0  0  0  0  0  0  0  0
   70.8367   38.4254   58.3103 C   0  0  0  0  0  0  0  0  0  0  0  0
   72.5588   36.6016   58.4509 C   0  0  0  0  0  0  0  0  0  0  0  0
   71.5874   35.6381   59.0997 C   0  0  0  0  0  0  0  0  0  0  0  0
   72.5581   36.2859   56.9622 C   0  0  0  0  0  0  0  0  0  0  0  0
   74.7107   35.3209   58.2155 C   0  0  0  0  0  0  0  0  0  0  0  0
   73.9633   36.3994   58.9440 C   0  0  0  0  0  0  0  0  0  0  0  0
   70.9358   44.5284   58.5579 C   0  0  0  0  0  0  0  0  0  0  0  0
   71.7104   45.6595   59.4219 S   0  0  0  0  0  0  0  0  0  0  0  0
   69.7085   44.8684   57.9390 N   0  0  0  0  0  0  0  0  0  0  0  0
   69.5969   45.0840   56.5545 N   0  0  0  0  0  0  0  0  0  0  0  0
   68.8342   46.1382   56.0129 C   0  0  0  0  0  0  0  0  0  0  0  0
   68.2439   46.8968   56.8396 O   0  0  0  0  0  0  0  0  0  0  0  0
   68.6836   46.4072   54.5793 C   0  0  0  0  0  0  0  0  0  0  0  0
   67.9404   45.5625   53.7886 C   0  0  0  0  0  0  0  0  0  0  0  0
   67.7996   45.8206   52.4266 C   0  0  0  0  0  0  0  0  0  0  0  0
   68.3901   46.9139   51.8363 C   0  0  0  0  0  0  0  0  0  0  0  0
   69.1325   47.7531   52.6384 C   0  0  0  0  0  0  0  0  0  0  0  0
   69.2728   47.4914   54.0044 C   0  0  0  0  0  0  0  0  0  0  0  0
   69.7628   48.9093   52.0328 C   0  0  0  0  0  0  0  0  0  0  0  0
   70.4502   48.7664   51.0025 O   0  0  0  0  0  0  0  0  0  0  0  0
 13 14  1  0  0  0
 14 10  1  0  0  0
 10 11  1  0  0  0
 10 12  1  0  0  0
 10  4  1  0  0  0
  4  5  2  0  0  0
  4  9  1  0  0  0
  5  6  1  0  0  0
  6  7  2  0  0  0
  7  1  1  0  0  0
  7  8  1  0  0  0
  1  2  2  0  0  0
  1  3  1  0  0  0
  3 15  1  0  0  0
 15 16  2  0  0  0
 15 17  1  0  0  0
 17 18  1  0  0  0
 18 19  1  0  0  0
 19 20  2  0  0  0
 19 21  1  0  0  0
 21 22  2  0  0  0
 21 26  1  0  0  0
 22 23  1  0  0  0
 23 24  2  0  0  0
 24 25  1  0  0  0
 25 27  1  0  0  0
 25 26  2  0  0  0
 27 28  2  0  0  0
  8  9  2  0  0  0
M  END
> <minimizedAffinity>
-8.95379

$$$$
cs_R3_output_folder/data/smiles/58.pdb


 27 29  0  0  0  0  0  0  0  0999 V2000
   70.9828   50.9263   55.5586 C   0  0  0  0  0  0  0  0  0  0  0  0
   70.6732   49.8871   56.3810 C   0  0  0  0  0  0  0  0  0  0  0  0
   70.0309   48.7360   55.9532 C   0  0  0  0  0  0  0  0  0  0  0  0
   69.6952   48.6537   54.6229 C   0  0  0  0  0  0  0  0  0  0  0  0
   69.9965   49.7031   53.7470 C   0  0  0  0  0  0  0  0  0  0  0  0
   70.6418   50.8369   54.2249 C   0  0  0  0  0  0  0  0  0  0  0  0
   69.6693   49.6428   52.4088 C   0  0  0  0  0  0  0  0  0  0  0  0
   69.9457   50.5825   51.6513 O   0  0  0  0  0  0  0  0  0  0  0  0
   69.0456   48.5519   51.9356 N   0  0  0  0  0  0  0  0  0  0  0  0
   68.7444   47.5310   52.7526 C   0  0  0  0  0  0  0  0  0  0  0  0
   68.1036   46.4343   52.2135 C   0  0  0  0  0  0  0  0  0  0  0  0
   67.7745   46.3609   50.8963 F   0  0  0  0  0  0  0  0  0  0  0  0
   67.7720   45.3642   53.0040 C   0  0  0  0  0  0  0  0  0  0  0  0
   68.0925   45.4057   54.3500 C   0  0  0  0  0  0  0  0  0  0  0  0
   67.7519   44.3320   55.1031 F   0  0  0  0  0  0  0  0  0  0  0  0
   68.7314   46.4836   54.9205 C   0  0  0  0  0  0  0  0  0  0  0  0
   69.0559   47.5445   54.1197 C   0  0  0  0  0  0  0  0  0  0  0  0
   71.6806   52.1598   56.0647 C   0  0  0  0  0  0  0  0  0  0  0  0
   72.8844   52.3474   55.1452 C   0  0  0  0  0  0  0  0  0  0  0  0
   74.7026   50.5944   55.2465 C   0  0  0  0  0  0  0  0  0  0  0  0
   74.3207   50.1889   54.1277 O   0  0  0  0  0  0  0  0  0  0  0  0
   74.0119   51.6943   55.8240 N   0  0  0  0  0  0  0  0  0  0  0  0
   75.8466   49.9331   55.9388 C   0  0  0  0  0  0  0  0  0  0  0  0
   78.0223   49.2475   55.4493 C   0  0  0  0  0  0  0  0  0  0  0  0
   76.6876   49.3545   54.9063 N   0  0  0  0  0  0  0  0  0  0  0  0
   73.1543   53.7478   54.8761 C   0  0  0  0  0  0  0  0  0  0  0  0
   73.3571   54.8700   54.6471 N   0  0  0  0  0  0  0  0  0  0  0  0
 24 25  1  0  0  0
 25 23  1  0  0  0
 23 20  1  0  0  0
 20 21  2  0  0  0
 20 22  1  0  0  0
 22 19  1  0  0  0
 19 26  1  0  0  0
 19 18  1  0  0  0
 26 27  3  0  0  0
 18  1  1  0  0  0
  1  2  2  0  0  0
  1  6  1  0  0  0
  2  3  1  0  0  0
  3  4  2  0  0  0
  4  5  1  0  0  0
  4 17  1  0  0  0
  5  6  2  0  0  0
  5  7  1  0  0  0
  7  8  2  0  0  0
  7  9  1  0  0  0
  9 10  1  0  0  0
 10 11  1  0  0  0
 10 17  2  0  0  0
 11 12  1  0  0  0
 11 13  2  0  0  0
 13 14  1  0  0  0
 14 15  1  0  0  0
 14 16  2  0  0  0
 16 17  1  0  0  0
M  CHG 1  25   1
M  END
> <minimizedAffinity>
-8.94826

$$$$
cs_R3_output_folder/data/smiles/59.pdb


 19 20  0  0  0  0  0  0  0  0999 V2000
   67.3122   44.7519   54.7740 N   0  0  0  0  0  0  0  0  0  0  0  0
   68.0104   45.8140   54.1213 C   0  0  0  0  0  0  0  0  0  0  0  0
   68.1042   45.8282   52.7500 C   0  0  0  0  0  0  0  0  0  0  0  0
   68.7784   46.8477   52.1098 C   0  0  0  0  0  0  0  0  0  0  0  0
   69.3798   47.8817   52.7959 C   0  0  0  0  0  0  0  0  0  0  0  0
   69.2635   47.8306   54.1689 C   0  0  0  0  0  0  0  0  0  0  0  0
   68.6020   46.8351   54.8320 C   0  0  0  0  0  0  0  0  0  0  0  0
   70.0708   48.9242   52.1249 N   0  0  0  0  0  0  0  0  0  0  0  0
   70.4622   48.7642   50.9561 O   0  0  0  0  0  0  0  0  0  0  0  0
   70.3189   50.1131   52.7412 O   0  0  0  0  0  0  0  0  0  0  0  0
   66.4885   42.2750   55.6794 O   0  0  0  0  0  0  0  0  0  0  0  0
   67.6385   42.6499   56.0427 C   0  0  0  0  0  0  0  0  0  0  0  0
   68.0952   43.9129   55.5996 N   0  0  0  0  0  0  0  0  0  0  0  0
   68.4502   41.7605   56.9078 C   0  0  0  0  0  0  0  0  0  0  0  0
   69.6528   42.2272   57.4214 C   0  0  0  0  0  0  0  0  0  0  0  0
   70.4380   41.4398   58.2269 C   0  0  0  0  0  0  0  0  0  0  0  0
   70.0144   40.1560   58.5290 C   0  0  0  0  0  0  0  0  0  0  0  0
   68.8251   39.6573   58.0369 C   0  0  0  0  0  0  0  0  0  0  0  0
   68.0699   40.4834   57.2326 C   0  0  0  0  0  0  0  0  0  0  0  0
 11 12  2  0  0  0
 12 13  1  0  0  0
 12 14  1  0  0  0
 13  1  1  0  0  0
  1  2  1  0  0  0
  2  3  2  0  0  0
  2  7  1  0  0  0
  3  4  1  0  0  0
  4  5  2  0  0  0
  5  8  1  0  0  0
  5  6  1  0  0  0
  8  9  2  0  0  0
  8 10  1  0  0  0
  6  7  2  0  0  0
 14 15  2  0  0  0
 14 19  1  0  0  0
 15 16  1  0  0  0
 16 17  2  0  0  0
 17 18  1  0  0  0
 18 19  2  0  0  0
M  CHG 1   8   1
M  CHG 1  10  -1
M  END
> <minimizedAffinity>
-7.95765

$$$$
cs_R3_output_folder/data/smiles/60.pdb


 25 27  0  0  0  0  0  0  0  0999 V2000
   68.1687   42.2225   56.4051 C   0  0  0  0  0  0  0  0  0  0  0  0
   69.2533   42.3473   57.2871 C   0  0  0  0  0  0  0  0  0  0  0  0
   69.7383   41.2857   58.0174 C   0  0  0  0  0  0  0  0  0  0  0  0
   69.1629   40.0441   57.9016 C   0  0  0  0  0  0  0  0  0  0  0  0
   68.1133   39.8943   57.0558 C   0  0  0  0  0  0  0  0  0  0  0  0
   67.6294   40.9726   56.3215 C   0  0  0  0  0  0  0  0  0  0  0  0
   69.6285   38.8812   58.6466 C   0  0  0  0  0  0  0  0  0  0  0  0
   70.8844   38.3702   58.4147 C   0  0  0  0  0  0  0  0  0  0  0  0
   71.3354   37.3033   59.0861 N   0  0  0  0  0  0  0  0  0  0  0  0
   70.5928   36.6658   60.0257 C   0  0  0  0  0  0  0  0  0  0  0  0
   69.3267   37.1450   60.2896 C   0  0  0  0  0  0  0  0  0  0  0  0
   68.3681   36.3234   61.5009 Cl  0  0  0  0  0  0  0  0  0  0  0  0
   68.8477   38.2504   59.6004 C   0  0  0  0  0  0  0  0  0  0  0  0
   67.7213   43.3791   55.6325 C   0  0  0  0  0  0  0  0  0  0  0  0
   68.1284   44.6609   56.0870 N   0  0  0  0  0  0  0  0  0  0  0  0
   69.4107   48.0615   53.9013 C   0  0  0  0  0  0  0  0  0  0  0  0
   68.7824   46.9994   53.2933 C   0  0  0  0  0  0  0  0  0  0  0  0
   68.3563   45.8689   53.9696 C   0  0  0  0  0  0  0  0  0  0  0  0
   68.5496   45.7585   55.3282 C   0  0  0  0  0  0  0  0  0  0  0  0
   69.1953   46.8456   55.9577 C   0  0  0  0  0  0  0  0  0  0  0  0
   69.6063   47.9503   55.2637 C   0  0  0  0  0  0  0  0  0  0  0  0
   69.8260   49.2287   51.3094 N   0  0  0  0  0  0  0  0  0  0  0  0
   69.9300   49.4646   53.0093 S   0  0  0  0  0  0  0  0  0  0  0  0
   69.0632   50.6600   53.3405 O   0  0  0  0  0  0  0  0  0  0  0  0
   71.3460   49.8057   53.3541 O   0  0  0  0  0  0  0  0  0  0  0  0
 22 23  1  0  0  0
 23 24  2  0  0  0
 23 25  2  0  0  0
 23 16  1  0  0  0
 16 17  2  0  0  0
 16 21  1  0  0  0
 17 18  1  0  0  0
 18 19  2  0  0  0
 19 15  1  0  0  0
 19 20  1  0  0  0
 15 14  1  0  0  0
 14  1  1  0  0  0
  1  2  2  0  0  0
  1  6  1  0  0  0
  2  3  1  0  0  0
  3  4  2  0  0  0
  4  7  1  0  0  0
  4  5  1  0  0  0
  7  8  2  0  0  0
  7 13  1  0  0  0
  8  9  1  0  0  0
  9 10  2  0  0  0
 10 11  1  0  0  0
 11 12  1  0  0  0
 11 13  2  0  0  0
  5  6  2  0  0  0
 20 21  2  0  0  0
M  END
> <minimizedAffinity>
-8.22643

$$$$
cs_R3_output_folder/data/smiles/61.pdb


 23 25  0  0  0  0  0  0  0  0999 V2000
   71.8912   50.8490   55.3254 N   0  0  0  0  0  0  0  0  0  0  0  0
   71.3969   51.7153   56.2089 C   0  0  0  0  0  0  0  0  0  0  0  0
   72.2464   52.8450   56.5377 C   0  0  0  0  0  0  0  0  0  0  0  0
   72.6342   53.2624   57.7627 C   0  0  0  0  0  0  0  0  0  0  0  0
   73.5377   54.3179   57.9829 C   0  0  0  0  0  0  0  0  0  0  0  0
   74.0807   54.9945   56.9335 C   0  0  0  0  0  0  0  0  0  0  0  0
   73.7020   54.5931   55.6742 C   0  0  0  0  0  0  0  0  0  0  0  0
   72.8222   53.5629   55.4622 C   0  0  0  0  0  0  0  0  0  0  0  0
   70.1057   51.4193   56.6950 C   0  0  0  0  0  0  0  0  0  0  0  0
   68.9463   51.9556   56.2521 C   0  0  0  0  0  0  0  0  0  0  0  0
   67.6837   51.5338   56.7225 C   0  0  0  0  0  0  0  0  0  0  0  0
   67.6464   50.5430   57.6678 C   0  0  0  0  0  0  0  0  0  0  0  0
   68.8248   50.0031   58.1161 C   0  0  0  0  0  0  0  0  0  0  0  0
   69.9795   50.4368   57.6388 N   0  0  0  0  0  0  0  0  0  0  0  0
   70.4795   50.6277   52.9600 O   0  0  0  0  0  0  0  0  0  0  0  0
   70.4257   49.6468   53.7350 C   0  0  0  0  0  0  0  0  0  0  0  0
   71.1539   49.7547   54.9605 N   0  0  0  0  0  0  0  0  0  0  0  0
   69.6546   48.4574   53.3917 C   0  0  0  0  0  0  0  0  0  0  0  0
   68.8752   47.8098   54.3228 C   0  0  0  0  0  0  0  0  0  0  0  0
   68.1361   46.6833   54.0289 C   0  0  0  0  0  0  0  0  0  0  0  0
   68.1758   46.1803   52.7449 C   0  0  0  0  0  0  0  0  0  0  0  0
   68.9595   46.8378   51.8211 C   0  0  0  0  0  0  0  0  0  0  0  0
   69.6765   47.9482   52.1484 N   0  0  0  0  0  0  0  0  0  0  0  0
 15 16  2  0  0  0
 16 17  1  0  0  0
 16 18  1  0  0  0
 17  1  1  0  0  0
  1  2  2  0  0  0
  2  3  1  0  0  0
  2  9  1  0  0  0
  3  4  2  0  0  0
  3  8  1  0  0  0
  4  5  1  0  0  0
  5  6  2  0  0  0
  6  7  1  0  0  0
  7  8  2  0  0  0
  9 10  2  0  0  0
  9 14  1  0  0  0
 10 11  1  0  0  0
 11 12  2  0  0  0
 12 13  1  0  0  0
 13 14  2  0  0  0
 18 19  2  0  0  0
 18 23  1  0  0  0
 19 20  1  0  0  0
 20 21  2  0  0  0
 21 22  1  0  0  0
 22 23  2  0  0  0
M  END
> <minimizedAffinity>
-7.54115

$$$$
cs_R3_output_folder/data/smiles/62.pdb


 30 33  0  0  0  0  0  0  0  0999 V2000
   70.4588   44.2439   58.7546 C   0  0  0  0  0  0  0  0  0  0  0  0
   69.5382   43.7679   59.6469 N   0  0  0  0  0  0  0  0  0  0  0  0
   69.6633   42.6906   60.3672 N   0  0  0  0  0  0  0  0  0  0  0  0
   70.7895   41.9597   60.2449 C   0  0  0  0  0  0  0  0  0  0  0  0
   70.9086   40.9164   60.9415 O   0  0  0  0  0  0  0  0  0  0  0  0
   71.7683   42.3765   59.3657 C   0  0  0  0  0  0  0  0  0  0  0  0
   72.9300   41.6389   59.2667 C   0  0  0  0  0  0  0  0  0  0  0  0
   73.9330   42.0507   58.4187 C   0  0  0  0  0  0  0  0  0  0  0  0
   73.7975   43.1947   57.6617 C   0  0  0  0  0  0  0  0  0  0  0  0
   72.6227   43.9525   57.7527 C   0  0  0  0  0  0  0  0  0  0  0  0
   71.6233   43.5315   58.6013 C   0  0  0  0  0  0  0  0  0  0  0  0
   68.6482   42.2522   61.2868 C   0  0  0  0  0  0  0  0  0  0  0  0
   67.5501   41.5123   60.9149 C   0  0  0  0  0  0  0  0  0  0  0  0
   66.5888   41.1068   61.8282 C   0  0  0  0  0  0  0  0  0  0  0  0
   66.7168   41.4455   63.1675 C   0  0  0  0  0  0  0  0  0  0  0  0
   67.8119   42.1855   63.5502 C   0  0  0  0  0  0  0  0  0  0  0  0
   68.7681   42.5853   62.6177 C   0  0  0  0  0  0  0  0  0  0  0  0
   69.2500   45.6679   57.0086 N   0  0  0  0  0  0  0  0  0  0  0  0
   70.1604   45.4793   58.0410 C   0  0  0  0  0  0  0  0  0  0  0  0
   70.8172   46.5164   58.4233 O   0  0  0  0  0  0  0  0  0  0  0  0
   69.0728   46.9535   56.3845 C   0  0  0  0  0  0  0  0  0  0  0  0
   69.2933   47.8083   52.7063 C   0  0  0  0  0  0  0  0  0  0  0  0
   68.4989   46.8436   52.1318 C   0  0  0  0  0  0  0  0  0  0  0  0
   67.8999   45.9239   52.9788 C   0  0  0  0  0  0  0  0  0  0  0  0
   68.0853   45.9669   54.3408 C   0  0  0  0  0  0  0  0  0  0  0  0
   68.8804   46.9304   54.9313 C   0  0  0  0  0  0  0  0  0  0  0  0
   69.4854   47.8588   54.0750 C   0  0  0  0  0  0  0  0  0  0  0  0
   69.7958   50.1803   52.0895 N   0  0  0  0  0  0  0  0  0  0  0  0
   69.9450   48.7973   51.8450 C   0  0  0  0  0  0  0  0  0  0  0  0
   70.6530   48.4428   50.8699 O   0  0  0  0  0  0  0  0  0  0  0  0
 28 29  1  0  0  0
 29 30  2  0  0  0
 29 22  1  0  0  0
 22 23  2  0  0  0
 22 27  1  0  0  0
 23 24  1  0  0  0
 24 25  2  0  0  0
 25 26  1  0  0  0
 26 21  1  0  0  0
 26 27  2  0  0  0
 21 18  1  0  0  0
 18 19  1  0  0  0
 19 20  2  0  0  0
 19  1  1  0  0  0
  1  2  2  0  0  0
  1 11  1  0  0  0
  2  3  1  0  0  0
  3 12  1  0  0  0
  3  4  1  0  0  0
 12 13  2  0  0  0
 12 17  1  0  0  0
 13 14  1  0  0  0
 14 15  2  0  0  0
 15 16  1  0  0  0
 16 17  2  0  0  0
  4  5  2  0  0  0
  4  6  1  0  0  0
  6  7  1  0  0  0
  6 11  2  0  0  0
  7  8  2  0  0  0
  8  9  1  0  0  0
  9 10  2  0  0  0
 10 11  1  0  0  0
M  END
> <minimizedAffinity>
-9.19112

$$$$
cs_R3_output_folder/data/smiles/63.pdb


 24 26  0  0  0  0  0  0  0  0999 V2000
   69.9815   44.7448   57.8337 C   0  0  0  0  0  0  0  0  0  0  0  0
   69.9860   45.6314   58.7602 O   0  0  0  0  0  0  0  0  0  0  0  0
   69.4048   45.1811   56.6249 N   0  0  0  0  0  0  0  0  0  0  0  0
   68.6284   41.8729   57.7856 C   0  0  0  0  0  0  0  0  0  0  0  0
   70.0420   42.1671   58.1293 C   0  0  0  0  0  0  0  0  0  0  0  0
   70.5429   43.4391   58.1054 C   0  0  0  0  0  0  0  0  0  0  0  0
   71.8924   43.2609   58.4517 C   0  0  0  0  0  0  0  0  0  0  0  0
   72.1009   41.9584   58.6550 N   0  0  0  0  0  0  0  0  0  0  0  0
   70.9828   41.2449   58.4669 N   0  0  0  0  0  0  0  0  0  0  0  0
   70.8478   39.8418   58.6333 C   0  0  0  0  0  0  0  0  0  0  0  0
   71.3003   38.7114   58.2318 C   0  0  0  0  0  0  0  0  0  0  0  0
   70.3967   37.9510   59.1124 C   0  0  0  0  0  0  0  0  0  0  0  0
   69.9310   39.1000   59.5243 C   0  0  0  0  0  0  0  0  0  0  0  0
   68.6773   39.4844   60.7037 Cl  0  0  0  0  0  0  0  0  0  0  0  0
   68.8487   46.5134   56.3737 C   0  0  0  0  0  0  0  0  0  0  0  0
   68.8067   46.7127   54.8838 C   0  0  0  0  0  0  0  0  0  0  0  0
   68.0904   45.8312   54.0896 C   0  0  0  0  0  0  0  0  0  0  0  0
   67.9804   45.9617   52.7097 C   0  0  0  0  0  0  0  0  0  0  0  0
   68.6041   47.0054   52.1071 C   0  0  0  0  0  0  0  0  0  0  0  0
   69.3282   47.9059   52.8607 C   0  0  0  0  0  0  0  0  0  0  0  0
   69.4219   47.7512   54.2322 C   0  0  0  0  0  0  0  0  0  0  0  0
   69.9489   49.0216   52.1660 C   0  0  0  0  0  0  0  0  0  0  0  0
   70.0757   50.3270   52.7009 N   0  0  0  0  0  0  0  0  0  0  0  0
   70.4156   48.8079   50.9949 O   0  0  0  0  0  0  0  0  0  0  0  0
  4  5  1  0  0  0
  5  6  2  0  0  0
  5  9  1  0  0  0
  6  1  1  0  0  0
  6  7  1  0  0  0
  1  2  2  0  0  0
  1  3  1  0  0  0
  3 15  1  0  0  0
 15 16  1  0  0  0
 16 17  2  0  0  0
 16 21  1  0  0  0
 17 18  1  0  0  0
 18 19  2  0  0  0
 19 20  1  0  0  0
 20 22  1  0  0  0
 20 21  2  0  0  0
 22 23  1  0  0  0
 22 24  2  0  0  0
  7  8  2  0  0  0
  8  9  1  0  0  0
  9 10  1  0  0  0
 10 11  2  0  0  0
 10 13  1  0  0  0
 11 12  1  0  0  0
 12 13  2  0  0  0
 13 14  1  0  0  0
M  END
> <minimizedAffinity>
-7.83156

$$$$
cs_R3_output_folder/data/smiles/64.pdb


 26 29  0  0  0  0  0  0  0  0999 V2000
   70.7617   46.3372   58.4403 C   0  0  0  0  0  0  0  0  0  0  0  0
   69.8727   46.8851   57.5142 C   0  0  0  0  0  0  0  0  0  0  0  0
   69.8372   48.2114   57.2387 C   0  0  0  0  0  0  0  0  0  0  0  0
   70.6991   49.0783   57.8789 C   0  0  0  0  0  0  0  0  0  0  0  0
   71.5832   48.5719   58.7904 C   0  0  0  0  0  0  0  0  0  0  0  0
   71.6166   47.1983   59.0721 C   0  0  0  0  0  0  0  0  0  0  0  0
   72.5546   46.7501   59.9406 F   0  0  0  0  0  0  0  0  0  0  0  0
   69.6744   44.4468   59.1883 O   0  0  0  0  0  0  0  0  0  0  0  0
   70.7336   44.8994   58.6007 C   0  0  0  0  0  0  0  0  0  0  0  0
   71.6848   43.9528   58.2109 N   0  0  0  0  0  0  0  0  0  0  0  0
   71.5190   42.6062   58.3724 C   0  0  0  0  0  0  0  0  0  0  0  0
   72.6465   41.9346   57.9556 C   0  0  0  0  0  0  0  0  0  0  0  0
   73.5375   42.8729   57.5250 C   0  0  0  0  0  0  0  0  0  0  0  0
   72.8973   44.1108   57.7039 C   0  0  0  0  0  0  0  0  0  0  0  0
   68.8857   48.8281   56.2656 C   0  0  0  0  0  0  0  0  0  0  0  0
   69.3363   48.7245   54.8643 C   0  0  0  0  0  0  0  0  0  0  0  0
   70.2247   49.6334   54.3512 N   0  0  0  0  0  0  0  0  0  0  0  0
   70.6174   49.6085   53.1099 N   0  0  0  0  0  0  0  0  0  0  0  0
   70.2058   48.7061   52.2125 C   0  0  0  0  0  0  0  0  0  0  0  0
   70.5991   48.6974   51.0105 O   0  0  0  0  0  0  0  0  0  0  0  0
   69.2975   47.7412   52.6591 C   0  0  0  0  0  0  0  0  0  0  0  0
   68.8445   46.7727   51.7761 C   0  0  0  0  0  0  0  0  0  0  0  0
   67.9623   45.8196   52.2252 C   0  0  0  0  0  0  0  0  0  0  0  0
   67.5408   45.8288   53.5219 C   0  0  0  0  0  0  0  0  0  0  0  0
   67.9952   46.7912   54.3857 C   0  0  0  0  0  0  0  0  0  0  0  0
   68.8775   47.7667   53.9829 C   0  0  0  0  0  0  0  0  0  0  0  0
  8  9  2  0  0  0
  9  1  1  0  0  0
  9 10  1  0  0  0
  1  2  2  0  0  0
  1  6  1  0  0  0
  2  3  1  0  0  0
  3 15  1  0  0  0
  3  4  2  0  0  0
 15 16  1  0  0  0
 16 17  2  0  0  0
 16 26  1  0  0  0
 17 18  1  0  0  0
 18 19  1  0  0  0
 19 20  2  0  0  0
 19 21  1  0  0  0
 21 22  1  0  0  0
 21 26  2  0  0  0
 22 23  2  0  0  0
 23 24  1  0  0  0
 24 25  2  0  0  0
 25 26  1  0  0  0
  4  5  1  0  0  0
  5  6  2  0  0  0
  6  7  1  0  0  0
 10 11  1  0  0  0
 10 14  1  0  0  0
 11 12  2  0  0  0
 12 13  1  0  0  0
 13 14  2  0  0  0
M  END
> <minimizedAffinity>
-9.74686

$$$$
cs_R3_output_folder/data/smiles/65.pdb


 26 29  0  0  0  0  0  0  0  0999 V2000
   70.9721   46.2547   58.4085 C   0  0  0  0  0  0  0  0  0  0  0  0
   70.0637   46.7374   57.4621 C   0  0  0  0  0  0  0  0  0  0  0  0
   69.7693   48.0630   57.2816 C   0  0  0  0  0  0  0  0  0  0  0  0
   70.4402   48.9719   58.1151 C   0  0  0  0  0  0  0  0  0  0  0  0
   71.3342   48.5275   59.0494 C   0  0  0  0  0  0  0  0  0  0  0  0
   71.6128   47.1675   59.2089 C   0  0  0  0  0  0  0  0  0  0  0  0
   72.8047   46.7620   60.4119 Cl  0  0  0  0  0  0  0  0  0  0  0  0
   73.5779   44.4675   58.2024 O   0  0  0  0  0  0  0  0  0  0  0  0
   72.3850   44.1192   58.1083 C   0  0  0  0  0  0  0  0  0  0  0  0
   71.8930   42.8084   57.5539 C   0  0  0  0  0  0  0  0  0  0  0  0
   70.5786   42.6018   58.2203 C   0  0  0  0  0  0  0  0  0  0  0  0
   70.3323   43.8559   58.9608 C   0  0  0  0  0  0  0  0  0  0  0  0
   69.4603   43.9633   59.8490 O   0  0  0  0  0  0  0  0  0  0  0  0
   71.2228   44.8618   58.4968 N   0  0  0  0  0  0  0  0  0  0  0  0
   68.7891   48.6001   56.2916 C   0  0  0  0  0  0  0  0  0  0  0  0
   69.2742   48.5595   54.9002 C   0  0  0  0  0  0  0  0  0  0  0  0
   70.1790   49.4979   54.4792 N   0  0  0  0  0  0  0  0  0  0  0  0
   70.6337   49.5605   53.2491 N   0  0  0  0  0  0  0  0  0  0  0  0
   70.2346   48.6940   52.3068 C   0  0  0  0  0  0  0  0  0  0  0  0
   70.6328   48.7051   51.1177 O   0  0  0  0  0  0  0  0  0  0  0  0
   69.3237   47.7298   52.6886 C   0  0  0  0  0  0  0  0  0  0  0  0
   68.8941   46.8132   51.7622 C   0  0  0  0  0  0  0  0  0  0  0  0
   67.9959   45.8195   52.0765 C   0  0  0  0  0  0  0  0  0  0  0  0
   67.5182   45.7507   53.3706 C   0  0  0  0  0  0  0  0  0  0  0  0
   67.9220   46.6497   54.3311 C   0  0  0  0  0  0  0  0  0  0  0  0
   68.8241   47.6429   53.9954 C   0  0  0  0  0  0  0  0  0  0  0  0
  8  9  2  0  0  0
  9 10  1  0  0  0
  9 14  1  0  0  0
 10 11  1  0  0  0
 11 12  1  0  0  0
 12 13  2  0  0  0
 12 14  1  0  0  0
 14  1  1  0  0  0
  1  2  2  0  0  0
  1  6  1  0  0  0
  2  3  1  0  0  0
  3 15  1  0  0  0
  3  4  2  0  0  0
 15 16  1  0  0  0
 16 17  2  0  0  0
 16 26  1  0  0  0
 17 18  1  0  0  0
 18 19  1  0  0  0
 19 20  2  0  0  0
 19 21  1  0  0  0
 21 22  1  0  0  0
 21 26  2  0  0  0
 22 23  2  0  0  0
 23 24  1  0  0  0
 24 25  2  0  0  0
 25 26  1  0  0  0
  4  5  1  0  0  0
  5  6  2  0  0  0
  6  7  1  0  0  0
M  END
> <minimizedAffinity>
-9.31657

$$$$
cs_R3_output_folder/data/smiles/66.pdb


 26 29  0  0  0  0  0  0  0  0999 V2000
   68.7131   42.7708   56.8834 C   0  0  0  0  0  0  0  0  0  0  0  0
   67.5080   42.1774   56.5447 C   0  0  0  0  0  0  0  0  0  0  0  0
   67.2681   40.8386   56.7507 C   0  0  0  0  0  0  0  0  0  0  0  0
   68.2453   40.0366   57.3070 C   0  0  0  0  0  0  0  0  0  0  0  0
   69.4682   40.6059   57.6565 C   0  0  0  0  0  0  0  0  0  0  0  0
   69.6777   41.9626   57.4385 C   0  0  0  0  0  0  0  0  0  0  0  0
   70.9858   42.1831   57.8922 C   0  0  0  0  0  0  0  0  0  0  0  0
   71.4539   41.0203   58.3276 N   0  0  0  0  0  0  0  0  0  0  0  0
   70.5669   40.0476   58.1999 N   0  0  0  0  0  0  0  0  0  0  0  0
   70.7868   38.6885   58.5575 C   0  0  0  0  0  0  0  0  0  0  0  0
   70.0481   38.0977   59.5885 C   0  0  0  0  0  0  0  0  0  0  0  0
   70.2131   36.7917   59.9853 C   0  0  0  0  0  0  0  0  0  0  0  0
   71.1689   36.0295   59.3194 C   0  0  0  0  0  0  0  0  0  0  0  0
   71.3159   34.7442   59.7206 F   0  0  0  0  0  0  0  0  0  0  0  0
   71.9139   36.5794   58.2983 C   0  0  0  0  0  0  0  0  0  0  0  0
   71.7184   37.9036   57.9256 C   0  0  0  0  0  0  0  0  0  0  0  0
   69.7985   44.7522   57.4544 O   0  0  0  0  0  0  0  0  0  0  0  0
   68.9608   44.1805   56.6623 C   0  0  0  0  0  0  0  0  0  0  0  0
   68.3925   44.9969   55.6902 N   0  0  0  0  0  0  0  0  0  0  0  0
   68.6133   46.3953   55.4551 C   0  0  0  0  0  0  0  0  0  0  0  0
   68.5605   46.6235   53.9936 C   0  0  0  0  0  0  0  0  0  0  0  0
   67.8187   45.8713   53.1315 C   0  0  0  0  0  0  0  0  0  0  0  0
   67.8161   46.0985   51.7467 C   0  0  0  0  0  0  0  0  0  0  0  0
   68.5862   47.1077   51.3122 N   0  0  0  0  0  0  0  0  0  0  0  0
   69.3404   47.8954   52.0896 C   0  0  0  0  0  0  0  0  0  0  0  0
   69.3327   47.6509   53.4635 C   0  0  0  0  0  0  0  0  0  0  0  0
 17 18  2  0  0  0
 18 19  1  0  0  0
 18  1  1  0  0  0
 19 20  1  0  0  0
 20 21  1  0  0  0
 21 22  2  0  0  0
 21 26  1  0  0  0
 22 23  1  0  0  0
 23 24  2  0  0  0
 24 25  1  0  0  0
 25 26  2  0  0  0
  1  2  2  0  0  0
  1  6  1  0  0  0
  2  3  1  0  0  0
  3  4  2  0  0  0
  4  5  1  0  0  0
  5  6  2  0  0  0
  5  9  1  0  0  0
  6  7  1  0  0  0
  7  8  2  0  0  0
  8  9  1  0  0  0
  9 10  1  0  0  0
 10 11  2  0  0  0
 10 16  1  0  0  0
 11 12  1  0  0  0
 12 13  2  0  0  0
 13 14  1  0  0  0
 13 15  1  0  0  0
 15 16  2  0  0  0
M  END
> <minimizedAffinity>
-9.38294

$$$$
cs_R3_output_folder/data/smiles/67.pdb


 20 21  0  0  0  0  0  0  0  0999 V2000
   70.3127   45.3421   57.8256 C   0  0  0  0  0  0  0  0  0  0  0  0
   69.7290   45.7932   58.8462 O   0  0  0  0  0  0  0  0  0  0  0  0
   70.1014   46.0168   56.6167 N   0  0  0  0  0  0  0  0  0  0  0  0
   69.2216   42.8091   57.3156 C   0  0  0  0  0  0  0  0  0  0  0  0
   70.6253   42.9143   57.7667 C   0  0  0  0  0  0  0  0  0  0  0  0
   71.4166   41.8028   57.9468 C   0  0  0  0  0  0  0  0  0  0  0  0
   72.7264   41.9027   58.3668 C   0  0  0  0  0  0  0  0  0  0  0  0
   73.2590   43.1537   58.6163 C   0  0  0  0  0  0  0  0  0  0  0  0
   72.4733   44.2690   58.4386 C   0  0  0  0  0  0  0  0  0  0  0  0
   71.1458   44.1654   58.0110 C   0  0  0  0  0  0  0  0  0  0  0  0
   69.1028   47.4123   56.4373 S   0  0  0  0  0  0  0  0  0  0  0  0
   67.6636   47.1049   56.7297 O   0  0  0  0  0  0  0  0  0  0  0  0
   69.5614   48.4501   57.4469 O   0  0  0  0  0  0  0  0  0  0  0  0
   69.3043   48.1043   54.8559 C   0  0  0  0  0  0  0  0  0  0  0  0
   69.7413   49.3929   54.6854 C   0  0  0  0  0  0  0  0  0  0  0  0
   69.8958   49.9250   53.4004 C   0  0  0  0  0  0  0  0  0  0  0  0
   69.6090   49.1526   52.2957 C   0  0  0  0  0  0  0  0  0  0  0  0
   69.7793   49.7299   50.9884 N   0  0  0  0  0  0  0  0  0  0  0  0
   69.1734   47.8694   52.4551 C   0  0  0  0  0  0  0  0  0  0  0  0
   69.0235   47.3526   53.7439 C   0  0  0  0  0  0  0  0  0  0  0  0
  4  5  1  0  0  0
  5  6  2  0  0  0
  5 10  1  0  0  0
  6  7  1  0  0  0
  7  8  2  0  0  0
  8  9  1  0  0  0
  9 10  2  0  0  0
 10  1  1  0  0  0
  1  2  2  0  0  0
  1  3  1  0  0  0
  3 11  1  0  0  0
 11 12  2  0  0  0
 11 13  2  0  0  0
 11 14  1  0  0  0
 14 15  2  0  0  0
 14 20  1  0  0  0
 15 16  1  0  0  0
 16 17  2  0  0  0
 17 18  1  0  0  0
 17 19  1  0  0  0
 19 20  2  0  0  0
M  END
> <minimizedAffinity>
-6.82201

$$$$
cs_R3_output_folder/data/smiles/68.pdb


 19 21  0  0  0  0  0  0  0  0999 V2000
   69.4851   51.3249   53.6313 O   0  0  0  0  0  0  0  0  0  0  0  0
   70.1872   50.2886   53.7451 C   0  0  0  0  0  0  0  0  0  0  0  0
   69.7665   49.1092   52.9961 C   0  0  0  0  0  0  0  0  0  0  0  0
   69.8973   48.8593   51.6468 C   0  0  0  0  0  0  0  0  0  0  0  0
   69.3680   47.6353   51.3543 N   0  0  0  0  0  0  0  0  0  0  0  0
   68.8944   47.0778   52.4783 C   0  0  0  0  0  0  0  0  0  0  0  0
   68.2733   45.8561   52.6964 C   0  0  0  0  0  0  0  0  0  0  0  0
   67.8756   45.5134   53.9681 C   0  0  0  0  0  0  0  0  0  0  0  0
   68.1055   46.3982   55.0022 C   0  0  0  0  0  0  0  0  0  0  0  0
   68.7281   47.6110   54.7552 C   0  0  0  0  0  0  0  0  0  0  0  0
   69.1339   47.9745   53.4952 C   0  0  0  0  0  0  0  0  0  0  0  0
   71.3561   50.3101   54.5929 C   0  0  0  0  0  0  0  0  0  0  0  0
   72.4992   50.2698   54.0912 O   0  0  0  0  0  0  0  0  0  0  0  0
   71.2747   50.3762   56.0126 N   0  0  0  0  0  0  0  0  0  0  0  0
   70.0115   50.4410   56.6861 C   0  0  0  0  0  0  0  0  0  0  0  0
   70.2983   50.5241   58.1693 C   0  0  0  0  0  0  0  0  0  0  0  0
   71.0276   49.2100   58.4913 C   0  0  0  0  0  0  0  0  0  0  0  0
   72.4211   49.3426   57.9204 C   0  0  0  0  0  0  0  0  0  0  0  0
   72.4800   50.3680   56.8145 C   0  0  0  0  0  0  0  0  0  0  0  0
  1  2  2  0  0  0
  2 12  1  0  0  0
  2  3  1  0  0  0
 12 13  2  0  0  0
 12 14  1  0  0  0
 14 15  1  0  0  0
 14 19  1  0  0  0
 15 16  1  0  0  0
 16 17  1  0  0  0
 17 18  1  0  0  0
 18 19  1  0  0  0
  3  4  2  0  0  0
  3 11  1  0  0  0
  4  5  1  0  0  0
  5  6  1  0  0  0
  6  7  1  0  0  0
  6 11  2  0  0  0
  7  8  2  0  0  0
  8  9  1  0  0  0
  9 10  2  0  0  0
 10 11  1  0  0  0
M  END
> <minimizedAffinity>
-6.84764

$$$$
cs_R3_output_folder/data/smiles/69.pdb


 26 29  0  0  0  0  0  0  0  0999 V2000
   71.5036   50.8418   54.9644 C   0  0  0  0  0  0  0  0  0  0  0  0
   72.4367   51.6822   54.4295 C   0  0  0  0  0  0  0  0  0  0  0  0
   73.7690   51.6048   54.8360 C   0  0  0  0  0  0  0  0  0  0  0  0
   74.2066   50.7007   55.7731 C   0  0  0  0  0  0  0  0  0  0  0  0
   73.2588   49.8690   56.2958 N   0  0  0  0  0  0  0  0  0  0  0  0
   71.9777   49.9291   55.9185 C   0  0  0  0  0  0  0  0  0  0  0  0
   70.0460   50.8295   54.6364 C   0  0  0  0  0  0  0  0  0  0  0  0
   69.2498   46.8441   50.9716 O   0  0  0  0  0  0  0  0  0  0  0  0
   69.4183   47.7745   51.8291 C   0  0  0  0  0  0  0  0  0  0  0  0
   70.0896   48.9084   51.5267 N   0  0  0  0  0  0  0  0  0  0  0  0
   70.2616   49.8651   52.4141 N   0  0  0  0  0  0  0  0  0  0  0  0
   69.7734   49.7587   53.6782 C   0  0  0  0  0  0  0  0  0  0  0  0
   69.0967   48.6349   54.0055 C   0  0  0  0  0  0  0  0  0  0  0  0
   68.8968   47.5957   53.0798 C   0  0  0  0  0  0  0  0  0  0  0  0
   68.1531   46.4125   53.5502 C   0  0  0  0  0  0  0  0  0  0  0  0
   68.4528   46.0059   54.9489 C   0  0  0  0  0  0  0  0  0  0  0  0
   69.0557   47.0700   55.8008 C   0  0  0  0  0  0  0  0  0  0  0  0
   68.4869   48.4236   55.3462 C   0  0  0  0  0  0  0  0  0  0  0  0
   75.5607   50.6159   56.1759 N   0  0  0  0  0  0  0  0  0  0  0  0
   76.5627   49.7610   55.5852 C   0  0  0  0  0  0  0  0  0  0  0  0
   77.8123   49.8785   56.3637 C   0  0  0  0  0  0  0  0  0  0  0  0
   79.0403   49.5183   55.8893 C   0  0  0  0  0  0  0  0  0  0  0  0
   80.1711   49.6612   56.6883 C   0  0  0  0  0  0  0  0  0  0  0  0
   80.0217   50.1596   57.9214 N   0  0  0  0  0  0  0  0  0  0  0  0
   78.8369   50.5277   58.4314 C   0  0  0  0  0  0  0  0  0  0  0  0
   77.7188   50.3857   57.6405 C   0  0  0  0  0  0  0  0  0  0  0  0
  8  9  2  0  0  0
  9 10  1  0  0  0
  9 14  1  0  0  0
 10 11  1  0  0  0
 11 12  2  0  0  0
 12  7  1  0  0  0
 12 13  1  0  0  0
  7  1  1  0  0  0
  1  2  2  0  0  0
  1  6  1  0  0  0
  2  3  1  0  0  0
  3  4  2  0  0  0
  4 19  1  0  0  0
  4  5  1  0  0  0
 19 20  1  0  0  0
 20 21  1  0  0  0
 21 22  2  0  0  0
 21 26  1  0  0  0
 22 23  1  0  0  0
 23 24  2  0  0  0
 24 25  1  0  0  0
 25 26  2  0  0  0
  5  6  2  0  0  0
 13 14  2  0  0  0
 13 18  1  0  0  0
 14 15  1  0  0  0
 15 16  1  0  0  0
 16 17  1  0  0  0
 17 18  1  0  0  0
M  END
> <minimizedAffinity>
-8.46374

$$$$
cs_R3_output_folder/data/smiles/70.pdb


 27 28  0  0  0  0  0  0  0  0999 V2000
   70.3061   49.3479   58.1672 C   0  0  0  0  0  0  0  0  0  0  0  0
   69.5500   50.7781   58.5078 S   0  0  0  0  0  0  0  0  0  0  0  0
   72.4346   48.8297   59.4176 C   0  0  0  0  0  0  0  0  0  0  0  0
   73.1181   49.5575   58.6576 O   0  0  0  0  0  0  0  0  0  0  0  0
   71.0614   48.7308   59.1746 N   0  0  0  0  0  0  0  0  0  0  0  0
   74.5957   46.8971   62.6054 C   0  0  0  0  0  0  0  0  0  0  0  0
   73.6215   46.2278   61.8959 C   0  0  0  0  0  0  0  0  0  0  0  0
   72.9163   46.8401   60.8654 C   0  0  0  0  0  0  0  0  0  0  0  0
   73.1550   48.1461   60.5008 C   0  0  0  0  0  0  0  0  0  0  0  0
   74.1391   48.8204   61.2189 C   0  0  0  0  0  0  0  0  0  0  0  0
   74.8335   48.2069   62.2388 C   0  0  0  0  0  0  0  0  0  0  0  0
   75.3853   47.1170   64.9444 C   0  0  0  0  0  0  0  0  0  0  0  0
   75.3516   46.2495   63.7066 C   0  0  0  0  0  0  0  0  0  0  0  0
   74.6661   44.9438   64.1259 C   0  0  0  0  0  0  0  0  0  0  0  0
   76.7712   45.9352   63.3107 C   0  0  0  0  0  0  0  0  0  0  0  0
   70.1242   48.8520   56.8535 N   0  0  0  0  0  0  0  0  0  0  0  0
   69.0631   47.9403   56.5251 C   0  0  0  0  0  0  0  0  0  0  0  0
   68.3055   47.6021   57.4522 O   0  0  0  0  0  0  0  0  0  0  0  0
   68.8533   47.4147   55.1807 C   0  0  0  0  0  0  0  0  0  0  0  0
   68.1218   46.2957   54.8846 C   0  0  0  0  0  0  0  0  0  0  0  0
   67.9644   45.8514   53.5657 C   0  0  0  0  0  0  0  0  0  0  0  0
   68.5394   46.5222   52.5087 C   0  0  0  0  0  0  0  0  0  0  0  0
   69.2729   47.6441   52.8108 C   0  0  0  0  0  0  0  0  0  0  0  0
   69.4336   48.0904   54.1035 C   0  0  0  0  0  0  0  0  0  0  0  0
   69.8832   48.3672   51.7551 N   0  0  0  0  0  0  0  0  0  0  0  0
   70.3994   47.7588   50.8197 O   0  0  0  0  0  0  0  0  0  0  0  0
   69.9261   49.7429   51.7291 O   0  0  0  0  0  0  0  0  0  0  0  0
 12 13  1  0  0  0
 13 14  1  0  0  0
 13 15  1  0  0  0
 13  6  1  0  0  0
  6  7  2  0  0  0
  6 11  1  0  0  0
  7  8  1  0  0  0
  8  9  2  0  0  0
  9  3  1  0  0  0
  9 10  1  0  0  0
  3  4  2  0  0  0
  3  5  1  0  0  0
  5  1  1  0  0  0
  1  2  2  0  0  0
  1 16  1  0  0  0
 16 17  1  0  0  0
 17 18  2  0  0  0
 17 19  1  0  0  0
 19 20  2  0  0  0
 19 24  1  0  0  0
 20 21  1  0  0  0
 21 22  2  0  0  0
 22 23  1  0  0  0
 23 25  1  0  0  0
 23 24  2  0  0  0
 25 26  2  0  0  0
 25 27  1  0  0  0
 10 11  2  0  0  0
M  CHG 1  25   1
M  CHG 1  27  -1
M  END
> <minimizedAffinity>
-7.70851

$$$$
cs_R3_output_folder/data/smiles/71.pdb


 19 20  0  0  0  0  0  0  0  0999 V2000
   77.0035   35.9761   52.1978 N   0  0  0  0  0  0  0  0  0  0  0  0
   77.4780   35.4045   51.0082 C   0  0  0  0  0  0  0  0  0  0  0  0
   77.7748   34.2126   50.9710 O   0  0  0  0  0  0  0  0  0  0  0  0
   77.6438   36.1447   49.7954 N   0  0  0  0  0  0  0  0  0  0  0  0
   78.1289   35.5397   48.6045 C   0  0  0  0  0  0  0  0  0  0  0  0
   77.2806   35.0863   47.6206 C   0  0  0  0  0  0  0  0  0  0  0  0
   77.7658   34.4946   46.4584 C   0  0  0  0  0  0  0  0  0  0  0  0
   79.1208   34.3449   46.2567 C   0  0  0  0  0  0  0  0  0  0  0  0
   79.9784   34.7949   47.2334 C   0  0  0  0  0  0  0  0  0  0  0  0
   79.4864   35.3898   48.4014 C   0  0  0  0  0  0  0  0  0  0  0  0
   76.7776   35.3341   53.4522 C   0  0  0  0  0  0  0  0  0  0  0  0
   75.4589   34.7514   53.7418 C   0  0  0  0  0  0  0  0  0  0  0  0
   72.6117   35.4498   53.7130 C   0  0  0  0  0  0  0  0  0  0  0  0
   73.4314   35.4096   54.9442 C   0  0  0  0  0  0  0  0  0  0  0  0
   72.7521   35.7186   56.1195 C   0  0  0  0  0  0  0  0  0  0  0  0
   73.4341   35.7125   57.3154 C   0  0  0  0  0  0  0  0  0  0  0  0
   74.7740   35.3991   57.3110 C   0  0  0  0  0  0  0  0  0  0  0  0
   75.4065   35.1069   56.1790 N   0  0  0  0  0  0  0  0  0  0  0  0
   74.7758   35.1025   54.9896 C   0  0  0  0  0  0  0  0  0  0  0  0
 13 14  1  0  0  0
 14 15  2  0  0  0
 14 19  1  0  0  0
 15 16  1  0  0  0
 16 17  2  0  0  0
 17 18  1  0  0  0
 18 19  2  0  0  0
 19 12  1  0  0  0
 12 11  1  0  0  0
 11  1  1  0  0  0
  1  2  1  0  0  0
  2  3  2  0  0  0
  2  4  1  0  0  0
  4  5  1  0  0  0
  5  6  2  0  0  0
  5 10  1  0  0  0
  6  7  1  0  0  0
  7  8  2  0  0  0
  8  9  1  0  0  0
  9 10  2  0  0  0
M  END
> <minimizedAffinity>
-6.66511

$$$$
cs_R3_output_folder/data/smiles/72.pdb


 23 25  0  0  0  0  0  0  0  0999 V2000
   70.5459   49.7225   53.4580 C   0  0  0  0  0  0  0  0  0  0  0  0
   70.0833   50.4410   52.5583 O   0  0  0  0  0  0  0  0  0  0  0  0
   69.8298   48.6396   54.1492 C   0  0  0  0  0  0  0  0  0  0  0  0
   69.8691   48.6014   55.5492 C   0  0  0  0  0  0  0  0  0  0  0  0
   69.2177   47.6141   56.2563 C   0  0  0  0  0  0  0  0  0  0  0  0
   68.5033   46.6279   55.6152 C   0  0  0  0  0  0  0  0  0  0  0  0
   68.4594   46.6568   54.2373 C   0  0  0  0  0  0  0  0  0  0  0  0
   67.7595   45.6872   53.6256 N   0  0  0  0  0  0  0  0  0  0  0  0
   67.6889   45.6734   52.2843 C   0  0  0  0  0  0  0  0  0  0  0  0
   68.3177   46.6318   51.5288 C   0  0  0  0  0  0  0  0  0  0  0  0
   69.0577   47.6586   52.1410 C   0  0  0  0  0  0  0  0  0  0  0  0
   69.1222   47.6616   53.5137 C   0  0  0  0  0  0  0  0  0  0  0  0
   71.8448   50.0006   53.8025 O   0  0  0  0  0  0  0  0  0  0  0  0
   72.4507   50.8153   54.6987 C   0  0  0  0  0  0  0  0  0  0  0  0
   71.9841   52.2327   54.6576 C   0  0  0  0  0  0  0  0  0  0  0  0
   71.0182   52.6948   55.4864 O   0  0  0  0  0  0  0  0  0  0  0  0
   66.5282   50.3109   58.0393 C   0  0  0  0  0  0  0  0  0  0  0  0
   67.6883   50.9339   57.3618 C   0  0  0  0  0  0  0  0  0  0  0  0
   68.9023   50.9986   58.0040 C   0  0  0  0  0  0  0  0  0  0  0  0
   70.0181   51.5833   57.3872 C   0  0  0  0  0  0  0  0  0  0  0  0
   69.9552   52.1144   56.1229 C   0  0  0  0  0  0  0  0  0  0  0  0
   68.7034   52.0374   55.4838 C   0  0  0  0  0  0  0  0  0  0  0  0
   67.6172   51.4626   56.0974 C   0  0  0  0  0  0  0  0  0  0  0  0
 17 18  1  0  0  0
 18 19  2  0  0  0
 18 23  1  0  0  0
 19 20  1  0  0  0
 20 21  2  0  0  0
 21 16  1  0  0  0
 21 22  1  0  0  0
 16 15  1  0  0  0
 15 14  1  0  0  0
 14 13  1  0  0  0
 13  1  1  0  0  0
  1  2  2  0  0  0
  1  3  1  0  0  0
  3  4  2  0  0  0
  3 12  1  0  0  0
  4  5  1  0  0  0
  5  6  2  0  0  0
  6  7  1  0  0  0
  7  8  1  0  0  0
  7 12  2  0  0  0
  8  9  2  0  0  0
  9 10  1  0  0  0
 10 11  2  0  0  0
 11 12  1  0  0  0
 22 23  2  0  0  0
M  END
> <minimizedAffinity>
-7.88175

$$$$
cs_R3_output_folder/data/smiles/73.pdb


 27 30  0  0  0  0  0  0  0  0999 V2000
   69.8161   47.5909   57.3072 C   0  0  0  0  0  0  0  0  0  0  0  0
   70.6880   48.4223   57.9583 C   0  0  0  0  0  0  0  0  0  0  0  0
   71.7272   47.8846   58.6955 C   0  0  0  0  0  0  0  0  0  0  0  0
   71.8573   46.5294   58.7558 C   0  0  0  0  0  0  0  0  0  0  0  0
   70.9967   45.6761   58.1123 C   0  0  0  0  0  0  0  0  0  0  0  0
   69.9686   46.2127   57.3835 C   0  0  0  0  0  0  0  0  0  0  0  0
   68.6796   48.1382   56.5107 C   0  0  0  0  0  0  0  0  0  0  0  0
   70.2276   49.3280   51.4238 O   0  0  0  0  0  0  0  0  0  0  0  0
   69.8436   49.0004   52.5762 C   0  0  0  0  0  0  0  0  0  0  0  0
   70.0157   49.8723   53.5822 N   0  0  0  0  0  0  0  0  0  0  0  0
   69.6237   49.5491   54.7830 N   0  0  0  0  0  0  0  0  0  0  0  0
   69.0396   48.3669   55.1047 C   0  0  0  0  0  0  0  0  0  0  0  0
   68.8379   47.4373   54.1161 C   0  0  0  0  0  0  0  0  0  0  0  0
   69.2517   47.7785   52.8500 C   0  0  0  0  0  0  0  0  0  0  0  0
   69.0794   46.8299   51.7516 C   0  0  0  0  0  0  0  0  0  0  0  0
   67.9393   45.8918   51.8449 C   0  0  0  0  0  0  0  0  0  0  0  0
   67.4539   45.5621   53.1967 C   0  0  0  0  0  0  0  0  0  0  0  0
   68.1942   46.1328   54.3529 C   0  0  0  0  0  0  0  0  0  0  0  0
   71.1737   44.2603   58.2051 N   0  0  0  0  0  0  0  0  0  0  0  0
   70.0119   43.1725   58.7724 S   0  0  0  0  0  0  0  0  0  0  0  0
   70.7467   41.9973   59.3949 O   0  0  0  0  0  0  0  0  0  0  0  0
   69.2165   43.7937   59.8749 O   0  0  0  0  0  0  0  0  0  0  0  0
   68.9255   42.6032   57.5577 C   0  0  0  0  0  0  0  0  0  0  0  0
   68.5646   41.3070   57.3020 C   0  0  0  0  0  0  0  0  0  0  0  0
   67.6799   41.3572   56.2440 C   0  0  0  0  0  0  0  0  0  0  0  0
   67.5561   42.6966   55.9188 C   0  0  0  0  0  0  0  0  0  0  0  0
   68.3099   43.4003   56.7202 O   0  0  0  0  0  0  0  0  0  0  0  0
  8  9  2  0  0  0
  9 10  1  0  0  0
  9 14  1  0  0  0
 10 11  1  0  0  0
 11 12  2  0  0  0
 12  7  1  0  0  0
 12 13  1  0  0  0
  7  1  1  0  0  0
  1  2  2  0  0  0
  1  6  1  0  0  0
  2  3  1  0  0  0
  3  4  2  0  0  0
  4  5  1  0  0  0
  5 19  1  0  0  0
  5  6  2  0  0  0
 19 20  1  0  0  0
 20 21  2  0  0  0
 20 22  2  0  0  0
 20 23  1  0  0  0
 23 24  2  0  0  0
 23 27  1  0  0  0
 24 25  1  0  0  0
 25 26  2  0  0  0
 26 27  1  0  0  0
 13 14  2  0  0  0
 13 18  1  0  0  0
 14 15  1  0  0  0
 15 16  1  0  0  0
 16 17  1  0  0  0
 17 18  1  0  0  0
M  END
> <minimizedAffinity>
-9.51915

$$$$
cs_R3_output_folder/data/smiles/74.pdb


 25 27  0  0  0  0  0  0  0  0999 V2000
   67.0493   42.3205   55.5184 O   0  0  0  0  0  0  0  0  0  0  0  0
   67.8942   42.8342   56.2909 C   0  0  0  0  0  0  0  0  0  0  0  0
   68.1900   44.2192   55.9062 N   0  0  0  0  0  0  0  0  0  0  0  0
   68.5565   42.2672   57.4211 C   0  0  0  0  0  0  0  0  0  0  0  0
   68.8668   43.1519   58.3240 O   0  0  0  0  0  0  0  0  0  0  0  0
   68.9519   40.9352   57.7714 C   0  0  0  0  0  0  0  0  0  0  0  0
   68.0842   39.8292   57.7241 C   0  0  0  0  0  0  0  0  0  0  0  0
   68.7000   38.7153   58.0969 N   0  0  0  0  0  0  0  0  0  0  0  0
   69.9689   39.0052   58.4030 C   0  0  0  0  0  0  0  0  0  0  0  0
   71.0185   38.2130   58.8411 C   0  0  0  0  0  0  0  0  0  0  0  0
   72.2493   38.7830   59.0867 C   0  0  0  0  0  0  0  0  0  0  0  0
   72.4460   40.1220   58.9026 C   0  0  0  0  0  0  0  0  0  0  0  0
   74.0046   40.8651   59.2096 Cl  0  0  0  0  0  0  0  0  0  0  0  0
   71.3804   40.9095   58.4605 C   0  0  0  0  0  0  0  0  0  0  0  0
   70.1336   40.3842   58.2035 C   0  0  0  0  0  0  0  0  0  0  0  0
   67.5398   44.7807   54.7939 N   0  0  0  0  0  0  0  0  0  0  0  0
   68.1635   45.8876   54.1557 C   0  0  0  0  0  0  0  0  0  0  0  0
   68.6857   46.9537   54.8228 C   0  0  0  0  0  0  0  0  0  0  0  0
   69.2926   48.0266   54.1674 C   0  0  0  0  0  0  0  0  0  0  0  0
   69.3526   47.9810   52.8089 C   0  0  0  0  0  0  0  0  0  0  0  0
   68.8338   46.9158   52.1192 C   0  0  0  0  0  0  0  0  0  0  0  0
   68.2375   45.8660   52.7788 C   0  0  0  0  0  0  0  0  0  0  0  0
   69.9574   49.0383   52.0717 N   0  0  0  0  0  0  0  0  0  0  0  0
   70.4348   48.8587   50.9384 O   0  0  0  0  0  0  0  0  0  0  0  0
   70.0240   50.2985   52.6073 O   0  0  0  0  0  0  0  0  0  0  0  0
  1  2  2  0  0  0
  2  3  1  0  0  0
  2  4  1  0  0  0
  3 16  1  0  0  0
 16 17  1  0  0  0
 17 18  2  0  0  0
 17 22  1  0  0  0
 18 19  1  0  0  0
 19 20  2  0  0  0
 20 23  1  0  0  0
 20 21  1  0  0  0
 23 24  2  0  0  0
 23 25  1  0  0  0
 21 22  2  0  0  0
  4  5  2  0  0  0
  4  6  1  0  0  0
  6  7  2  0  0  0
  6 15  1  0  0  0
  7  8  1  0  0  0
  8  9  1  0  0  0
  9 10  1  0  0  0
  9 15  2  0  0  0
 10 11  2  0  0  0
 11 12  1  0  0  0
 12 13  1  0  0  0
 12 14  2  0  0  0
 14 15  1  0  0  0
M  CHG 1  23   1
M  CHG 1  25  -1
M  END
> <minimizedAffinity>
-9.38066

$$$$
cs_R3_output_folder/data/smiles/75.pdb


 21 23  0  0  0  0  0  0  0  0999 V2000
   69.3934   48.3139   54.0236 C   0  0  0  0  0  0  0  0  0  0  0  0
   69.1784   48.1842   55.3878 C   0  0  0  0  0  0  0  0  0  0  0  0
   68.3083   47.2191   55.8423 C   0  0  0  0  0  0  0  0  0  0  0  0
   68.1172   47.1056   57.0886 O   0  0  0  0  0  0  0  0  0  0  0  0
   67.6928   46.4362   55.0107 O   0  0  0  0  0  0  0  0  0  0  0  0
   67.8397   46.4961   53.7154 C   0  0  0  0  0  0  0  0  0  0  0  0
   67.1744   45.6604   52.8969 N   0  0  0  0  0  0  0  0  0  0  0  0
   67.3372   45.7403   51.5704 C   0  0  0  0  0  0  0  0  0  0  0  0
   66.6908   44.9330   50.8205 O   0  0  0  0  0  0  0  0  0  0  0  0
   68.1657   46.6557   51.0545 N   0  0  0  0  0  0  0  0  0  0  0  0
   68.8598   47.5212   51.8439 C   0  0  0  0  0  0  0  0  0  0  0  0
   69.6133   48.3522   51.3159 O   0  0  0  0  0  0  0  0  0  0  0  0
   68.7145   47.4601   53.1936 C   0  0  0  0  0  0  0  0  0  0  0  0
   70.3557   49.3187   53.5783 C   0  0  0  0  0  0  0  0  0  0  0  0
   69.7802   50.7435   53.5472 C   0  0  0  0  0  0  0  0  0  0  0  0
   70.6224   51.5529   54.4749 C   0  0  0  0  0  0  0  0  0  0  0  0
   69.9000   52.1588   55.6387 C   0  0  0  0  0  0  0  0  0  0  0  0
   70.6785   52.2738   56.9356 C   0  0  0  0  0  0  0  0  0  0  0  0
   70.4691   53.4864   56.1398 C   0  0  0  0  0  0  0  0  0  0  0  0
   67.9511   51.2848   57.0034 C   0  0  0  0  0  0  0  0  0  0  0  0
   68.4272   52.0339   55.8141 C   0  0  0  0  0  0  0  0  0  0  0  0
 20 21  1  0  0  0
 21 17  1  0  0  0
 17 16  1  0  0  0
 17 18  1  0  0  0
 17 19  1  0  0  0
 16 15  1  0  0  0
 15 14  1  0  0  0
 14  1  1  0  0  0
  1  2  2  0  0  0
  1 13  1  0  0  0
  2  3  1  0  0  0
  3  4  2  0  0  0
  3  5  1  0  0  0
  5  6  1  0  0  0
  6  7  1  0  0  0
  6 13  2  0  0  0
  7  8  1  0  0  0
  8  9  2  0  0  0
  8 10  1  0  0  0
 10 11  1  0  0  0
 11 12  2  0  0  0
 11 13  1  0  0  0
 18 19  1  0  0  0
M  END
> <minimizedAffinity>
-8.92693

$$$$
cs_R3_output_folder/data/smiles/76.pdb


 19 21  0  0  0  0  0  0  0  0999 V2000
   70.2572   49.0194   51.0028 O   0  0  0  0  0  0  0  0  0  0  0  0
   70.1836   49.2220   52.5119 S   0  0  0  0  0  0  0  0  0  0  0  0
   71.6548   49.1104   52.9350 O   0  0  0  0  0  0  0  0  0  0  0  0
   69.2786   47.9230   53.1730 C   0  0  0  0  0  0  0  0  0  0  0  0
   69.3042   47.7007   54.5429 C   0  0  0  0  0  0  0  0  0  0  0  0
   68.6115   46.6821   55.1534 C   0  0  0  0  0  0  0  0  0  0  0  0
   67.8541   45.8357   54.3872 C   0  0  0  0  0  0  0  0  0  0  0  0
   67.7974   46.0155   53.0316 C   0  0  0  0  0  0  0  0  0  0  0  0
   67.1742   45.3953   52.0060 N   0  0  0  0  0  0  0  0  0  0  0  0
   67.4608   45.9819   50.8797 O   0  0  0  0  0  0  0  0  0  0  0  0
   68.2526   46.9623   51.1602 N   0  0  0  0  0  0  0  0  0  0  0  0
   68.5066   47.0493   52.4550 C   0  0  0  0  0  0  0  0  0  0  0  0
   69.6238   50.7869   52.7923 N   0  0  0  0  0  0  0  0  0  0  0  0
   69.5197   51.4636   54.0479 C   0  0  0  0  0  0  0  0  0  0  0  0
   68.3527   51.3430   54.7488 C   0  0  0  0  0  0  0  0  0  0  0  0
   68.1647   51.9529   55.9592 C   0  0  0  0  0  0  0  0  0  0  0  0
   69.1751   52.7191   56.5066 C   0  0  0  0  0  0  0  0  0  0  0  0
   70.3583   52.8348   55.7833 C   0  0  0  0  0  0  0  0  0  0  0  0
   70.5309   52.2171   54.5722 C   0  0  0  0  0  0  0  0  0  0  0  0
  1  2  2  0  0  0
  2  3  2  0  0  0
  2 13  1  0  0  0
  2  4  1  0  0  0
 13 14  1  0  0  0
 14 15  2  0  0  0
 14 19  1  0  0  0
 15 16  1  0  0  0
 16 17  2  0  0  0
 17 18  1  0  0  0
 18 19  2  0  0  0
  4  5  2  0  0  0
  4 12  1  0  0  0
  5  6  1  0  0  0
  6  7  2  0  0  0
  7  8  1  0  0  0
  8  9  2  0  0  0
  8 12  1  0  0  0
  9 10  1  0  0  0
 10 11  1  0  0  0
 11 12  2  0  0  0
M  END
> <minimizedAffinity>
-8.60670

$$$$
cs_R3_output_folder/data/smiles/77.pdb


 22 23  0  0  0  0  0  0  0  0999 V2000
   67.7449   43.7840   55.3131 N   0  0  0  0  0  0  0  0  0  0  0  0
   68.1678   45.1241   55.2212 C   0  0  0  0  0  0  0  0  0  0  0  0
   68.4775   45.7159   56.2840 O   0  0  0  0  0  0  0  0  0  0  0  0
   68.2645   45.8610   53.9576 C   0  0  0  0  0  0  0  0  0  0  0  0
   67.7205   45.4027   52.7786 C   0  0  0  0  0  0  0  0  0  0  0  0
   67.8431   46.1486   51.6002 C   0  0  0  0  0  0  0  0  0  0  0  0
   68.5051   47.3580   51.5747 C   0  0  0  0  0  0  0  0  0  0  0  0
   69.0493   47.8188   52.7504 C   0  0  0  0  0  0  0  0  0  0  0  0
   68.9225   47.0781   53.8967 C   0  0  0  0  0  0  0  0  0  0  0  0
   69.7597   49.1231   52.7037 C   0  0  0  0  0  0  0  0  0  0  0  0
   69.0906   50.0649   53.4921 F   0  0  0  0  0  0  0  0  0  0  0  0
   69.6852   49.6299   51.4004 F   0  0  0  0  0  0  0  0  0  0  0  0
   71.0727   48.9797   53.0985 F   0  0  0  0  0  0  0  0  0  0  0  0
   67.4611   41.0842   55.5105 O   0  0  0  0  0  0  0  0  0  0  0  0
   67.5142   41.6997   56.6235 C   0  0  0  0  0  0  0  0  0  0  0  0
   67.6611   43.0962   56.5498 N   0  0  0  0  0  0  0  0  0  0  0  0
   67.4210   40.9308   57.8622 C   0  0  0  0  0  0  0  0  0  0  0  0
   66.7209   41.4008   58.9471 C   0  0  0  0  0  0  0  0  0  0  0  0
   66.6429   40.6491   60.1271 C   0  0  0  0  0  0  0  0  0  0  0  0
   67.2570   39.4226   60.2517 C   0  0  0  0  0  0  0  0  0  0  0  0
   67.9604   38.9571   59.1554 C   0  0  0  0  0  0  0  0  0  0  0  0
   68.0338   39.7000   57.9963 C   0  0  0  0  0  0  0  0  0  0  0  0
 14 15  2  0  0  0
 15 16  1  0  0  0
 15 17  1  0  0  0
 16  1  1  0  0  0
  1  2  1  0  0  0
  2  3  2  0  0  0
  2  4  1  0  0  0
  4  5  2  0  0  0
  4  9  1  0  0  0
  5  6  1  0  0  0
  6  7  2  0  0  0
  7  8  1  0  0  0
  8 10  1  0  0  0
  8  9  2  0  0  0
 10 11  1  0  0  0
 10 12  1  0  0  0
 10 13  1  0  0  0
 17 18  2  0  0  0
 17 22  1  0  0  0
 18 19  1  0  0  0
 19 20  2  0  0  0
 20 21  1  0  0  0
 21 22  2  0  0  0
M  END
> <minimizedAffinity>
-8.18258

$$$$
cs_R3_output_folder/data/smiles/78.pdb


 24 26  0  0  0  0  0  0  0  0999 V2000
   68.1416   44.7265   55.1498 N   0  0  0  0  0  0  0  0  0  0  0  0
   68.6474   43.9981   56.2324 C   0  0  0  0  0  0  0  0  0  0  0  0
   69.4795   44.5373   56.9885 O   0  0  0  0  0  0  0  0  0  0  0  0
   69.1684   47.7542   53.1796 C   0  0  0  0  0  0  0  0  0  0  0  0
   69.0016   48.7592   54.1045 C   0  0  0  0  0  0  0  0  0  0  0  0
   68.5573   48.4135   55.3483 C   0  0  0  0  0  0  0  0  0  0  0  0
   68.2899   47.1033   55.6494 C   0  0  0  0  0  0  0  0  0  0  0  0
   68.4404   46.0499   54.7561 C   0  0  0  0  0  0  0  0  0  0  0  0
   68.8876   46.4140   53.5114 C   0  0  0  0  0  0  0  0  0  0  0  0
   69.8810   49.4033   51.4777 N   0  0  0  0  0  0  0  0  0  0  0  0
   69.6377   48.0626   51.8440 C   0  0  0  0  0  0  0  0  0  0  0  0
   69.8210   47.1388   51.0337 O   0  0  0  0  0  0  0  0  0  0  0  0
   68.2609   42.6204   56.5458 C   0  0  0  0  0  0  0  0  0  0  0  0
   67.2915   41.8529   55.9350 C   0  0  0  0  0  0  0  0  0  0  0  0
   67.2748   40.6419   56.5463 N   0  0  0  0  0  0  0  0  0  0  0  0
   68.1733   40.5885   57.5123 N   0  0  0  0  0  0  0  0  0  0  0  0
   68.7787   41.7879   57.5188 C   0  0  0  0  0  0  0  0  0  0  0  0
   68.4445   39.4673   58.3776 C   0  0  0  0  0  0  0  0  0  0  0  0
   69.7381   39.0071   58.4535 C   0  0  0  0  0  0  0  0  0  0  0  0
   70.0047   37.9354   59.2795 C   0  0  0  0  0  0  0  0  0  0  0  0
   69.0407   37.3010   60.0357 C   0  0  0  0  0  0  0  0  0  0  0  0
   69.4007   35.9403   61.0800 Cl  0  0  0  0  0  0  0  0  0  0  0  0
   67.7425   37.8107   59.9205 C   0  0  0  0  0  0  0  0  0  0  0  0
   67.4593   38.8821   59.0973 C   0  0  0  0  0  0  0  0  0  0  0  0
 10 11  1  0  0  0
 11 12  2  0  0  0
 11  4  1  0  0  0
  4  5  2  0  0  0
  4  9  1  0  0  0
  5  6  1  0  0  0
  6  7  2  0  0  0
  7  8  1  0  0  0
  8  1  1  0  0  0
  8  9  2  0  0  0
  1  2  1  0  0  0
  2  3  2  0  0  0
  2 13  1  0  0  0
 13 14  1  0  0  0
 13 17  2  0  0  0
 14 15  2  0  0  0
 15 16  1  0  0  0
 16 18  1  0  0  0
 16 17  1  0  0  0
 18 19  2  0  0  0
 18 24  1  0  0  0
 19 20  1  0  0  0
 20 21  2  0  0  0
 21 22  1  0  0  0
 21 23  1  0  0  0
 23 24  2  0  0  0
M  END
> <minimizedAffinity>
-8.50812

$$$$
cs_R3_output_folder/data/smiles/79.pdb


 19 20  0  0  0  0  0  0  0  0999 V2000
   75.1336   35.9009   53.0104 N   0  0  0  0  0  0  0  0  0  0  0  0
   74.6662   35.6140   54.3159 C   0  0  0  0  0  0  0  0  0  0  0  0
   75.5268   35.3187   55.1927 O   0  0  0  0  0  0  0  0  0  0  0  0
   73.2837   35.6445   54.6757 N   0  0  0  0  0  0  0  0  0  0  0  0
   72.9627   35.3256   56.0273 C   0  0  0  0  0  0  0  0  0  0  0  0
   73.0125   34.0321   56.5028 C   0  0  0  0  0  0  0  0  0  0  0  0
   72.7108   33.6769   57.8014 C   0  0  0  0  0  0  0  0  0  0  0  0
   72.3348   34.6810   58.6873 C   0  0  0  0  0  0  0  0  0  0  0  0
   72.2734   35.9774   58.2532 C   0  0  0  0  0  0  0  0  0  0  0  0
   72.5793   36.2968   56.9561 C   0  0  0  0  0  0  0  0  0  0  0  0
   76.5473   35.8685   52.6415 C   0  0  0  0  0  0  0  0  0  0  0  0
   76.8885   34.6147   51.8799 C   0  0  0  0  0  0  0  0  0  0  0  0
   75.1280   33.2074   49.9331 C   0  0  0  0  0  0  0  0  0  0  0  0
   76.2330   34.1238   49.5294 C   0  0  0  0  0  0  0  0  0  0  0  0
   76.4424   34.3228   48.1653 C   0  0  0  0  0  0  0  0  0  0  0  0
   77.4334   35.1629   47.7067 C   0  0  0  0  0  0  0  0  0  0  0  0
   78.2431   35.8282   48.6269 C   0  0  0  0  0  0  0  0  0  0  0  0
   78.0141   35.6134   49.9629 C   0  0  0  0  0  0  0  0  0  0  0  0
   77.0279   34.7764   50.4369 C   0  0  0  0  0  0  0  0  0  0  0  0
 13 14  1  0  0  0
 14 15  2  0  0  0
 14 19  1  0  0  0
 15 16  1  0  0  0
 16 17  2  0  0  0
 17 18  1  0  0  0
 18 19  2  0  0  0
 19 12  1  0  0  0
 12 11  1  0  0  0
 11  1  1  0  0  0
  1  2  1  0  0  0
  2  3  2  0  0  0
  2  4  1  0  0  0
  4  5  1  0  0  0
  5  6  2  0  0  0
  5 10  1  0  0  0
  6  7  1  0  0  0
  7  8  2  0  0  0
  8  9  1  0  0  0
  9 10  2  0  0  0
M  END
> <minimizedAffinity>
-6.81646

$$$$
cs_R3_output_folder/data/smiles/80.pdb


 19 20  0  0  0  0  0  0  0  0999 V2000
   69.8755   38.4838   60.1814 S   0  0  0  0  0  0  0  0  0  0  0  0
   68.5859   37.8255   60.5664 O   0  0  0  0  0  0  0  0  0  0  0  0
   70.5723   38.8640   61.4575 O   0  0  0  0  0  0  0  0  0  0  0  0
   73.2616   34.6805   56.8740 C   0  0  0  0  0  0  0  0  0  0  0  0
   72.4210   35.6033   57.7011 C   0  0  0  0  0  0  0  0  0  0  0  0
   72.3806   36.9464   57.4081 C   0  0  0  0  0  0  0  0  0  0  0  0
   71.6158   37.8343   58.1470 C   0  0  0  0  0  0  0  0  0  0  0  0
   70.8642   37.3942   59.2110 C   0  0  0  0  0  0  0  0  0  0  0  0
   70.9045   36.0461   59.5047 C   0  0  0  0  0  0  0  0  0  0  0  0
   71.6721   35.1505   58.7633 C   0  0  0  0  0  0  0  0  0  0  0  0
   69.6049   39.9321   59.2818 N   0  0  0  0  0  0  0  0  0  0  0  0
   68.7040   39.9862   58.1944 C   0  0  0  0  0  0  0  0  0  0  0  0
   68.1069   38.9050   57.9228 O   0  0  0  0  0  0  0  0  0  0  0  0
   68.4434   41.1777   57.4086 C   0  0  0  0  0  0  0  0  0  0  0  0
   67.3527   41.2091   56.5707 C   0  0  0  0  0  0  0  0  0  0  0  0
   67.0671   42.3393   55.7961 C   0  0  0  0  0  0  0  0  0  0  0  0
   67.8636   43.4197   55.8634 N   0  0  0  0  0  0  0  0  0  0  0  0
   68.9397   43.4125   56.6795 C   0  0  0  0  0  0  0  0  0  0  0  0
   69.2257   42.2955   57.4479 C   0  0  0  0  0  0  0  0  0  0  0  0
  4  5  1  0  0  0
  5  6  2  0  0  0
  5 10  1  0  0  0
  6  7  1  0  0  0
  7  8  2  0  0  0
  8  1  1  0  0  0
  8  9  1  0  0  0
  1  2  2  0  0  0
  1  3  2  0  0  0
  1 11  1  0  0  0
 11 12  1  0  0  0
 12 13  2  0  0  0
 12 14  1  0  0  0
 14 15  2  0  0  0
 14 19  1  0  0  0
 15 16  1  0  0  0
 16 17  2  0  0  0
 17 18  1  0  0  0
 18 19  2  0  0  0
  9 10  2  0  0  0
M  END
> <minimizedAffinity>
-6.16920

$$$$
cs_R3_output_folder/data/smiles/81.pdb


 20 22  0  0  0  0  0  0  0  0999 V2000
   76.6415   36.6133   52.8393 O   0  0  0  0  0  0  0  0  0  0  0  0
   75.8753   35.6359   52.8266 C   0  0  0  0  0  0  0  0  0  0  0  0
   75.7852   34.8167   51.6879 N   0  0  0  0  0  0  0  0  0  0  0  0
   74.9520   33.6633   51.5269 C   0  0  0  0  0  0  0  0  0  0  0  0
   74.8402   33.4052   50.0511 C   0  0  0  0  0  0  0  0  0  0  0  0
   75.9994   34.1769   49.4727 C   0  0  0  0  0  0  0  0  0  0  0  0
   76.5576   34.1794   48.1993 C   0  0  0  0  0  0  0  0  0  0  0  0
   77.6352   34.9832   47.8907 C   0  0  0  0  0  0  0  0  0  0  0  0
   78.1794   34.9775   46.6264 F   0  0  0  0  0  0  0  0  0  0  0  0
   78.1630   35.7974   48.8718 C   0  0  0  0  0  0  0  0  0  0  0  0
   77.5972   35.7825   50.1321 C   0  0  0  0  0  0  0  0  0  0  0  0
   76.5192   34.9853   50.4557 C   0  0  0  0  0  0  0  0  0  0  0  0
   75.0746   35.3421   53.9946 C   0  0  0  0  0  0  0  0  0  0  0  0
   75.7108   34.8527   55.1249 C   0  0  0  0  0  0  0  0  0  0  0  0
   74.9610   34.5735   56.2300 C   0  0  0  0  0  0  0  0  0  0  0  0
   73.5944   34.7680   56.2443 C   0  0  0  0  0  0  0  0  0  0  0  0
   72.8582   34.4736   57.3885 O   0  0  0  0  0  0  0  0  0  0  0  0
   72.9597   35.2541   55.1225 C   0  0  0  0  0  0  0  0  0  0  0  0
   73.7006   35.5388   54.0046 C   0  0  0  0  0  0  0  0  0  0  0  0
   73.1222   36.0213   52.8731 F   0  0  0  0  0  0  0  0  0  0  0  0
  1  2  2  0  0  0
  2 13  1  0  0  0
  2  3  1  0  0  0
 13 14  2  0  0  0
 13 19  1  0  0  0
 14 15  1  0  0  0
 15 16  2  0  0  0
 16 17  1  0  0  0
 16 18  1  0  0  0
 18 19  2  0  0  0
 19 20  1  0  0  0
  3  4  1  0  0  0
  3 12  1  0  0  0
  4  5  1  0  0  0
  5  6  1  0  0  0
  6  7  1  0  0  0
  6 12  2  0  0  0
  7  8  2  0  0  0
  8  9  1  0  0  0
  8 10  1  0  0  0
 10 11  2  0  0  0
 11 12  1  0  0  0
M  END
> <minimizedAffinity>
-6.86722

$$$$
cs_R3_output_folder/data/smiles/82.pdb


 24 28  0  0  0  0  0  0  0  0999 V2000
   70.5887   48.1403   50.8487 O   0  0  0  0  0  0  0  0  0  0  0  0
   70.2426   48.3744   52.0345 C   0  0  0  0  0  0  0  0  0  0  0  0
   70.7783   49.3789   52.6922 N   0  0  0  0  0  0  0  0  0  0  0  0
   70.4254   49.6454   53.9559 C   0  0  0  0  0  0  0  0  0  0  0  0
   70.8782   50.6505   54.7943 C   0  0  0  0  0  0  0  0  0  0  0  0
   70.1920   50.4676   55.9686 C   0  0  0  0  0  0  0  0  0  0  0  0
   70.2910   51.2218   57.1300 C   0  0  0  0  0  0  0  0  0  0  0  0
   69.5085   50.8705   58.2083 C   0  0  0  0  0  0  0  0  0  0  0  0
   68.6599   49.8001   58.1191 C   0  0  0  0  0  0  0  0  0  0  0  0
   68.5617   49.0392   56.9439 C   0  0  0  0  0  0  0  0  0  0  0  0
   69.3288   49.3676   55.8571 C   0  0  0  0  0  0  0  0  0  0  0  0
   69.5003   48.8937   54.6158 N   0  0  0  0  0  0  0  0  0  0  0  0
   68.9118   47.8407   53.9861 C   0  0  0  0  0  0  0  0  0  0  0  0
   67.9748   47.0363   54.5771 C   0  0  0  0  0  0  0  0  0  0  0  0
   67.4338   45.9895   53.8554 C   0  0  0  0  0  0  0  0  0  0  0  0
   67.8125   45.7363   52.5586 C   0  0  0  0  0  0  0  0  0  0  0  0
   68.7523   46.5422   51.9657 C   0  0  0  0  0  0  0  0  0  0  0  0
   69.3123   47.6022   52.6691 C   0  0  0  0  0  0  0  0  0  0  0  0
   71.8956   51.6998   54.4716 C   0  0  0  0  0  0  0  0  0  0  0  0
   73.2737   51.2330   54.7350 C   0  0  0  0  0  0  0  0  0  0  0  0
   74.1176   51.5945   55.7120 N   0  0  0  0  0  0  0  0  0  0  0  0
   75.2474   50.9084   55.5466 N   0  0  0  0  0  0  0  0  0  0  0  0
   75.1416   50.1134   54.4795 N   0  0  0  0  0  0  0  0  0  0  0  0
   73.9238   50.3245   53.9920 N   0  0  0  0  0  0  0  0  0  0  0  0
  1  2  2  0  0  0
  2  3  1  0  0  0
  2 18  1  0  0  0
  3  4  1  0  0  0
  4  5  2  0  0  0
  4 12  1  0  0  0
  5 19  1  0  0  0
  5  6  1  0  0  0
 19 20  1  0  0  0
 20 21  2  0  0  0
 20 24  1  0  0  0
 21 22  1  0  0  0
 22 23  2  0  0  0
 23 24  1  0  0  0
  6  7  2  0  0  0
  6 11  1  0  0  0
  7  8  1  0  0  0
  8  9  2  0  0  0
  9 10  1  0  0  0
 10 11  2  0  0  0
 11 12  1  0  0  0
 12 13  1  0  0  0
 13 14  1  0  0  0
 13 18  2  0  0  0
 14 15  2  0  0  0
 15 16  1  0  0  0
 16 17  2  0  0  0
 17 18  1  0  0  0
M  END
> <minimizedAffinity>
-9.38119

$$$$
cs_R3_output_folder/data/smiles/83.pdb


 18 19  0  0  0  0  0  0  0  0999 V2000
   68.3993   44.9024   55.6055 N   0  0  0  0  0  0  0  0  0  0  0  0
   68.9151   46.0388   56.2970 C   0  0  0  0  0  0  0  0  0  0  0  0
   69.4095   45.8846   57.4401 O   0  0  0  0  0  0  0  0  0  0  0  0
   68.4914   41.0533   57.3506 C   0  0  0  0  0  0  0  0  0  0  0  0
   69.4709   41.9862   57.5994 C   0  0  0  0  0  0  0  0  0  0  0  0
   69.4652   43.2501   57.0430 C   0  0  0  0  0  0  0  0  0  0  0  0
   68.4408   43.6209   56.1931 C   0  0  0  0  0  0  0  0  0  0  0  0
   67.4455   42.6948   55.9309 C   0  0  0  0  0  0  0  0  0  0  0  0
   67.4672   41.4266   56.5003 C   0  0  0  0  0  0  0  0  0  0  0  0
   70.2619   39.0762   58.5227 C   0  0  0  0  0  0  0  0  0  0  0  0
   68.5260   39.4178   58.0891 S   0  0  0  0  0  0  0  0  0  0  0  0
   68.8302   47.3467   55.6033 C   0  0  0  0  0  0  0  0  0  0  0  0
   68.6664   47.0797   54.1564 C   0  0  0  0  0  0  0  0  0  0  0  0
   67.7526   46.1782   53.6540 C   0  0  0  0  0  0  0  0  0  0  0  0
   67.6116   45.9400   52.3044 C   0  0  0  0  0  0  0  0  0  0  0  0
   68.4297   46.6457   51.4513 C   0  0  0  0  0  0  0  0  0  0  0  0
   69.3557   47.5544   51.9089 C   0  0  0  0  0  0  0  0  0  0  0  0
   69.4684   47.7670   53.2736 C   0  0  0  0  0  0  0  0  0  0  0  0
 10 11  1  0  0  0
 11  4  1  0  0  0
  4  5  2  0  0  0
  4  9  1  0  0  0
  5  6  1  0  0  0
  6  7  2  0  0  0
  7  1  1  0  0  0
  7  8  1  0  0  0
  1  2  1  0  0  0
  2  3  2  0  0  0
  2 12  1  0  0  0
 12 13  1  0  0  0
 13 14  2  0  0  0
 13 18  1  0  0  0
 14 15  1  0  0  0
 15 16  2  0  0  0
 16 17  1  0  0  0
 17 18  2  0  0  0
  8  9  2  0  0  0
M  END
> <minimizedAffinity>
-7.52036

$$$$
cs_R3_output_folder/data/smiles/84.pdb


 24 26  0  0  0  0  0  0  0  0999 V2000
   70.3360   50.0369   54.5152 C   0  0  0  0  0  0  0  0  0  0  0  0
   69.5978   51.4144   54.0496 S   0  0  0  0  0  0  0  0  0  0  0  0
   69.4411   48.9128   54.8711 C   0  0  0  0  0  0  0  0  0  0  0  0
   68.9402   48.7662   56.1359 C   0  0  0  0  0  0  0  0  0  0  0  0
   68.1124   47.7222   56.4538 C   0  0  0  0  0  0  0  0  0  0  0  0
   67.6379   47.5754   57.6342 O   0  0  0  0  0  0  0  0  0  0  0  0
   67.7941   46.8333   55.5029 N   0  0  0  0  0  0  0  0  0  0  0  0
   68.2642   46.9425   54.2538 C   0  0  0  0  0  0  0  0  0  0  0  0
   67.8913   45.9896   53.3304 C   0  0  0  0  0  0  0  0  0  0  0  0
   68.3757   46.1016   52.0457 C   0  0  0  0  0  0  0  0  0  0  0  0
   69.2046   47.1374   51.7056 C   0  0  0  0  0  0  0  0  0  0  0  0
   69.5745   48.0868   52.6288 C   0  0  0  0  0  0  0  0  0  0  0  0
   69.0952   47.9839   53.9174 C   0  0  0  0  0  0  0  0  0  0  0  0
   71.6961   49.9811   54.5561 O   0  0  0  0  0  0  0  0  0  0  0  0
   72.5174   50.6862   55.4518 C   0  0  0  0  0  0  0  0  0  0  0  0
   73.9560   49.1634   56.5792 O   0  0  0  0  0  0  0  0  0  0  0  0
   72.8767   49.7900   56.6103 C   0  0  0  0  0  0  0  0  0  0  0  0
   72.0211   49.6445   57.7237 N   0  0  0  0  0  0  0  0  0  0  0  0
   72.3053   48.8135   58.8473 C   0  0  0  0  0  0  0  0  0  0  0  0
   73.1754   48.9563   59.8194 C   0  0  0  0  0  0  0  0  0  0  0  0
   73.0971   47.8190   60.7639 C   0  0  0  0  0  0  0  0  0  0  0  0
   72.1490   47.0826   60.2607 C   0  0  0  0  0  0  0  0  0  0  0  0
   71.6258   47.5355   59.1588 C   0  0  0  0  0  0  0  0  0  0  0  0
   70.6607   46.9721   58.4298 F   0  0  0  0  0  0  0  0  0  0  0  0
 16 17  2  0  0  0
 17 15  1  0  0  0
 17 18  1  0  0  0
 15 14  1  0  0  0
 14  1  1  0  0  0
  1  2  2  0  0  0
  1  3  1  0  0  0
  3  4  2  0  0  0
  3 13  1  0  0  0
  4  5  1  0  0  0
  5  6  2  0  0  0
  5  7  1  0  0  0
  7  8  1  0  0  0
  8  9  1  0  0  0
  8 13  2  0  0  0
  9 10  2  0  0  0
 10 11  1  0  0  0
 11 12  2  0  0  0
 12 13  1  0  0  0
 18 19  1  0  0  0
 19 20  2  0  0  0
 19 23  1  0  0  0
 20 21  1  0  0  0
 21 22  2  0  0  0
 22 23  2  0  0  0
 23 24  1  0  0  0
M  END
> <minimizedAffinity>
-7.50345

$$$$
cs_R3_output_folder/data/smiles/85.pdb


 24 27  0  0  0  0  0  0  0  0999 V2000
   68.9562   42.9211   61.3660 O   0  0  0  0  0  0  0  0  0  0  0  0
   68.0343   42.4608   60.5839 C   0  0  0  0  0  0  0  0  0  0  0  0
   68.3165   42.1673   59.2400 N   0  0  0  0  0  0  0  0  0  0  0  0
   67.3575   41.6218   58.3336 C   0  0  0  0  0  0  0  0  0  0  0  0
   67.9044   40.3073   57.7922 C   0  0  0  0  0  0  0  0  0  0  0  0
   69.2444   40.0650   58.3583 N   0  0  0  0  0  0  0  0  0  0  0  0
   70.2155   41.1518   58.2047 C   0  0  0  0  0  0  0  0  0  0  0  0
   69.6422   42.4450   58.7394 C   0  0  0  0  0  0  0  0  0  0  0  0
   69.5721   38.8622   59.0013 C   0  0  0  0  0  0  0  0  0  0  0  0
   70.6874   38.1490   58.6566 C   0  0  0  0  0  0  0  0  0  0  0  0
   70.9878   36.9605   59.2934 C   0  0  0  0  0  0  0  0  0  0  0  0
   70.1890   36.4524   60.2858 C   0  0  0  0  0  0  0  0  0  0  0  0
   69.0621   37.1549   60.6477 C   0  0  0  0  0  0  0  0  0  0  0  0
   68.7665   38.3439   60.0062 C   0  0  0  0  0  0  0  0  0  0  0  0
   66.7321   42.3077   61.2749 C   0  0  0  0  0  0  0  0  0  0  0  0
   66.7177   41.1196   62.1753 C   0  0  0  0  0  0  0  0  0  0  0  0
   67.2633   40.9684   63.4416 C   0  0  0  0  0  0  0  0  0  0  0  0
   67.0331   39.7059   63.8721 N   0  0  0  0  0  0  0  0  0  0  0  0
   66.3530   39.0109   62.9384 C   0  0  0  0  0  0  0  0  0  0  0  0
   65.8602   37.7052   62.8618 C   0  0  0  0  0  0  0  0  0  0  0  0
   65.1796   37.3028   61.7362 C   0  0  0  0  0  0  0  0  0  0  0  0
   64.9668   38.1646   60.6635 C   0  0  0  0  0  0  0  0  0  0  0  0
   65.4669   39.4343   60.7768 C   0  0  0  0  0  0  0  0  0  0  0  0
   66.1574   39.8911   61.8832 C   0  0  0  0  0  0  0  0  0  0  0  0
  1  2  2  0  0  0
  2 15  1  0  0  0
  2  3  1  0  0  0
 15 16  1  0  0  0
 16 17  2  0  0  0
 16 24  1  0  0  0
 17 18  1  0  0  0
 18 19  1  0  0  0
 19 20  1  0  0  0
 19 24  2  0  0  0
 20 21  2  0  0  0
 21 22  1  0  0  0
 22 23  2  0  0  0
 23 24  1  0  0  0
  3  4  1  0  0  0
  3  8  1  0  0  0
  4  5  1  0  0  0
  5  6  1  0  0  0
  6  9  1  0  0  0
  6  7  1  0  0  0
  9 10  2  0  0  0
  9 14  1  0  0  0
 10 11  1  0  0  0
 11 12  2  0  0  0
 12 13  1  0  0  0
 13 14  2  0  0  0
  7  8  1  0  0  0
M  END
> <minimizedAffinity>
-5.72770

$$$$
cs_R3_output_folder/data/smiles/86.pdb


 29 30  0  0  0  0  0  0  0  0999 V2000
   71.0907   37.7066   58.8657 C   0  0  0  0  0  0  0  0  0  0  0  0
   70.4354   37.0747   59.9016 C   0  0  0  0  0  0  0  0  0  0  0  0
   70.5647   35.7445   60.1436 N   0  0  0  0  0  0  0  0  0  0  0  0
   71.3665   35.0194   59.3341 C   0  0  0  0  0  0  0  0  0  0  0  0
   72.0535   35.5662   58.2830 C   0  0  0  0  0  0  0  0  0  0  0  0
   71.9069   36.9137   58.0598 C   0  0  0  0  0  0  0  0  0  0  0  0
   72.8997   34.7273   57.4504 C   0  0  0  0  0  0  0  0  0  0  0  0
   72.6031   33.4917   57.3090 O   0  0  0  0  0  0  0  0  0  0  0  0
   74.0577   35.1828   56.7646 N   0  0  0  0  0  0  0  0  0  0  0  0
   74.8525   34.2838   55.9519 C   0  0  0  0  0  0  0  0  0  0  0  0
   75.5707   34.9168   54.8473 C   0  0  0  0  0  0  0  0  0  0  0  0
   76.9461   35.1104   54.8503 C   0  0  0  0  0  0  0  0  0  0  0  0
   77.6402   35.6997   53.8185 C   0  0  0  0  0  0  0  0  0  0  0  0
   76.9170   36.1192   52.7228 C   0  0  0  0  0  0  0  0  0  0  0  0
   75.5474   35.9280   52.7157 C   0  0  0  0  0  0  0  0  0  0  0  0
   74.8439   35.3368   53.7471 C   0  0  0  0  0  0  0  0  0  0  0  0
   73.3975   35.1862   53.6341 C   0  0  0  0  0  0  0  0  0  0  0  0
   73.0646   33.8333   53.8046 F   0  0  0  0  0  0  0  0  0  0  0  0
   73.0449   35.4421   52.3023 F   0  0  0  0  0  0  0  0  0  0  0  0
   72.6363   36.0039   54.3830 F   0  0  0  0  0  0  0  0  0  0  0  0
   70.7816   40.3062   58.4708 C   0  0  0  0  0  0  0  0  0  0  0  0
   70.9167   39.1144   58.6565 C   0  0  0  0  0  0  0  0  0  0  0  0
   72.0217   42.2663   57.8804 C   0  0  0  0  0  0  0  0  0  0  0  0
   70.6358   41.7449   58.2649 C   0  0  0  0  0  0  0  0  0  0  0  0
   70.2035   42.4566   59.4406 N   0  0  0  0  0  0  0  0  0  0  0  0
   71.1003   42.8534   60.3645 O   0  0  0  0  0  0  0  0  0  0  0  0
   68.8396   42.7436   59.6345 C   0  0  0  0  0  0  0  0  0  0  0  0
   68.3970   43.4404   60.8002 N   0  0  0  0  0  0  0  0  0  0  0  0
   68.0047   42.3813   58.7719 O   0  0  0  0  0  0  0  0  0  0  0  0
 24 23  1  0  0  0
 24 21  1  0  0  0
 24 25  1  0  0  0
 21 22  3  0  0  0
 22  1  1  0  0  0
  1  2  2  0  0  0
  1  6  1  0  0  0
  2  3  1  0  0  0
  3  4  2  0  0  0
  4  5  1  0  0  0
  5  7  1  0  0  0
  5  6  2  0  0  0
  7  8  2  0  0  0
  7  9  1  0  0  0
  9 10  1  0  0  0
 10 11  1  0  0  0
 11 12  2  0  0  0
 11 16  1  0  0  0
 12 13  1  0  0  0
 13 14  2  0  0  0
 14 15  1  0  0  0
 15 16  2  0  0  0
 16 17  1  0  0  0
 17 18  1  0  0  0
 17 19  1  0  0  0
 17 20  1  0  0  0
 25 26  1  0  0  0
 25 27  1  0  0  0
 27 28  1  0  0  0
 27 29  2  0  0  0
M  END
> <minimizedAffinity>
-7.62036

$$$$
cs_R3_output_folder/data/smiles/87.pdb


 20 21  0  0  0  0  0  0  0  0999 V2000
   70.4583   51.2563   54.8437 C   0  0  0  0  0  0  0  0  0  0  0  0
   70.1137   52.5987   54.7734 C   0  0  0  0  0  0  0  0  0  0  0  0
   68.7861   52.7130   54.5887 N   0  0  0  0  0  0  0  0  0  0  0  0
   68.2796   51.4984   54.5399 N   0  0  0  0  0  0  0  0  0  0  0  0
   69.2821   50.5824   54.6933 C   0  0  0  0  0  0  0  0  0  0  0  0
   69.0341   49.1514   54.6936 C   0  0  0  0  0  0  0  0  0  0  0  0
   68.9309   48.4971   55.9136 C   0  0  0  0  0  0  0  0  0  0  0  0
   68.6939   47.1481   56.0099 C   0  0  0  0  0  0  0  0  0  0  0  0
   68.5472   46.3901   54.8679 C   0  0  0  0  0  0  0  0  0  0  0  0
   68.3105   45.0430   54.9510 F   0  0  0  0  0  0  0  0  0  0  0  0
   68.6453   47.0194   53.6429 C   0  0  0  0  0  0  0  0  0  0  0  0
   68.4597   46.0557   52.1878 Cl  0  0  0  0  0  0  0  0  0  0  0  0
   68.8852   48.3792   53.5729 C   0  0  0  0  0  0  0  0  0  0  0  0
   72.4961   50.7543   56.2485 N   0  0  0  0  0  0  0  0  0  0  0  0
   73.8091   50.1466   56.3253 C   0  0  0  0  0  0  0  0  0  0  0  0
   71.7740   50.6848   55.0338 C   0  0  0  0  0  0  0  0  0  0  0  0
   72.2860   50.0912   54.0296 O   0  0  0  0  0  0  0  0  0  0  0  0
   71.9788   51.4045   57.4085 C   0  0  0  0  0  0  0  0  0  0  0  0
   69.9050   50.7220   58.5852 C   0  0  0  0  0  0  0  0  0  0  0  0
   71.1657   50.5071   58.2744 C   0  0  0  0  0  0  0  0  0  0  0  0
 19 20  2  0  0  0
 20 18  1  0  0  0
 18 14  1  0  0  0
 14 15  1  0  0  0
 14 16  1  0  0  0
 16 17  2  0  0  0
 16  1  1  0  0  0
  1  2  2  0  0  0
  1  5  1  0  0  0
  2  3  1  0  0  0
  3  4  1  0  0  0
  4  5  2  0  0  0
  5  6  1  0  0  0
  6  7  2  0  0  0
  6 13  1  0  0  0
  7  8  1  0  0  0
  8  9  2  0  0  0
  9 10  1  0  0  0
  9 11  1  0  0  0
 11 12  1  0  0  0
 11 13  2  0  0  0
M  END
> <minimizedAffinity>
-6.01418

$$$$
cs_R3_output_folder/data/smiles/88.pdb


 25 27  0  0  0  0  0  0  0  0999 V2000
   68.5707   47.4707   56.6273 C   0  0  0  0  0  0  0  0  0  0  0  0
   67.5246   47.7404   57.2205 O   0  0  0  0  0  0  0  0  0  0  0  0
   69.0442   47.8748   55.3203 C   0  0  0  0  0  0  0  0  0  0  0  0
   69.9021   48.9824   55.2090 C   0  0  0  0  0  0  0  0  0  0  0  0
   70.3606   49.3805   53.9801 C   0  0  0  0  0  0  0  0  0  0  0  0
   71.1357   50.3841   53.9101 O   0  0  0  0  0  0  0  0  0  0  0  0
   70.0244   48.7514   52.8479 N   0  0  0  0  0  0  0  0  0  0  0  0
   69.2079   47.6926   52.9189 C   0  0  0  0  0  0  0  0  0  0  0  0
   68.8805   47.0675   51.7417 C   0  0  0  0  0  0  0  0  0  0  0  0
   68.0403   45.9741   51.7997 C   0  0  0  0  0  0  0  0  0  0  0  0
   67.5360   45.5092   52.9801 C   0  0  0  0  0  0  0  0  0  0  0  0
   67.8813   46.1589   54.1714 C   0  0  0  0  0  0  0  0  0  0  0  0
   68.7103   47.2422   54.1511 C   0  0  0  0  0  0  0  0  0  0  0  0
   69.3972   46.6183   57.4200 O   0  0  0  0  0  0  0  0  0  0  0  0
   69.3680   45.2654   57.3080 O   0  0  0  0  0  0  0  0  0  0  0  0
   70.5584   44.5382   59.0871 O   0  0  0  0  0  0  0  0  0  0  0  0
   70.2710   44.4066   57.8666 C   0  0  0  0  0  0  0  0  0  0  0  0
   70.9273   43.3537   57.1702 N   0  0  0  0  0  0  0  0  0  0  0  0
   71.8571   42.4999   57.8238 C   0  0  0  0  0  0  0  0  0  0  0  0
   71.3855   41.3486   58.4148 C   0  0  0  0  0  0  0  0  0  0  0  0
   72.2486   40.4655   59.0742 C   0  0  0  0  0  0  0  0  0  0  0  0
   73.6004   40.7233   59.1517 C   0  0  0  0  0  0  0  0  0  0  0  0
   74.0639   41.8780   58.5576 C   0  0  0  0  0  0  0  0  0  0  0  0
   73.2064   42.7647   57.8962 C   0  0  0  0  0  0  0  0  0  0  0  0
   73.6520   43.9007   57.3097 F   0  0  0  0  0  0  0  0  0  0  0  0
 16 17  2  0  0  0
 17 18  1  0  0  0
 17 15  1  0  0  0
 18 19  1  0  0  0
 19 20  2  0  0  0
 19 24  1  0  0  0
 20 21  1  0  0  0
 21 22  2  0  0  0
 22 23  1  0  0  0
 23 24  2  0  0  0
 24 25  1  0  0  0
 15 14  1  0  0  0
 14  1  1  0  0  0
  1  2  2  0  0  0
  1  3  1  0  0  0
  3  4  2  0  0  0
  3 13  1  0  0  0
  4  5  1  0  0  0
  5  6  2  0  0  0
  5  7  1  0  0  0
  7  8  1  0  0  0
  8  9  1  0  0  0
  8 13  2  0  0  0
  9 10  2  0  0  0
 10 11  1  0  0  0
 11 12  2  0  0  0
 12 13  1  0  0  0
M  END
> <minimizedAffinity>
-8.52683

$$$$
cs_R3_output_folder/data/smiles/89.pdb


 25 27  0  0  0  0  0  0  0  0999 V2000
   69.2796   45.8947   57.0539 N   0  0  0  0  0  0  0  0  0  0  0  0
   70.4329   45.8602   57.8411 C   0  0  0  0  0  0  0  0  0  0  0  0
   71.0236   46.9427   58.0936 O   0  0  0  0  0  0  0  0  0  0  0  0
   70.9694   44.5925   58.3796 C   0  0  0  0  0  0  0  0  0  0  0  0
   71.8887   44.5042   59.4209 C   0  0  0  0  0  0  0  0  0  0  0  0
   72.1272   43.2005   59.6093 N   0  0  0  0  0  0  0  0  0  0  0  0
   71.4258   42.4427   58.7622 N   0  0  0  0  0  0  0  0  0  0  0  0
   70.7207   43.2997   58.0134 C   0  0  0  0  0  0  0  0  0  0  0  0
   71.4469   41.0135   58.6911 C   0  0  0  0  0  0  0  0  0  0  0  0
   72.6134   40.3104   58.8946 C   0  0  0  0  0  0  0  0  0  0  0  0
   72.6336   38.9135   58.8272 C   0  0  0  0  0  0  0  0  0  0  0  0
   71.4479   38.2617   58.5513 C   0  0  0  0  0  0  0  0  0  0  0  0
   71.4771   36.5139   58.4688 Cl  0  0  0  0  0  0  0  0  0  0  0  0
   70.2657   38.9514   58.3443 C   0  0  0  0  0  0  0  0  0  0  0  0
   70.3004   40.3342   58.4211 C   0  0  0  0  0  0  0  0  0  0  0  0
   68.6740   47.0814   56.4743 C   0  0  0  0  0  0  0  0  0  0  0  0
   69.2959   47.9153   52.8225 C   0  0  0  0  0  0  0  0  0  0  0  0
   69.2761   47.9530   54.1986 C   0  0  0  0  0  0  0  0  0  0  0  0
   68.6575   46.9942   54.9732 C   0  0  0  0  0  0  0  0  0  0  0  0
   68.0435   45.9646   54.2903 C   0  0  0  0  0  0  0  0  0  0  0  0
   68.0784   45.9496   52.9062 C   0  0  0  0  0  0  0  0  0  0  0  0
   68.6946   46.9080   52.1755 N   0  0  0  0  0  0  0  0  0  0  0  0
   70.0635   50.2943   52.5733 N   0  0  0  0  0  0  0  0  0  0  0  0
   69.9761   48.9752   52.0676 C   0  0  0  0  0  0  0  0  0  0  0  0
   70.4979   48.7303   50.9471 O   0  0  0  0  0  0  0  0  0  0  0  0
 23 24  1  0  0  0
 24 25  2  0  0  0
 24 17  1  0  0  0
 17 18  2  0  0  0
 17 22  1  0  0  0
 18 19  1  0  0  0
 19 16  1  0  0  0
 19 20  2  0  0  0
 16  1  1  0  0  0
  1  2  1  0  0  0
  2  3  2  0  0  0
  2  4  1  0  0  0
  4  5  1  0  0  0
  4  8  2  0  0  0
  5  6  2  0  0  0
  6  7  1  0  0  0
  7  9  1  0  0  0
  7  8  1  0  0  0
  9 10  2  0  0  0
  9 15  1  0  0  0
 10 11  1  0  0  0
 11 12  2  0  0  0
 12 13  1  0  0  0
 12 14  1  0  0  0
 14 15  2  0  0  0
 20 21  1  0  0  0
 21 22  2  0  0  0
M  END
> <minimizedAffinity>
-8.23781

$$$$
cs_R3_output_folder/data/smiles/90.pdb


 20 21  0  0  0  0  0  0  0  0999 V2000
   70.5532   50.3735   55.0969 N   0  0  0  0  0  0  0  0  0  0  0  0
   70.6750   49.4504   54.0693 C   0  0  0  0  0  0  0  0  0  0  0  0
   71.7769   49.5750   53.3862 O   0  0  0  0  0  0  0  0  0  0  0  0
   69.7987   48.3888   53.6331 C   0  0  0  0  0  0  0  0  0  0  0  0
   69.0771   47.5521   54.4297 C   0  0  0  0  0  0  0  0  0  0  0  0
   68.2651   46.5586   53.8741 C   0  0  0  0  0  0  0  0  0  0  0  0
   68.1461   46.3700   52.5211 C   0  0  0  0  0  0  0  0  0  0  0  0
   67.2676   45.2973   51.9598 C   0  0  0  0  0  0  0  0  0  0  0  0
   68.8717   47.2118   51.7135 C   0  0  0  0  0  0  0  0  0  0  0  0
   69.6684   48.1850   52.2562 C   0  0  0  0  0  0  0  0  0  0  0  0
   70.3831   49.0096   51.3635 O   0  0  0  0  0  0  0  0  0  0  0  0
   69.4533   50.4609   55.9820 C   0  0  0  0  0  0  0  0  0  0  0  0
   69.3035   49.6341   57.0916 C   0  0  0  0  0  0  0  0  0  0  0  0
   68.2035   49.7125   57.9174 C   0  0  0  0  0  0  0  0  0  0  0  0
   67.1906   50.6204   57.6842 C   0  0  0  0  0  0  0  0  0  0  0  0
   67.3184   51.4490   56.5914 C   0  0  0  0  0  0  0  0  0  0  0  0
   68.4180   51.3711   55.7644 C   0  0  0  0  0  0  0  0  0  0  0  0
   68.5609   52.2643   54.5833 C   0  0  0  0  0  0  0  0  0  0  0  0
   72.6135   50.9150   56.3478 C   0  0  0  0  0  0  0  0  0  0  0  0
   71.6676   51.3316   55.2691 C   0  0  0  0  0  0  0  0  0  0  0  0
 19 20  1  0  0  0
 20  1  1  0  0  0
  1  2  1  0  0  0
  1 12  1  0  0  0
  2  3  2  0  0  0
  2  4  1  0  0  0
  4  5  2  0  0  0
  4 10  1  0  0  0
  5  6  1  0  0  0
  6  7  2  0  0  0
  7  8  1  0  0  0
  7  9  1  0  0  0
  9 10  2  0  0  0
 10 11  1  0  0  0
 12 13  2  0  0  0
 12 17  1  0  0  0
 13 14  1  0  0  0
 14 15  2  0  0  0
 15 16  1  0  0  0
 16 17  2  0  0  0
 17 18  1  0  0  0
M  END
> <minimizedAffinity>
-7.66795

$$$$
cs_R3_output_folder/data/smiles/91.pdb


 22 24  0  0  0  0  0  0  0  0999 V2000
   69.9263   51.0790   53.8375 O   0  0  0  0  0  0  0  0  0  0  0  0
   70.7507   49.9912   53.4993 C   0  0  0  0  0  0  0  0  0  0  0  0
   71.9134   50.0219   53.9127 O   0  0  0  0  0  0  0  0  0  0  0  0
   70.2298   48.8874   52.6930 C   0  0  0  0  0  0  0  0  0  0  0  0
   70.4828   48.6235   51.4036 N   0  0  0  0  0  0  0  0  0  0  0  0
   69.8338   47.5405   51.0155 N   0  0  0  0  0  0  0  0  0  0  0  0
   69.1152   47.0299   52.0367 C   0  0  0  0  0  0  0  0  0  0  0  0
   68.2827   45.9430   52.1763 C   0  0  0  0  0  0  0  0  0  0  0  0
   67.6879   45.6967   53.3904 C   0  0  0  0  0  0  0  0  0  0  0  0
   67.9206   46.5334   54.4743 C   0  0  0  0  0  0  0  0  0  0  0  0
   68.7604   47.6254   54.3208 C   0  0  0  0  0  0  0  0  0  0  0  0
   69.3705   47.8940   53.1079 C   0  0  0  0  0  0  0  0  0  0  0  0
   70.2762   51.9696   54.8382 C   0  0  0  0  0  0  0  0  0  0  0  0
   69.3522   53.4173   56.3932 O   0  0  0  0  0  0  0  0  0  0  0  0
   69.3888   52.2160   55.9352 C   0  0  0  0  0  0  0  0  0  0  0  0
   68.5209   51.2546   56.5924 C   0  0  0  0  0  0  0  0  0  0  0  0
   67.2407   51.5453   57.0001 C   0  0  0  0  0  0  0  0  0  0  0  0
   66.4504   50.6284   57.6605 C   0  0  0  0  0  0  0  0  0  0  0  0
   66.9712   49.3828   57.9134 C   0  0  0  0  0  0  0  0  0  0  0  0
   66.2477   48.4315   58.5592 F   0  0  0  0  0  0  0  0  0  0  0  0
   68.2529   49.0551   57.5173 C   0  0  0  0  0  0  0  0  0  0  0  0
   69.0041   49.9802   56.8698 C   0  0  0  0  0  0  0  0  0  0  0  0
 14 15  2  0  0  0
 15 13  1  0  0  0
 15 16  1  0  0  0
 13  1  1  0  0  0
  1  2  1  0  0  0
  2  3  2  0  0  0
  2  4  1  0  0  0
  4  5  1  0  0  0
  4 12  2  0  0  0
  5  6  1  0  0  0
  6  7  2  0  0  0
  7  8  1  0  0  0
  7 12  1  0  0  0
  8  9  2  0  0  0
  9 10  1  0  0  0
 10 11  2  0  0  0
 11 12  1  0  0  0
 16 17  2  0  0  0
 16 22  1  0  0  0
 17 18  1  0  0  0
 18 19  2  0  0  0
 19 20  1  0  0  0
 19 21  1  0  0  0
 21 22  2  0  0  0
M  END
> <minimizedAffinity>
-9.09900

$$$$
cs_R3_output_folder/data/smiles/92.pdb


 24 25  0  0  0  0  0  0  0  0999 V2000
   69.2460   50.6357   53.0258 N   0  0  0  0  0  0  0  0  0  0  0  0
   71.4924   52.3879   55.4473 C   0  0  0  0  0  0  0  0  0  0  0  0
   71.0154   51.5675   54.4542 C   0  0  0  0  0  0  0  0  0  0  0  0
   69.7050   51.4973   54.0600 C   0  0  0  0  0  0  0  0  0  0  0  0
   68.8127   52.3371   54.7385 C   0  0  0  0  0  0  0  0  0  0  0  0
   69.2432   53.1780   55.7419 C   0  0  0  0  0  0  0  0  0  0  0  0
   70.5913   53.2048   56.0998 C   0  0  0  0  0  0  0  0  0  0  0  0
   71.0616   54.0131   57.0786 F   0  0  0  0  0  0  0  0  0  0  0  0
   75.1977   53.0670   55.1580 N   0  0  0  0  0  0  0  0  0  0  0  0
   73.8011   53.0121   54.8915 C   0  0  0  0  0  0  0  0  0  0  0  0
   73.3695   53.5220   53.8256 O   0  0  0  0  0  0  0  0  0  0  0  0
   72.8800   52.3970   55.7968 N   0  0  0  0  0  0  0  0  0  0  0  0
   70.0212   49.2073   52.5476 S   0  0  0  0  0  0  0  0  0  0  0  0
   70.0623   49.1108   51.0489 O   0  0  0  0  0  0  0  0  0  0  0  0
   71.4712   49.1584   53.0017 O   0  0  0  0  0  0  0  0  0  0  0  0
   69.2519   47.7636   53.1389 C   0  0  0  0  0  0  0  0  0  0  0  0
   69.1973   47.5772   54.5012 C   0  0  0  0  0  0  0  0  0  0  0  0
   69.7190   48.4725   55.3842 F   0  0  0  0  0  0  0  0  0  0  0  0
   68.5997   46.4515   55.0505 C   0  0  0  0  0  0  0  0  0  0  0  0
   68.0460   45.4928   54.2268 C   0  0  0  0  0  0  0  0  0  0  0  0
   67.4537   44.3805   54.7368 F   0  0  0  0  0  0  0  0  0  0  0  0
   68.1036   45.6852   52.8559 C   0  0  0  0  0  0  0  0  0  0  0  0
   68.7002   46.8081   52.3191 C   0  0  0  0  0  0  0  0  0  0  0  0
   68.7648   47.0112   50.9843 F   0  0  0  0  0  0  0  0  0  0  0  0
  9 10  1  0  0  0
 10 11  2  0  0  0
 10 12  1  0  0  0
 12  2  1  0  0  0
  2  3  2  0  0  0
  2  7  1  0  0  0
  3  4  1  0  0  0
  4  1  1  0  0  0
  4  5  2  0  0  0
  1 13  1  0  0  0
 13 14  2  0  0  0
 13 15  2  0  0  0
 13 16  1  0  0  0
 16 17  2  0  0  0
 16 23  1  0  0  0
 17 18  1  0  0  0
 17 19  1  0  0  0
 19 20  2  0  0  0
 20 21  1  0  0  0
 20 22  1  0  0  0
 22 23  2  0  0  0
 23 24  1  0  0  0
  5  6  1  0  0  0
  6  7  2  0  0  0
  7  8  1  0  0  0
M  END
> <minimizedAffinity>
-8.88126

$$$$
cs_R3_output_folder/data/smiles/93.pdb


 18 20  0  0  0  0  0  0  0  0999 V2000
   69.7996   50.5820   53.9902 C   0  0  0  0  0  0  0  0  0  0  0  0
   70.0198   51.1134   52.7800 N   0  0  0  0  0  0  0  0  0  0  0  0
   69.8719   50.1927   51.8238 N   0  0  0  0  0  0  0  0  0  0  0  0
   69.5467   49.0139   52.3786 C   0  0  0  0  0  0  0  0  0  0  0  0
   69.2833   47.7582   51.8561 C   0  0  0  0  0  0  0  0  0  0  0  0
   68.9653   46.7133   52.6975 C   0  0  0  0  0  0  0  0  0  0  0  0
   68.9055   46.9001   54.0596 C   0  0  0  0  0  0  0  0  0  0  0  0
   69.1754   48.1696   54.5451 C   0  0  0  0  0  0  0  0  0  0  0  0
   69.4962   49.2394   53.7417 C   0  0  0  0  0  0  0  0  0  0  0  0
   68.5710   45.7950   54.9478 C   0  0  0  0  0  0  0  0  0  0  0  0
   67.7468   44.8010   54.6579 N   0  0  0  0  0  0  0  0  0  0  0  0
   67.7248   44.0196   55.7281 N   0  0  0  0  0  0  0  0  0  0  0  0
   68.5057   44.5019   56.6607 N   0  0  0  0  0  0  0  0  0  0  0  0
   69.0541   45.6200   56.1983 N   0  0  0  0  0  0  0  0  0  0  0  0
   69.8398   51.1990   55.3345 C   0  0  0  0  0  0  0  0  0  0  0  0
   68.5352   51.7386   55.7930 C   0  0  0  0  0  0  0  0  0  0  0  0
   67.4279   49.8922   57.6767 Br  0  0  0  0  0  0  0  0  0  0  0  0
   68.2226   51.5857   57.2399 C   0  0  0  0  0  0  0  0  0  0  0  0
 17 18  1  0  0  0
 18 16  1  0  0  0
 16 15  1  0  0  0
 15  1  1  0  0  0
  1  2  2  0  0  0
  1  9  1  0  0  0
  2  3  1  0  0  0
  3  4  1  0  0  0
  4  5  1  0  0  0
  4  9  2  0  0  0
  5  6  2  0  0  0
  6  7  1  0  0  0
  7 10  1  0  0  0
  7  8  2  0  0  0
 10 11  2  0  0  0
 10 14  1  0  0  0
 11 12  1  0  0  0
 12 13  2  0  0  0
 13 14  1  0  0  0
  8  9  1  0  0  0
M  END
> <minimizedAffinity>
-7.55594

$$$$
cs_R3_output_folder/data/smiles/94.pdb


 20 22  0  0  0  0  0  0  0  0999 V2000
   73.5342   48.4853   61.9683 O   0  0  0  0  0  0  0  0  0  0  0  0
   73.3385   47.5876   61.1364 C   0  0  0  0  0  0  0  0  0  0  0  0
   74.0238   46.2751   61.1160 C   0  0  0  0  0  0  0  0  0  0  0  0
   73.0363   45.1429   60.9481 C   0  0  0  0  0  0  0  0  0  0  0  0
   72.0431   45.4142   59.8655 C   0  0  0  0  0  0  0  0  0  0  0  0
   71.3940   44.3778   59.2244 C   0  0  0  0  0  0  0  0  0  0  0  0
   70.4789   44.5723   58.2297 C   0  0  0  0  0  0  0  0  0  0  0  0
   70.1403   45.8773   57.7950 C   0  0  0  0  0  0  0  0  0  0  0  0
   70.8062   46.8859   58.4549 C   0  0  0  0  0  0  0  0  0  0  0  0
   71.7341   46.6902   59.4639 C   0  0  0  0  0  0  0  0  0  0  0  0
   72.3720   47.7997   60.0866 N   0  0  0  0  0  0  0  0  0  0  0  0
   69.2284   46.0255   56.8044 O   0  0  0  0  0  0  0  0  0  0  0  0
   68.6272   47.0619   56.1551 C   0  0  0  0  0  0  0  0  0  0  0  0
   68.6290   47.0144   54.6715 C   0  0  0  0  0  0  0  0  0  0  0  0
   67.9583   45.9743   54.0108 C   0  0  0  0  0  0  0  0  0  0  0  0
   67.9455   45.8491   52.6441 C   0  0  0  0  0  0  0  0  0  0  0  0
   68.6132   46.7703   51.8648 C   0  0  0  0  0  0  0  0  0  0  0  0
   69.2887   47.8112   52.4614 C   0  0  0  0  0  0  0  0  0  0  0  0
   70.1561   49.0128   51.5000 Cl  0  0  0  0  0  0  0  0  0  0  0  0
   69.2756   47.8998   53.8447 C   0  0  0  0  0  0  0  0  0  0  0  0
  1  2  2  0  0  0
  2  3  1  0  0  0
  2 11  1  0  0  0
  3  4  1  0  0  0
  4  5  1  0  0  0
  5  6  1  0  0  0
  5 10  2  0  0  0
  6  7  2  0  0  0
  7  8  1  0  0  0
  8 12  1  0  0  0
  8  9  2  0  0  0
 12 13  1  0  0  0
 13 14  1  0  0  0
 14 15  2  0  0  0
 14 20  1  0  0  0
 15 16  1  0  0  0
 16 17  2  0  0  0
 17 18  1  0  0  0
 18 19  1  0  0  0
 18 20  2  0  0  0
  9 10  1  0  0  0
 10 11  1  0  0  0
M  END
> <minimizedAffinity>
-6.90072

$$$$
cs_R3_output_folder/data/smiles/95.pdb


 26 28  0  0  0  0  0  0  0  0999 V2000
   67.5680   42.5464   61.6065 C   0  0  0  0  0  0  0  0  0  0  0  0
   67.5251   43.7364   61.2090 O   0  0  0  0  0  0  0  0  0  0  0  0
   68.8548   41.9777   61.7862 N   0  0  0  0  0  0  0  0  0  0  0  0
   70.0238   42.7631   61.5142 C   0  0  0  0  0  0  0  0  0  0  0  0
   71.0654   42.3683   62.4997 C   0  0  0  0  0  0  0  0  0  0  0  0
   71.4485   43.2424   63.3156 O   0  0  0  0  0  0  0  0  0  0  0  0
   71.7144   41.1128   62.6624 N   0  0  0  0  0  0  0  0  0  0  0  0
   72.3345   40.8554   63.9658 C   0  0  0  0  0  0  0  0  0  0  0  0
   71.8110   40.1110   61.6916 N   0  0  0  0  0  0  0  0  0  0  0  0
   71.6030   40.1573   60.4157 C   0  0  0  0  0  0  0  0  0  0  0  0
   71.1917   41.3643   59.6689 C   0  0  0  0  0  0  0  0  0  0  0  0
   71.5667   41.2884   58.3439 C   0  0  0  0  0  0  0  0  0  0  0  0
   71.2925   42.2981   57.4443 C   0  0  0  0  0  0  0  0  0  0  0  0
   70.6121   43.4245   57.9103 C   0  0  0  0  0  0  0  0  0  0  0  0
   70.2360   43.5025   59.2344 C   0  0  0  0  0  0  0  0  0  0  0  0
   70.5170   42.4830   60.1276 C   0  0  0  0  0  0  0  0  0  0  0  0
   66.3039   41.7843   61.8721 C   0  0  0  0  0  0  0  0  0  0  0  0
   66.4054   40.9150   63.0961 C   0  0  0  0  0  0  0  0  0  0  0  0
   65.8145   41.1248   60.7078 N   0  0  0  0  0  0  0  0  0  0  0  0
   67.5539   42.1471   56.2195 C   0  0  0  0  0  0  0  0  0  0  0  0
   67.5113   41.2358   57.3992 C   0  0  0  0  0  0  0  0  0  0  0  0
   68.2572   40.0785   57.3994 C   0  0  0  0  0  0  0  0  0  0  0  0
   68.1788   39.2791   58.5107 C   0  0  0  0  0  0  0  0  0  0  0  0
   67.3828   39.6047   59.6090 C   0  0  0  0  0  0  0  0  0  0  0  0
   66.6376   40.7603   59.6120 C   0  0  0  0  0  0  0  0  0  0  0  0
   66.7253   41.5644   58.4753 C   0  0  0  0  0  0  0  0  0  0  0  0
 20 21  1  0  0  0
 21 22  2  0  0  0
 21 26  1  0  0  0
 22 23  1  0  0  0
 23 24  2  0  0  0
 24 25  1  0  0  0
 25 19  1  0  0  0
 25 26  2  0  0  0
 19 17  1  0  0  0
 17 18  1  0  0  0
 17  1  1  0  0  0
  1  2  2  0  0  0
  1  3  1  0  0  0
  4  3  1  0  0  0
  4  5  1  0  0  0
  4 16  1  0  0  0
  5  6  2  0  0  0
  5  7  1  0  0  0
  7  8  1  0  0  0
  7  9  1  0  0  0
  9 10  2  0  0  0
 10 11  1  0  0  0
 11 12  1  0  0  0
 11 16  2  0  0  0
 12 13  2  0  0  0
 13 14  1  0  0  0
 14 15  2  0  0  0
 15 16  1  0  0  0
M  END
> <minimizedAffinity>
-5.38177

$$$$
cs_R3_output_folder/data/smiles/96.pdb


 21 23  0  0  0  0  0  0  0  0999 V2000
   69.4377   50.7177   52.8060 N   0  0  0  0  0  0  0  0  0  0  0  0
   69.3091   51.2083   54.1351 C   0  0  0  0  0  0  0  0  0  0  0  0
   68.2754   51.6942   54.7883 C   0  0  0  0  0  0  0  0  0  0  0  0
   69.0867   51.8942   55.9657 C   0  0  0  0  0  0  0  0  0  0  0  0
   70.1246   51.4038   55.3050 C   0  0  0  0  0  0  0  0  0  0  0  0
   71.5487   51.1531   55.6270 C   0  0  0  0  0  0  0  0  0  0  0  0
   72.4451   52.0393   54.9089 N   0  0  0  0  0  0  0  0  0  0  0  0
   72.6406   53.3319   55.2364 C   0  0  0  0  0  0  0  0  0  0  0  0
   73.5546   53.8033   54.3155 C   0  0  0  0  0  0  0  0  0  0  0  0
   73.8703   52.7846   53.4797 N   0  0  0  0  0  0  0  0  0  0  0  0
   73.1828   51.7099   53.8562 N   0  0  0  0  0  0  0  0  0  0  0  0
   70.2891   48.9954   50.9918 O   0  0  0  0  0  0  0  0  0  0  0  0
   70.2032   49.2069   52.4722 S   0  0  0  0  0  0  0  0  0  0  0  0
   71.6063   49.1807   53.0072 O   0  0  0  0  0  0  0  0  0  0  0  0
   69.2638   47.8644   53.1214 C   0  0  0  0  0  0  0  0  0  0  0  0
   69.1559   47.7135   54.4825 C   0  0  0  0  0  0  0  0  0  0  0  0
   68.4251   46.6685   55.0323 C   0  0  0  0  0  0  0  0  0  0  0  0
   67.7922   45.7601   54.2027 C   0  0  0  0  0  0  0  0  0  0  0  0
   67.9148   45.9317   52.8555 C   0  0  0  0  0  0  0  0  0  0  0  0
   67.3016   45.0506   52.0158 F   0  0  0  0  0  0  0  0  0  0  0  0
   68.6375   46.9639   52.2940 C   0  0  0  0  0  0  0  0  0  0  0  0
 12 13  2  0  0  0
 13 14  2  0  0  0
 13  1  1  0  0  0
 13 15  1  0  0  0
  1  2  1  0  0  0
  2  3  2  0  0  0
  2  5  1  0  0  0
  3  4  1  0  0  0
  4  5  2  0  0  0
  5  6  1  0  0  0
  6  7  1  0  0  0
  7  8  1  0  0  0
  7 11  1  0  0  0
  8  9  2  0  0  0
  9 10  1  0  0  0
 10 11  2  0  0  0
 15 16  2  0  0  0
 15 21  1  0  0  0
 16 17  1  0  0  0
 17 18  2  0  0  0
 18 19  1  0  0  0
 19 20  1  0  0  0
 19 21  2  0  0  0
M  END
> <minimizedAffinity>
-8.06301

$$$$
cs_R3_output_folder/data/smiles/97.pdb


 21 23  0  0  0  0  0  0  0  0999 V2000
   70.4573   50.1579   53.6102 C   0  0  0  0  0  0  0  0  0  0  0  0
   71.7835   49.8061   53.6455 N   0  0  0  0  0  0  0  0  0  0  0  0
   72.6637   50.4817   54.3631 N   0  0  0  0  0  0  0  0  0  0  0  0
   72.3412   51.5511   55.1077 C   0  0  0  0  0  0  0  0  0  0  0  0
   73.2386   52.1452   55.7688 O   0  0  0  0  0  0  0  0  0  0  0  0
   71.0301   51.9567   55.1161 C   0  0  0  0  0  0  0  0  0  0  0  0
   70.1134   51.2290   54.3496 C   0  0  0  0  0  0  0  0  0  0  0  0
   68.7409   51.7241   54.3823 C   0  0  0  0  0  0  0  0  0  0  0  0
   68.4102   51.8413   55.8903 C   0  0  0  0  0  0  0  0  0  0  0  0
   69.2785   52.8639   56.5455 C   0  0  0  0  0  0  0  0  0  0  0  0
   70.5904   53.1233   55.8983 C   0  0  0  0  0  0  0  0  0  0  0  0
   69.5786   49.3366   52.8334 C   0  0  0  0  0  0  0  0  0  0  0  0
   67.7078   44.3429   55.0285 C   0  0  0  0  0  0  0  0  0  0  0  0
   68.1796   45.6386   54.4506 C   0  0  0  0  0  0  0  0  0  0  0  0
   68.8607   46.5797   55.2006 C   0  0  0  0  0  0  0  0  0  0  0  0
   69.3067   47.7737   54.7006 C   0  0  0  0  0  0  0  0  0  0  0  0
   69.0768   48.0829   53.3796 C   0  0  0  0  0  0  0  0  0  0  0  0
   68.4084   47.1792   52.6114 C   0  0  0  0  0  0  0  0  0  0  0  0
   67.9608   45.9689   53.1330 C   0  0  0  0  0  0  0  0  0  0  0  0
   67.2706   45.0657   52.2950 N   0  0  0  0  0  0  0  0  0  0  0  0
   66.9872   45.4402   51.0404 F   0  0  0  0  0  0  0  0  0  0  0  0
 13 14  1  0  0  0
 14 15  2  0  0  0
 14 19  1  0  0  0
 15 16  1  0  0  0
 16 17  2  0  0  0
 17 12  1  0  0  0
 17 18  1  0  0  0
 12  1  1  0  0  0
  1  2  2  0  0  0
  1  7  1  0  0  0
  2  3  1  0  0  0
  3  4  1  0  0  0
  4  5  2  0  0  0
  4  6  1  0  0  0
  6  7  2  0  0  0
  6 11  1  0  0  0
  7  8  1  0  0  0
  8  9  1  0  0  0
  9 10  1  0  0  0
 10 11  1  0  0  0
 18 19  2  0  0  0
 19 20  1  0  0  0
 20 21  1  0  0  0
M  END
> <minimizedAffinity>
-7.80544

$$$$
cs_R3_output_folder/data/smiles/98.pdb


 21 23  0  0  0  0  0  0  0  0999 V2000
   69.7963   48.4069   57.7414 N   0  0  0  0  0  0  0  0  0  0  0  0
   69.5964   48.2119   56.3485 C   0  0  0  0  0  0  0  0  0  0  0  0
   70.1096   49.0980   55.4287 C   0  0  0  0  0  0  0  0  0  0  0  0
   69.9265   48.9237   54.0810 C   0  0  0  0  0  0  0  0  0  0  0  0
   69.2065   47.8316   53.5934 C   0  0  0  0  0  0  0  0  0  0  0  0
   69.0187   47.6507   52.2323 C   0  0  0  0  0  0  0  0  0  0  0  0
   68.3069   46.5721   51.7398 C   0  0  0  0  0  0  0  0  0  0  0  0
   67.7826   45.6693   52.6407 C   0  0  0  0  0  0  0  0  0  0  0  0
   67.9665   45.8435   54.0066 C   0  0  0  0  0  0  0  0  0  0  0  0
   68.6842   46.9308   54.4973 C   0  0  0  0  0  0  0  0  0  0  0  0
   68.8863   47.1352   55.8473 C   0  0  0  0  0  0  0  0  0  0  0  0
   71.2682   47.9609   58.5247 S   0  0  0  0  0  0  0  0  0  0  0  0
   72.3960   48.7244   57.9010 O   0  0  0  0  0  0  0  0  0  0  0  0
   71.2051   48.3541   59.9728 O   0  0  0  0  0  0  0  0  0  0  0  0
   72.4127   42.0255   57.9489 C   0  0  0  0  0  0  0  0  0  0  0  0
   72.1350   43.4871   58.0901 C   0  0  0  0  0  0  0  0  0  0  0  0
   70.8481   43.9725   58.2057 C   0  0  0  0  0  0  0  0  0  0  0  0
   70.5636   45.3159   58.3384 C   0  0  0  0  0  0  0  0  0  0  0  0
   71.5870   46.2440   58.3585 C   0  0  0  0  0  0  0  0  0  0  0  0
   72.8730   45.7607   58.2431 C   0  0  0  0  0  0  0  0  0  0  0  0
   73.1546   44.4162   58.1110 C   0  0  0  0  0  0  0  0  0  0  0  0
 15 16  1  0  0  0
 16 17  2  0  0  0
 16 21  1  0  0  0
 17 18  1  0  0  0
 18 19  2  0  0  0
 19 12  1  0  0  0
 19 20  1  0  0  0
 12 13  2  0  0  0
 12 14  2  0  0  0
 12  1  1  0  0  0
  1  2  1  0  0  0
  2  3  2  0  0  0
  2 11  1  0  0  0
  3  4  1  0  0  0
  4  5  2  0  0  0
  5  6  1  0  0  0
  5 10  1  0  0  0
  6  7  2  0  0  0
  7  8  1  0  0  0
  8  9  2  0  0  0
  9 10  1  0  0  0
 10 11  2  0  0  0
 20 21  2  0  0  0
M  END
> <minimizedAffinity>
-7.21937

$$$$
cs_R3_output_folder/data/smiles/99.pdb


 23 25  0  0  0  0  0  0  0  0999 V2000
   68.4416   46.6133   54.1705 C   0  0  0  0  0  0  0  0  0  0  0  0
   68.2727   46.2069   52.8523 C   0  0  0  0  0  0  0  0  0  0  0  0
   68.8285   46.9442   51.8144 C   0  0  0  0  0  0  0  0  0  0  0  0
   69.5530   48.0853   52.0749 C   0  0  0  0  0  0  0  0  0  0  0  0
   69.7282   48.4958   53.3786 C   0  0  0  0  0  0  0  0  0  0  0  0
   69.1691   47.7540   54.3924 C   0  0  0  0  0  0  0  0  0  0  0  0
   70.5258   49.7056   53.6624 C   0  0  0  0  0  0  0  0  0  0  0  0
   71.7786   49.6072   53.5011 O   0  0  0  0  0  0  0  0  0  0  0  0
   70.0090   50.9327   54.0889 N   0  0  0  0  0  0  0  0  0  0  0  0
   68.6318   51.2642   54.3255 C   0  0  0  0  0  0  0  0  0  0  0  0
   68.4705   51.7271   55.7370 C   0  0  0  0  0  0  0  0  0  0  0  0
   69.5523   52.3656   56.3612 N   0  0  0  0  0  0  0  0  0  0  0  0
   70.8597   52.2199   55.8628 C   0  0  0  0  0  0  0  0  0  0  0  0
   70.9346   52.0505   54.3531 C   0  0  0  0  0  0  0  0  0  0  0  0
   67.8480   45.8281   55.2232 N   0  0  0  0  0  0  0  0  0  0  0  0
   69.8663   42.8550   57.4246 C   0  0  0  0  0  0  0  0  0  0  0  0
   70.2822   44.1397   57.5389 C   0  0  0  0  0  0  0  0  0  0  0  0
   69.6283   45.1424   56.8135 C   0  0  0  0  0  0  0  0  0  0  0  0
   68.5682   44.8580   55.9851 C   0  0  0  0  0  0  0  0  0  0  0  0
   68.1635   43.5152   55.8934 C   0  0  0  0  0  0  0  0  0  0  0  0
   68.8079   42.5503   56.6026 C   0  0  0  0  0  0  0  0  0  0  0  0
   71.1062   40.9671   58.7064 N   0  0  0  0  0  0  0  0  0  0  0  0
   70.5551   41.7883   58.1484 C   0  0  0  0  0  0  0  0  0  0  0  0
 22 23  3  0  0  0
 23 16  1  0  0  0
 16 17  2  0  0  0
 16 21  1  0  0  0
 17 18  1  0  0  0
 18 19  2  0  0  0
 19 15  1  0  0  0
 19 20  1  0  0  0
 15  1  1  0  0  0
  1  2  2  0  0  0
  1  6  1  0  0  0
  2  3  1  0  0  0
  3  4  2  0  0  0
  4  5  1  0  0  0
  5  7  1  0  0  0
  5  6  2  0  0  0
  7  8  2  0  0  0
  7  9  1  0  0  0
  9 10  1  0  0  0
  9 14  1  0  0  0
 10 11  1  0  0  0
 11 12  1  0  0  0
 12 13  1  0  0  0
 13 14  1  0  0  0
 20 21  2  0  0  0
M  CHG 1  12   1
M  END
> <minimizedAffinity>
-7.05846

$$$$
