@<TRIPOS>MOLECULE
*****
 34 36 0 0 0
SMALL
GASTEIGER

@<TRIPOS>ATOM
      1 O          -1.2763   -1.2556   -3.2559 O.2     1  UNL11      -0.2884
      2 C          -0.5522   -1.2538   -2.2470 C.2     1  UNL11       0.2004
      3 C          -0.9601   -0.4329   -1.0745 C.3     1  UNL11       0.1552
      4 O           0.0088   -0.5520   -0.0223 O.3     1  UNL11      -0.4489
      5 C           1.1770    0.1540   -0.0090 C.2     1  UNL11       0.4075
      6 O           1.1545    1.4009    0.0118 O.2     1  UNL11      -0.2381
      7 C           2.5042   -0.5092   -0.0183 C.ar    1  UNL11       0.3224
      8 N           3.6932    0.1176   -0.0048 N.ar    1  UNL11      -0.1171
      9 N           4.6243   -0.7795   -0.0190 N.ar    1  UNL11      -0.1639
     10 C           4.1089   -2.0191   -0.0421 C.ar    1  UNL11       0.1101
     11 C           4.6711   -3.2810   -0.0635 C.ar    1  UNL11      -0.0324
     12 C           3.8229   -4.3609   -0.0844 C.ar    1  UNL11      -0.0596
     13 C           2.4470   -4.2146   -0.0845 C.ar    1  UNL11      -0.0609
     14 C           1.8771   -2.9540   -0.0632 C.ar    1  UNL11      -0.0458
     15 C           2.7465   -1.8579   -0.0419 C.ar    1  UNL11       0.0841
     16 C           0.6840   -2.0123   -2.1377 C.ar    1  UNL11       0.0237
     17 C           1.1630   -2.8059   -3.1578 C.ar    1  UNL11      -0.0483
     18 C           2.3301   -3.5211   -3.0525 C.ar    1  UNL11      -0.0229
     19 C           3.0814   -3.4753   -1.9085 C.ar    1  UNL11       0.1584
     20 F           4.2243   -4.1690   -1.7913 F       1  UNL11      -0.2025
     21 C           2.6272   -2.6902   -0.8719 C.ar    1  UNL11       0.1591
     22 F           3.3594   -2.6393    0.2565 F       1  UNL11      -0.2025
     23 C           1.4359   -1.9629   -0.9850 C.ar    1  UNL11      -0.0130
     24 H          -0.9872    0.6417   -1.3494 H       1  UNL11       0.0782
     25 H          -1.9622   -0.7051   -0.7041 H       1  UNL11       0.0782
     26 H           3.7563    1.1781    0.0143 H       1  UNL11       0.4874
     27 H           5.7482   -3.3604   -0.0628 H       1  UNL11       0.0640
     28 H           4.2918   -5.3473   -0.1011 H       1  UNL11       0.0618
     29 H           1.7919   -5.0877   -0.1013 H       1  UNL11       0.0618
     30 H           0.8238   -2.7856   -0.0622 H       1  UNL11       0.0626
     31 H           0.5600   -2.8384   -4.0672 H       1  UNL11       0.0625
     32 H           2.6584   -4.1224   -3.8737 H       1  UNL11       0.0647
     33 H           1.1144   -1.3601   -0.1512 H       1  UNL11       0.0654
     34 H           5.5882   -0.5792   -0.0136 H       1  UNL11       0.2365
@<TRIPOS>BOND
     1     1     2    2
     2     2     3    1
     3     2    16    1
     4     3     4    1
     5     3    24    1
     6     3    25    1
     7     4     5    1
     8     5     6    2
     9     5     7    1
    10     7     8   ar
    11     8     9   ar
    12     8    26    1
    13     9    10   ar
    14    10    11   ar
    15    11    12   ar
    16    11    27    1
    17    12    13   ar
    18    12    28    1
    19    13    14   ar
    20    13    29    1
    21    14    15   ar
    22    14    30    1
    23    15     7   ar
    24    15    10   ar
    25    16    17   ar
    26    17    18   ar
    27    17    31    1
    28    18    19   ar
    29    18    32    1
    30    19    20    1
    31    19    21   ar
    32    21    22    1
    33    21    23   ar
    34    23    16   ar
    35    23    33    1
    36     9    34    1
@<TRIPOS>MOLECULE
*****
 34 36 0 0 0
SMALL
GASTEIGER

@<TRIPOS>ATOM
      1 O          -1.3483   -2.1836    2.5539 O.2     1  UNL11      -0.2884
      2 C          -0.5876   -1.2732    2.1870 C.2     1  UNL11       0.2004
      3 C          -0.9776   -0.4433    1.0147 C.3     1  UNL11       0.1552
      4 O           0.0088   -0.5520   -0.0223 O.3     1  UNL11      -0.4489
      5 C           1.1770    0.1540   -0.0090 C.2     1  UNL11       0.4075
      6 O           1.1545    1.4009    0.0118 O.2     1  UNL11      -0.2381
      7 C           2.5042   -0.5092   -0.0183 C.ar    1  UNL11       0.3224
      8 N           3.6282   -0.0200    0.5330 N.ar    1  UNL11      -0.1171
      9 N           4.5823   -0.8684    0.3286 N.ar    1  UNL11      -0.1639
     10 C           4.1465   -1.9394   -0.3540 C.ar    1  UNL11       0.1101
     11 C           4.7610   -3.0908   -0.8075 C.ar    1  UNL11      -0.0324
     12 C           3.9927   -4.0013   -1.4908 C.ar    1  UNL11      -0.0596
     13 C           2.6456   -3.7940   -1.7293 C.ar    1  UNL11      -0.0609
     14 C           2.0238   -2.6433   -1.2782 C.ar    1  UNL11      -0.0458
     15 C           2.8118   -1.7196   -0.5827 C.ar    1  UNL11       0.0841
     16 C           0.6753   -0.9629    2.8384 C.ar    1  UNL11       0.0237
     17 C           1.4952    0.0636    2.4216 C.ar    1  UNL11      -0.0483
     18 C           2.6870    0.3548    3.0379 C.ar    1  UNL11      -0.0229
     19 C           3.1192   -0.3758    4.1124 C.ar    1  UNL11       0.1584
     20 F           4.2817   -0.1027    4.7247 F       1  UNL11      -0.2025
     21 C           2.3201   -1.4084    4.5513 C.ar    1  UNL11       0.1591
     22 F           2.7371   -2.1319    5.6069 F       1  UNL11      -0.2025
     23 C           1.1055   -1.7007    3.9186 C.ar    1  UNL11      -0.0130
     24 H          -1.9268   -0.8174    0.5786 H       1  UNL11       0.0782
     25 H          -1.1322    0.6140    1.2860 H       1  UNL11       0.0782
     26 H           3.6332    0.9175    1.0332 H       1  UNL11       0.4874
     27 H           5.8136   -3.2219   -0.6047 H       1  UNL11       0.0640
     28 H           4.5016   -4.9030   -1.8388 H       1  UNL11       0.0618
     29 H           2.0544   -4.5318   -2.2750 H       1  UNL11       0.0618
     30 H           0.9896   -2.4345   -1.4348 H       1  UNL11       0.0626
     31 H           1.1455    0.6425    1.5647 H       1  UNL11       0.0625
     32 H           3.2869    1.1625    2.6753 H       1  UNL11       0.0647
     33 H           0.5087   -2.5169    4.2923 H       1  UNL11       0.0654
     34 H           5.5099   -0.7449    0.6344 H       1  UNL11       0.2365
@<TRIPOS>BOND
     1     1     2    2
     2     2     3    1
     3     2    16    1
     4     3     4    1
     5     3    24    1
     6     3    25    1
     7     4     5    1
     8     5     6    2
     9     5     7    1
    10     7     8   ar
    11     8     9   ar
    12     8    26    1
    13     9    10   ar
    14    10    11   ar
    15    11    12   ar
    16    11    27    1
    17    12    13   ar
    18    12    28    1
    19    13    14   ar
    20    13    29    1
    21    14    15   ar
    22    14    30    1
    23    15     7   ar
    24    15    10   ar
    25    16    17   ar
    26    17    18   ar
    27    17    31    1
    28    18    19   ar
    29    18    32    1
    30    19    20    1
    31    19    21   ar
    32    21    22    1
    33    21    23   ar
    34    23    16   ar
    35    23    33    1
    36     9    34    1
@<TRIPOS>MOLECULE
*****
 34 36 0 0 0
SMALL
GASTEIGER

@<TRIPOS>ATOM
      1 O          -0.3646   -0.6878   -3.3363 O.2     1  UNL11      -0.2884
      2 C          -0.5522   -1.2538   -2.2470 C.2     1  UNL11       0.2004
      3 C          -0.9601   -0.4329   -1.0745 C.3     1  UNL11       0.1552
      4 O           0.0088   -0.5520   -0.0223 O.3     1  UNL11      -0.4489
      5 C           1.1770    0.1540   -0.0090 C.2     1  UNL11       0.4075
      6 O           1.1545    1.4009    0.0118 O.2     1  UNL11      -0.2381
      7 C           2.5042   -0.5092   -0.0183 C.ar    1  UNL11       0.3224
      8 N           3.6932    0.1176   -0.0048 N.ar    1  UNL11      -0.1171
      9 N           4.6243   -0.7795   -0.0190 N.ar    1  UNL11      -0.1639
     10 C           4.1089   -2.0191   -0.0421 C.ar    1  UNL11       0.1101
     11 C           4.6711   -3.2810   -0.0635 C.ar    1  UNL11      -0.0324
     12 C           3.8229   -4.3609   -0.0844 C.ar    1  UNL11      -0.0596
     13 C           2.4470   -4.2146   -0.0845 C.ar    1  UNL11      -0.0609
     14 C           1.8771   -2.9540   -0.0632 C.ar    1  UNL11      -0.0458
     15 C           2.7465   -1.8579   -0.0419 C.ar    1  UNL11       0.0841
     16 C          -0.3966   -2.6854   -2.0424 C.ar    1  UNL11       0.0237
     17 C          -0.0084   -3.2269   -0.8358 C.ar    1  UNL11      -0.0483
     18 C           0.1378   -4.5785   -0.6447 C.ar    1  UNL11      -0.0229
     19 C          -0.1002   -5.4619   -1.6636 C.ar    1  UNL11       0.1584
     20 F           0.0386   -6.7856   -1.4914 F       1  UNL11      -0.2025
     21 C          -0.4898   -4.9493   -2.8813 C.ar    1  UNL11       0.1591
     22 F          -0.7259   -5.8104   -3.8886 F       1  UNL11      -0.2025
     23 C          -0.6373   -3.5697   -3.0702 C.ar    1  UNL11      -0.0130
     24 H          -0.9872    0.6417   -1.3494 H       1  UNL11       0.0782
     25 H          -1.9622   -0.7051   -0.7041 H       1  UNL11       0.0782
     26 H           3.7563    1.1781    0.0143 H       1  UNL11       0.4874
     27 H           5.7482   -3.3604   -0.0628 H       1  UNL11       0.0640
     28 H           4.2918   -5.3473   -0.1011 H       1  UNL11       0.0618
     29 H           1.7919   -5.0877   -0.1013 H       1  UNL11       0.0618
     30 H           0.8238   -2.7856   -0.0622 H       1  UNL11       0.0626
     31 H           0.1798   -2.5179   -0.0273 H       1  UNL11       0.0625
     32 H           0.4415   -4.9481    0.3118 H       1  UNL11       0.0647
     33 H          -0.9439   -3.2081   -4.0384 H       1  UNL11       0.0654
     34 H           5.5882   -0.5792   -0.0136 H       1  UNL11       0.2365
@<TRIPOS>BOND
     1     1     2    2
     2     2     3    1
     3     2    16    1
     4     3     4    1
     5     3    24    1
     6     3    25    1
     7     4     5    1
     8     5     6    2
     9     5     7    1
    10     7     8   ar
    11     8     9   ar
    12     8    26    1
    13     9    10   ar
    14    10    11   ar
    15    11    12   ar
    16    11    27    1
    17    12    13   ar
    18    12    28    1
    19    13    14   ar
    20    13    29    1
    21    14    15   ar
    22    14    30    1
    23    15     7   ar
    24    15    10   ar
    25    16    17   ar
    26    17    18   ar
    27    17    31    1
    28    18    19   ar
    29    18    32    1
    30    19    20    1
    31    19    21   ar
    32    21    22    1
    33    21    23   ar
    34    23    16   ar
    35    23    33    1
    36     9    34    1
@<TRIPOS>MOLECULE
*****
 34 36 0 0 0
SMALL
GASTEIGER

@<TRIPOS>ATOM
      1 O          -1.0940   -1.3393   -3.2415 O.2     1  UNL11      -0.2884
      2 C          -0.3604   -0.8342   -2.3762 C.2     1  UNL11       0.2004
      3 C          -0.9601   -0.4329   -1.0745 C.3     1  UNL11       0.1552
      4 O           0.0088   -0.5520   -0.0223 O.3     1  UNL11      -0.4489
      5 C           1.1770    0.1540   -0.0090 C.2     1  UNL11       0.4075
      6 O           1.1545    1.4009    0.0118 O.2     1  UNL11      -0.2381
      7 C           2.5042   -0.5092   -0.0183 C.ar    1  UNL11       0.3224
      8 N           2.7846   -1.6925   -0.5910 N.ar    1  UNL11      -0.1171
      9 N           4.0371   -1.9493   -0.3979 N.ar    1  UNL11      -0.1639
     10 C           4.6358   -0.9693    0.2976 C.ar    1  UNL11       0.1101
     11 C           5.9281   -0.7769    0.7470 C.ar    1  UNL11      -0.0324
     12 C           6.1989    0.3726    1.4480 C.ar    1  UNL11      -0.0596
     13 C           5.2258    1.3213    1.7079 C.ar    1  UNL11      -0.0609
     14 C           3.9297    1.1352    1.2610 C.ar    1  UNL11      -0.0458
     15 C           3.6601   -0.0379    0.5474 C.ar    1  UNL11       0.0841
     16 C           1.0649   -0.6072   -2.5567 C.ar    1  UNL11       0.0237
     17 C           1.9621   -0.6404   -1.5109 C.ar    1  UNL11      -0.0483
     18 C           3.3072   -0.4260   -1.6834 C.ar    1  UNL11      -0.0229
     19 C           3.8235   -0.1652   -2.9246 C.ar    1  UNL11       0.1584
     20 F           5.1359    0.0464   -3.1084 F       1  UNL11      -0.2025
     21 C           2.9502   -0.1259   -3.9891 C.ar    1  UNL11       0.1591
     22 F           3.4490    0.1298   -5.2129 F       1  UNL11      -0.2025
     23 C           1.5792   -0.3454   -3.8070 C.ar    1  UNL11      -0.0130
     24 H          -1.2566    0.6359   -1.1020 H       1  UNL11       0.0782
     25 H          -1.8613   -1.0202   -0.8327 H       1  UNL11       0.0782
     26 H           2.0350   -2.2509   -1.0962 H       1  UNL11       0.4874
     27 H           6.6637   -1.5365    0.5274 H       1  UNL11       0.0640
     28 H           7.2276    0.5012    1.7923 H       1  UNL11       0.0618
     29 H           5.4640    2.2279    2.2673 H       1  UNL11       0.0618
     30 H           3.1428    1.8341    1.4337 H       1  UNL11       0.0626
     31 H           1.5448   -0.8488   -0.5239 H       1  UNL11       0.0625
     32 H           3.9617   -0.4627   -0.8385 H       1  UNL11       0.0647
     33 H           0.9286   -0.3061   -4.6656 H       1  UNL11       0.0654
     34 H           4.4934   -2.7601   -0.7199 H       1  UNL11       0.2365
@<TRIPOS>BOND
     1     1     2    2
     2     2     3    1
     3     2    16    1
     4     3     4    1
     5     3    24    1
     6     3    25    1
     7     4     5    1
     8     5     6    2
     9     5     7    1
    10     7     8   ar
    11     8     9   ar
    12     8    26    1
    13     9    10   ar
    14    10    11   ar
    15    11    12   ar
    16    11    27    1
    17    12    13   ar
    18    12    28    1
    19    13    14   ar
    20    13    29    1
    21    14    15   ar
    22    14    30    1
    23    15     7   ar
    24    15    10   ar
    25    16    17   ar
    26    17    18   ar
    27    17    31    1
    28    18    19   ar
    29    18    32    1
    30    19    20    1
    31    19    21   ar
    32    21    22    1
    33    21    23   ar
    34    23    16   ar
    35    23    33    1
    36     9    34    1
@<TRIPOS>MOLECULE
*****
 34 36 0 0 0
SMALL
GASTEIGER

@<TRIPOS>ATOM
      1 O          -2.0539   -2.5042   -1.2951 O.2     1  UNL11      -0.2884
      2 C          -1.1701   -1.7503   -1.7343 C.2     1  UNL11       0.2004
      3 C          -0.9601   -0.4329   -1.0745 C.3     1  UNL11       0.1552
      4 O           0.0088   -0.5520   -0.0223 O.3     1  UNL11      -0.4489
      5 C           1.1770    0.1540   -0.0090 C.2     1  UNL11       0.4075
      6 O           1.1545    1.4009    0.0118 O.2     1  UNL11      -0.2381
      7 C           2.5042   -0.5092   -0.0183 C.ar    1  UNL11       0.3224
      8 N           2.7167   -1.8360   -0.0551 N.ar    1  UNL11      -0.1171
      9 N           3.9931   -2.0421   -0.0516 N.ar    1  UNL11      -0.1639
     10 C           4.6752   -0.8862   -0.0132 C.ar    1  UNL11       0.1101
     11 C           6.0220   -0.5786    0.0056 C.ar    1  UNL11      -0.0324
     12 C           6.3765    0.7476    0.0466 C.ar    1  UNL11      -0.0596
     13 C           5.4335    1.7600    0.0689 C.ar    1  UNL11      -0.0609
     14 C           4.0832    1.4592    0.0503 C.ar    1  UNL11      -0.0458
     15 C           3.7284    0.1064    0.0086 C.ar    1  UNL11       0.0841
     16 C          -0.3172   -2.0776   -2.8661 C.ar    1  UNL11       0.0237
     17 C           0.6680   -1.2300   -3.3251 C.ar    1  UNL11      -0.0483
     18 C           1.4721   -1.5409   -4.3937 C.ar    1  UNL11      -0.0229
     19 C           1.3265   -2.7279   -5.0606 C.ar    1  UNL11       0.1584
     20 F           2.1051   -3.0453   -6.1065 F       1  UNL11      -0.2025
     21 C           0.3495   -3.5953   -4.6238 C.ar    1  UNL11       0.1591
     22 F           0.1993   -4.7645   -5.2736 F       1  UNL11      -0.2025
     23 C          -0.4676   -3.2728   -3.5334 C.ar    1  UNL11      -0.0130
     24 H          -0.5418    0.2963   -1.7986 H       1  UNL11       0.0782
     25 H          -1.8995   -0.0088   -0.6831 H       1  UNL11       0.0782
     26 H           1.9063   -2.5228   -0.0810 H       1  UNL11       0.4874
     27 H           6.7321   -1.3920   -0.0126 H       1  UNL11       0.0640
     28 H           7.4470    0.9646    0.0608 H       1  UNL11       0.0618
     29 H           5.7385    2.8076    0.1014 H       1  UNL11       0.0618
     30 H           3.3161    2.2002    0.0660 H       1  UNL11       0.0626
     31 H           0.7794   -0.2853   -2.7896 H       1  UNL11       0.0625
     32 H           2.2225   -0.8480   -4.7106 H       1  UNL11       0.0647
     33 H          -1.2208   -3.9785   -3.2223 H       1  UNL11       0.0654
     34 H           4.4116   -2.9329   -0.0742 H       1  UNL11       0.2365
@<TRIPOS>BOND
     1     1     2    2
     2     2     3    1
     3     2    16    1
     4     3     4    1
     5     3    24    1
     6     3    25    1
     7     4     5    1
     8     5     6    2
     9     5     7    1
    10     7     8   ar
    11     8     9   ar
    12     8    26    1
    13     9    10   ar
    14    10    11   ar
    15    11    12   ar
    16    11    27    1
    17    12    13   ar
    18    12    28    1
    19    13    14   ar
    20    13    29    1
    21    14    15   ar
    22    14    30    1
    23    15     7   ar
    24    15    10   ar
    25    16    17   ar
    26    17    18   ar
    27    17    31    1
    28    18    19   ar
    29    18    32    1
    30    19    20    1
    31    19    21   ar
    32    21    22    1
    33    21    23   ar
    34    23    16   ar
    35    23    33    1
    36     9    34    1
@<TRIPOS>MOLECULE
*****
 34 36 0 0 0
SMALL
GASTEIGER

@<TRIPOS>ATOM
      1 O          -1.6489    2.1505   -1.0660 O.2     1  UNL11      -0.2884
      2 C          -1.4431    0.9356   -1.2205 C.2     1  UNL11       0.2004
      3 C          -1.2809    0.0779   -0.0151 C.3     1  UNL11       0.1552
      4 O           0.0088   -0.5520   -0.0223 O.3     1  UNL11      -0.4489
      5 C           1.1770    0.1540   -0.0090 C.2     1  UNL11       0.4075
      6 O           1.1545    1.4009    0.0118 O.2     1  UNL11      -0.2381
      7 C           2.5042   -0.5092   -0.0183 C.ar    1  UNL11       0.3224
      8 N           3.6303   -0.0006   -0.5474 N.ar    1  UNL11      -0.1171
      9 N           4.5836   -0.8559   -0.3697 N.ar    1  UNL11      -0.1639
     10 C           4.1454   -1.9504    0.2726 C.ar    1  UNL11       0.1101
     11 C           4.7582   -3.1173    0.6872 C.ar    1  UNL11      -0.0324
     12 C           3.9874   -4.0516    1.3346 C.ar    1  UNL11      -0.0596
     13 C           2.6393   -3.8529    1.5751 C.ar    1  UNL11      -0.0609
     14 C           2.0191   -2.6869    1.1627 C.ar    1  UNL11      -0.0458
     15 C           2.8098   -1.7391    0.5037 C.ar    1  UNL11       0.0841
     16 C          -1.3495    0.2904   -2.5207 C.ar    1  UNL11       0.0237
     17 C          -0.5684   -0.8231   -2.7445 C.ar    1  UNL11      -0.0483
     18 C          -0.4815   -1.4306   -3.9726 C.ar    1  UNL11      -0.0229
     19 C          -1.1799   -0.9471   -5.0467 C.ar    1  UNL11       0.1584
     20 F          -1.1046   -1.5305   -6.2528 F       1  UNL11      -0.2025
     21 C          -1.9691    0.1651   -4.8527 C.ar    1  UNL11       0.1591
     22 F          -2.6591    0.6473   -5.9030 F       1  UNL11      -0.2025
     23 C          -2.0538    0.7805   -3.5977 C.ar    1  UNL11      -0.0130
     24 H          -1.3168    0.6978    0.9044 H       1  UNL11       0.0782
     25 H          -2.0766   -0.6809    0.0661 H       1  UNL11       0.0782
     26 H           3.6372    0.9541   -1.0137 H       1  UNL11       0.4874
     27 H           5.8116   -3.2412    0.4839 H       1  UNL11       0.0640
     28 H           4.4951   -4.9651    1.6522 H       1  UNL11       0.0618
     29 H           2.0460   -4.6097    2.0918 H       1  UNL11       0.0618
     30 H           0.9843   -2.4838    1.3228 H       1  UNL11       0.0626
     31 H          -0.0142   -1.2040   -1.8846 H       1  UNL11       0.0625
     32 H           0.1394   -2.2929   -4.0938 H       1  UNL11       0.0647
     33 H          -2.6826    1.6491   -3.4868 H       1  UNL11       0.0654
     34 H           5.5124   -0.7217   -0.6674 H       1  UNL11       0.2365
@<TRIPOS>BOND
     1     1     2    2
     2     2     3    1
     3     2    16    1
     4     3     4    1
     5     3    24    1
     6     3    25    1
     7     4     5    1
     8     5     6    2
     9     5     7    1
    10     7     8   ar
    11     8     9   ar
    12     8    26    1
    13     9    10   ar
    14    10    11   ar
    15    11    12   ar
    16    11    27    1
    17    12    13   ar
    18    12    28    1
    19    13    14   ar
    20    13    29    1
    21    14    15   ar
    22    14    30    1
    23    15     7   ar
    24    15    10   ar
    25    16    17   ar
    26    17    18   ar
    27    17    31    1
    28    18    19   ar
    29    18    32    1
    30    19    20    1
    31    19    21   ar
    32    21    22    1
    33    21    23   ar
    34    23    16   ar
    35    23    33    1
    36     9    34    1
@<TRIPOS>MOLECULE
*****
 34 36 0 0 0
SMALL
GASTEIGER

@<TRIPOS>ATOM
      1 O          -2.6910    1.1663    0.9224 O.2     1  UNL11      -0.2884
      2 C          -1.4809    0.9544    1.1038 C.2     1  UNL11       0.2004
      3 C          -0.9776   -0.4433    1.0147 C.3     1  UNL11       0.1552
      4 O           0.0088   -0.5520   -0.0223 O.3     1  UNL11      -0.4489
      5 C           1.1770    0.1540   -0.0090 C.2     1  UNL11       0.4075
      6 O           1.1545    1.4009    0.0118 O.2     1  UNL11      -0.2381
      7 C           2.5042   -0.5092   -0.0183 C.ar    1  UNL11       0.3224
      8 N           2.7167   -1.8360   -0.0551 N.ar    1  UNL11      -0.1171
      9 N           3.9931   -2.0421   -0.0516 N.ar    1  UNL11      -0.1639
     10 C           4.6752   -0.8862   -0.0132 C.ar    1  UNL11       0.1101
     11 C           6.0220   -0.5786    0.0056 C.ar    1  UNL11      -0.0324
     12 C           6.3765    0.7476    0.0466 C.ar    1  UNL11      -0.0596
     13 C           5.4335    1.7600    0.0689 C.ar    1  UNL11      -0.0609
     14 C           4.0832    1.4592    0.0503 C.ar    1  UNL11      -0.0458
     15 C           3.7284    0.1064    0.0086 C.ar    1  UNL11       0.0841
     16 C          -0.5130    1.9985    1.4014 C.ar    1  UNL11       0.0237
     17 C           0.8086    1.9194    1.0179 C.ar    1  UNL11      -0.0483
     18 C           1.7206    2.9061    1.2998 C.ar    1  UNL11      -0.0229
     19 C           1.3490    4.0311    1.9865 C.ar    1  UNL11       0.1584
     20 F           2.2294    5.0036    2.2691 F       1  UNL11      -0.2025
     21 C           0.0340    4.1376    2.3826 C.ar    1  UNL11       0.1591
     22 F          -0.3402    5.2401    3.0582 F       1  UNL11      -0.2025
     23 C          -0.8918    3.1279    2.0922 C.ar    1  UNL11      -0.0130
     24 H          -0.4671   -0.7280    1.9578 H       1  UNL11       0.0782
     25 H          -1.7907   -1.1687    0.8465 H       1  UNL11       0.0782
     26 H           1.9063   -2.5228   -0.0810 H       1  UNL11       0.4874
     27 H           6.7321   -1.3920   -0.0126 H       1  UNL11       0.0640
     28 H           7.4470    0.9646    0.0608 H       1  UNL11       0.0618
     29 H           5.7385    2.8076    0.1014 H       1  UNL11       0.0618
     30 H           3.3161    2.2002    0.0660 H       1  UNL11       0.0626
     31 H           1.0989    1.0205    0.4708 H       1  UNL11       0.0625
     32 H           2.7351    2.7964    0.9796 H       1  UNL11       0.0647
     33 H          -1.9117    3.2489    2.4196 H       1  UNL11       0.0654
     34 H           4.4116   -2.9329   -0.0742 H       1  UNL11       0.2365
@<TRIPOS>BOND
     1     1     2    2
     2     2     3    1
     3     2    16    1
     4     3     4    1
     5     3    24    1
     6     3    25    1
     7     4     5    1
     8     5     6    2
     9     5     7    1
    10     7     8   ar
    11     8     9   ar
    12     8    26    1
    13     9    10   ar
    14    10    11   ar
    15    11    12   ar
    16    11    27    1
    17    12    13   ar
    18    12    28    1
    19    13    14   ar
    20    13    29    1
    21    14    15   ar
    22    14    30    1
    23    15     7   ar
    24    15    10   ar
    25    16    17   ar
    26    17    18   ar
    27    17    31    1
    28    18    19   ar
    29    18    32    1
    30    19    20    1
    31    19    21   ar
    32    21    22    1
    33    21    23   ar
    34    23    16   ar
    35    23    33    1
    36     9    34    1
@<TRIPOS>MOLECULE
*****
 34 36 0 0 0
SMALL
GASTEIGER

@<TRIPOS>ATOM
      1 O          -2.3034    1.1273   -0.1301 O.2     1  UNL11      -0.2884
      2 C          -2.2706    0.0295    0.4495 C.2     1  UNL11       0.2004
      3 C          -0.9776   -0.4433    1.0147 C.3     1  UNL11       0.1552
      4 O           0.0088   -0.5520   -0.0223 O.3     1  UNL11      -0.4489
      5 C           1.1770    0.1540   -0.0090 C.2     1  UNL11       0.4075
      6 O           1.1545    1.4009    0.0118 O.2     1  UNL11      -0.2381
      7 C           2.5042   -0.5092   -0.0183 C.ar    1  UNL11       0.3224
      8 N           3.6303   -0.0006   -0.5474 N.ar    1  UNL11      -0.1171
      9 N           4.5836   -0.8559   -0.3697 N.ar    1  UNL11      -0.1639
     10 C           4.1454   -1.9504    0.2726 C.ar    1  UNL11       0.1101
     11 C           4.7582   -3.1173    0.6872 C.ar    1  UNL11      -0.0324
     12 C           3.9874   -4.0516    1.3346 C.ar    1  UNL11      -0.0596
     13 C           2.6393   -3.8529    1.5751 C.ar    1  UNL11      -0.0609
     14 C           2.0191   -2.6869    1.1627 C.ar    1  UNL11      -0.0458
     15 C           2.8098   -1.7391    0.5037 C.ar    1  UNL11       0.0841
     16 C          -3.4300   -0.8335    0.6129 C.ar    1  UNL11       0.0237
     17 C          -4.7155   -0.3441    0.7018 C.ar    1  UNL11      -0.0483
     18 C          -5.8084   -1.1605    0.8560 C.ar    1  UNL11      -0.0229
     19 C          -5.6649   -2.5203    0.9293 C.ar    1  UNL11       0.1584
     20 F          -6.7240   -3.3306    1.0799 F       1  UNL11      -0.2025
     21 C          -4.3913   -3.0381    0.8433 C.ar    1  UNL11       0.1591
     22 F          -4.2409   -4.3738    0.9145 F       1  UNL11      -0.2025
     23 C          -3.2803   -2.2005    0.6861 C.ar    1  UNL11      -0.0130
     24 H          -0.5825    0.2971    1.7405 H       1  UNL11       0.0782
     25 H          -1.0817   -1.4040    1.5455 H       1  UNL11       0.0782
     26 H           3.6372    0.9541   -1.0137 H       1  UNL11       0.4874
     27 H           5.8116   -3.2412    0.4839 H       1  UNL11       0.0640
     28 H           4.4951   -4.9651    1.6522 H       1  UNL11       0.0618
     29 H           2.0460   -4.6097    2.0918 H       1  UNL11       0.0618
     30 H           0.9843   -2.4838    1.3228 H       1  UNL11       0.0626
     31 H          -4.8237    0.7405    0.6426 H       1  UNL11       0.0625
     32 H          -6.7856   -0.7305    0.9198 H       1  UNL11       0.0647
     33 H          -2.3001   -2.6445    0.6229 H       1  UNL11       0.0654
     34 H           5.5124   -0.7217   -0.6674 H       1  UNL11       0.2365
@<TRIPOS>BOND
     1     1     2    2
     2     2     3    1
     3     2    16    1
     4     3     4    1
     5     3    24    1
     6     3    25    1
     7     4     5    1
     8     5     6    2
     9     5     7    1
    10     7     8   ar
    11     8     9   ar
    12     8    26    1
    13     9    10   ar
    14    10    11   ar
    15    11    12   ar
    16    11    27    1
    17    12    13   ar
    18    12    28    1
    19    13    14   ar
    20    13    29    1
    21    14    15   ar
    22    14    30    1
    23    15     7   ar
    24    15    10   ar
    25    16    17   ar
    26    17    18   ar
    27    17    31    1
    28    18    19   ar
    29    18    32    1
    30    19    20    1
    31    19    21   ar
    32    21    22    1
    33    21    23   ar
    34    23    16   ar
    35    23    33    1
    36     9    34    1
@<TRIPOS>MOLECULE
*****
 34 36 0 0 0
SMALL
GASTEIGER

@<TRIPOS>ATOM
      1 O           0.1013   -0.7567    3.0818 O.2     1  UNL11      -0.2884
      2 C          -0.5876   -1.2732    2.1870 C.2     1  UNL11       0.2004
      3 C          -0.9776   -0.4433    1.0147 C.3     1  UNL11       0.1552
      4 O           0.0088   -0.5520   -0.0223 O.3     1  UNL11      -0.4489
      5 C           1.1770    0.1540   -0.0090 C.2     1  UNL11       0.4075
      6 O           1.1545    1.4009    0.0118 O.2     1  UNL11      -0.2381
      7 C           2.5042   -0.5092   -0.0183 C.ar    1  UNL11       0.3224
      8 N           2.7825   -1.7122    0.5128 N.ar    1  UNL11      -0.1171
      9 N           4.0357   -1.9621    0.3154 N.ar    1  UNL11      -0.1639
     10 C           4.6370   -0.9580   -0.3425 C.ar    1  UNL11       0.1101
     11 C           5.9309   -0.7498   -0.7799 C.ar    1  UNL11      -0.0324
     12 C           6.2044    0.4240   -1.4383 C.ar    1  UNL11      -0.0596
     13 C           5.2322    1.3815   -1.6678 C.ar    1  UNL11      -0.0609
     14 C           3.9345    1.1797   -1.2326 C.ar    1  UNL11      -0.0458
     15 C           3.6623   -0.0181   -0.5624 C.ar    1  UNL11       0.0841
     16 C          -1.0429   -2.6544    2.2126 C.ar    1  UNL11       0.0237
     17 C          -2.2214   -3.0606    1.6245 C.ar    1  UNL11      -0.0483
     18 C          -2.6493   -4.3649    1.6498 C.ar    1  UNL11      -0.0229
     19 C          -1.9096   -5.3350    2.2719 C.ar    1  UNL11       0.1584
     20 F          -2.3153   -6.6138    2.3046 F       1  UNL11      -0.2025
     21 C          -0.7266   -4.9581    2.8685 C.ar    1  UNL11       0.1591
     22 F           0.0069   -5.9052    3.4823 F       1  UNL11      -0.2025
     23 C          -0.2953   -3.6263    2.8395 C.ar    1  UNL11      -0.0130
     24 H          -1.9268   -0.8174    0.5786 H       1  UNL11       0.0782
     25 H          -1.1322    0.6140    1.2860 H       1  UNL11       0.0782
     26 H           2.0310   -2.2884    0.9948 H       1  UNL11       0.4874
     27 H           6.6658   -1.5168   -0.5847 H       1  UNL11       0.0640
     28 H           7.2343    0.5647   -1.7740 H       1  UNL11       0.0618
     29 H           5.4725    2.3075   -2.1936 H       1  UNL11       0.0618
     30 H           3.1482    1.8844   -1.3833 H       1  UNL11       0.0626
     31 H          -2.8067   -2.2829    1.1302 H       1  UNL11       0.0625
     32 H          -3.5721   -4.6284    1.1781 H       1  UNL11       0.0647
     33 H           0.6364   -3.3717    3.3181 H       1  UNL11       0.0654
     34 H           4.4909   -2.7839    0.6100 H       1  UNL11       0.2365
@<TRIPOS>BOND
     1     1     2    2
     2     2     3    1
     3     2    16    1
     4     3     4    1
     5     3    24    1
     6     3    25    1
     7     4     5    1
     8     5     6    2
     9     5     7    1
    10     7     8   ar
    11     8     9   ar
    12     8    26    1
    13     9    10   ar
    14    10    11   ar
    15    11    12   ar
    16    11    27    1
    17    12    13   ar
    18    12    28    1
    19    13    14   ar
    20    13    29    1
    21    14    15   ar
    22    14    30    1
    23    15     7   ar
    24    15    10   ar
    25    16    17   ar
    26    17    18   ar
    27    17    31    1
    28    18    19   ar
    29    18    32    1
    30    19    20    1
    31    19    21   ar
    32    21    22    1
    33    21    23   ar
    34    23    16   ar
    35    23    33    1
    36     9    34    1
@<TRIPOS>MOLECULE
*****
 34 36 0 0 0
SMALL
GASTEIGER

@<TRIPOS>ATOM
      1 O          -2.6496    1.1458    1.4775 O.2     1  UNL11      -0.2884
      2 C          -1.4809    0.9544    1.1038 C.2     1  UNL11       0.2004
      3 C          -0.9776   -0.4433    1.0147 C.3     1  UNL11       0.1552
      4 O           0.0088   -0.5520   -0.0223 O.3     1  UNL11      -0.4489
      5 C           1.1770    0.1540   -0.0090 C.2     1  UNL11       0.4075
      6 O           1.1545    1.4009    0.0118 O.2     1  UNL11      -0.2381
      7 C           2.5042   -0.5092   -0.0183 C.ar    1  UNL11       0.3224
      8 N           3.6282   -0.0200    0.5330 N.ar    1  UNL11      -0.1171
      9 N           4.5823   -0.8684    0.3286 N.ar    1  UNL11      -0.1639
     10 C           4.1465   -1.9394   -0.3540 C.ar    1  UNL11       0.1101
     11 C           4.7610   -3.0908   -0.8075 C.ar    1  UNL11      -0.0324
     12 C           3.9927   -4.0013   -1.4908 C.ar    1  UNL11      -0.0596
     13 C           2.6456   -3.7940   -1.7293 C.ar    1  UNL11      -0.0609
     14 C           2.0238   -2.6433   -1.2782 C.ar    1  UNL11      -0.0458
     15 C           2.8118   -1.7196   -0.5827 C.ar    1  UNL11       0.0841
     16 C          -0.5621    2.0228    0.7433 C.ar    1  UNL11       0.0237
     17 C           0.8015    1.9218    0.9171 C.ar    1  UNL11      -0.0483
     18 C           1.6671    2.9315    0.5762 C.ar    1  UNL11      -0.0229
     19 C           1.2037    4.1029    0.0393 C.ar    1  UNL11       0.1584
     20 F           2.0379    5.0983   -0.2988 F       1  UNL11      -0.2025
     21 C          -0.1551    4.2321   -0.1460 C.ar    1  UNL11       0.1591
     22 F          -0.6196    5.3803   -0.6732 F       1  UNL11      -0.2025
     23 C          -1.0332    3.1989    0.2037 C.ar    1  UNL11      -0.0130
     24 H          -0.4671   -0.7280    1.9578 H       1  UNL11       0.0782
     25 H          -1.7907   -1.1687    0.8465 H       1  UNL11       0.0782
     26 H           3.6332    0.9175    1.0332 H       1  UNL11       0.4874
     27 H           5.8136   -3.2219   -0.6047 H       1  UNL11       0.0640
     28 H           4.5016   -4.9030   -1.8388 H       1  UNL11       0.0618
     29 H           2.0544   -4.5318   -2.2750 H       1  UNL11       0.0618
     30 H           0.9896   -2.4345   -1.4348 H       1  UNL11       0.0626
     31 H           1.1651    0.9859    1.3454 H       1  UNL11       0.0625
     32 H           2.7175    2.8032    0.7313 H       1  UNL11       0.0647
     33 H          -2.0899    3.3388    0.0431 H       1  UNL11       0.0654
     34 H           5.5099   -0.7449    0.6344 H       1  UNL11       0.2365
@<TRIPOS>BOND
     1     1     2    2
     2     2     3    1
     3     2    16    1
     4     3     4    1
     5     3    24    1
     6     3    25    1
     7     4     5    1
     8     5     6    2
     9     5     7    1
    10     7     8   ar
    11     8     9   ar
    12     8    26    1
    13     9    10   ar
    14    10    11   ar
    15    11    12   ar
    16    11    27    1
    17    12    13   ar
    18    12    28    1
    19    13    14   ar
    20    13    29    1
    21    14    15   ar
    22    14    30    1
    23    15     7   ar
    24    15    10   ar
    25    16    17   ar
    26    17    18   ar
    27    17    31    1
    28    18    19   ar
    29    18    32    1
    30    19    20    1
    31    19    21   ar
    32    21    22    1
    33    21    23   ar
    34    23    16   ar
    35    23    33    1
    36     9    34    1
@<TRIPOS>MOLECULE
*****
 34 36 0 0 0
SMALL
GASTEIGER

@<TRIPOS>ATOM
      1 O          -1.3483   -2.1836    2.5539 O.2     1  UNL11      -0.2884
      2 C          -0.5876   -1.2732    2.1870 C.2     1  UNL11       0.2004
      3 C          -0.9776   -0.4433    1.0147 C.3     1  UNL11       0.1552
      4 O           0.0088   -0.5520   -0.0223 O.3     1  UNL11      -0.4489
      5 C           1.1770    0.1540   -0.0090 C.2     1  UNL11       0.4075
      6 O           1.1545    1.4009    0.0118 O.2     1  UNL11      -0.2381
      7 C           2.5042   -0.5092   -0.0183 C.ar    1  UNL11       0.3224
      8 N           3.6303   -0.0006   -0.5474 N.ar    1  UNL11      -0.1171
      9 N           4.5836   -0.8559   -0.3697 N.ar    1  UNL11      -0.1639
     10 C           4.1454   -1.9504    0.2726 C.ar    1  UNL11       0.1101
     11 C           4.7582   -3.1173    0.6872 C.ar    1  UNL11      -0.0324
     12 C           3.9874   -4.0516    1.3346 C.ar    1  UNL11      -0.0596
     13 C           2.6393   -3.8529    1.5751 C.ar    1  UNL11      -0.0609
     14 C           2.0191   -2.6869    1.1627 C.ar    1  UNL11      -0.0458
     15 C           2.8098   -1.7391    0.5037 C.ar    1  UNL11       0.0841
     16 C           0.6753   -0.9629    2.8384 C.ar    1  UNL11       0.0237
     17 C           1.4350   -1.9164    3.4814 C.ar    1  UNL11      -0.0483
     18 C           2.6269   -1.6215    4.0956 C.ar    1  UNL11      -0.0229
     19 C           3.1202   -0.3440    4.0953 C.ar    1  UNL11       0.1584
     20 F           4.2837   -0.0410    4.6915 F       1  UNL11      -0.2025
     21 C           2.3821    0.6302    3.4600 C.ar    1  UNL11       0.1591
     22 F           2.8595    1.8887    3.4548 F       1  UNL11      -0.2025
     23 C           1.1671    0.3233    2.8352 C.ar    1  UNL11      -0.0130
     24 H          -1.9268   -0.8174    0.5786 H       1  UNL11       0.0782
     25 H          -1.1322    0.6140    1.2860 H       1  UNL11       0.0782
     26 H           3.6372    0.9541   -1.0137 H       1  UNL11       0.4874
     27 H           5.8116   -3.2412    0.4839 H       1  UNL11       0.0640
     28 H           4.4951   -4.9651    1.6522 H       1  UNL11       0.0618
     29 H           2.0460   -4.6097    2.0918 H       1  UNL11       0.0618
     30 H           0.9843   -2.4838    1.3228 H       1  UNL11       0.0626
     31 H           1.0368   -2.9328    3.4783 H       1  UNL11       0.0625
     32 H           3.1786   -2.3983    4.5812 H       1  UNL11       0.0647
     33 H           0.6192    1.1141    2.3488 H       1  UNL11       0.0654
     34 H           5.5124   -0.7217   -0.6674 H       1  UNL11       0.2365
@<TRIPOS>BOND
     1     1     2    2
     2     2     3    1
     3     2    16    1
     4     3     4    1
     5     3    24    1
     6     3    25    1
     7     4     5    1
     8     5     6    2
     9     5     7    1
    10     7     8   ar
    11     8     9   ar
    12     8    26    1
    13     9    10   ar
    14    10    11   ar
    15    11    12   ar
    16    11    27    1
    17    12    13   ar
    18    12    28    1
    19    13    14   ar
    20    13    29    1
    21    14    15   ar
    22    14    30    1
    23    15     7   ar
    24    15    10   ar
    25    16    17   ar
    26    17    18   ar
    27    17    31    1
    28    18    19   ar
    29    18    32    1
    30    19    20    1
    31    19    21   ar
    32    21    22    1
    33    21    23   ar
    34    23    16   ar
    35    23    33    1
    36     9    34    1
@<TRIPOS>MOLECULE
*****
 34 36 0 0 0
SMALL
GASTEIGER

@<TRIPOS>ATOM
      1 O          -0.8633   -1.7842   -2.9981 O.2     1  UNL11      -0.2884
      2 C          -0.3604   -0.8342   -2.3762 C.2     1  UNL11       0.2004
      3 C          -0.9601   -0.4329   -1.0745 C.3     1  UNL11       0.1552
      4 O           0.0088   -0.5520   -0.0223 O.3     1  UNL11      -0.4489
      5 C           1.1770    0.1540   -0.0090 C.2     1  UNL11       0.4075
      6 O           1.1545    1.4009    0.0118 O.2     1  UNL11      -0.2381
      7 C           2.5042   -0.5092   -0.0183 C.ar    1  UNL11       0.3224
      8 N           2.7167   -1.8360   -0.0551 N.ar    1  UNL11      -0.1171
      9 N           3.9931   -2.0421   -0.0516 N.ar    1  UNL11      -0.1639
     10 C           4.6752   -0.8862   -0.0132 C.ar    1  UNL11       0.1101
     11 C           6.0220   -0.5786    0.0056 C.ar    1  UNL11      -0.0324
     12 C           6.3765    0.7476    0.0466 C.ar    1  UNL11      -0.0596
     13 C           5.4335    1.7600    0.0689 C.ar    1  UNL11      -0.0609
     14 C           4.0832    1.4592    0.0503 C.ar    1  UNL11      -0.0458
     15 C           3.7284    0.1064    0.0086 C.ar    1  UNL11       0.0841
     16 C           0.7915   -0.0800   -2.8452 C.ar    1  UNL11       0.0237
     17 C           0.9821    1.2515   -2.5441 C.ar    1  UNL11      -0.0483
     18 C           2.0701    1.9615   -2.9878 C.ar    1  UNL11      -0.0229
     19 C           3.0294    1.3659   -3.7625 C.ar    1  UNL11       0.1584
     20 F           4.0982    2.0474   -4.2033 F       1  UNL11      -0.2025
     21 C           2.8653    0.0355   -4.0795 C.ar    1  UNL11       0.1591
     22 F           3.8035   -0.5581   -4.8407 F       1  UNL11      -0.2025
     23 C           1.7535   -0.6836   -3.6240 C.ar    1  UNL11      -0.0130
     24 H          -1.2566    0.6359   -1.1020 H       1  UNL11       0.0782
     25 H          -1.8613   -1.0202   -0.8327 H       1  UNL11       0.0782
     26 H           1.9063   -2.5228   -0.0810 H       1  UNL11       0.4874
     27 H           6.7321   -1.3920   -0.0126 H       1  UNL11       0.0640
     28 H           7.4470    0.9646    0.0608 H       1  UNL11       0.0618
     29 H           5.7385    2.8076    0.1014 H       1  UNL11       0.0618
     30 H           3.3161    2.2002    0.0660 H       1  UNL11       0.0626
     31 H           0.2142    1.7208   -1.9262 H       1  UNL11       0.0625
     32 H           2.1714    2.9935   -2.7259 H       1  UNL11       0.0647
     33 H           1.6614   -1.7232   -3.8939 H       1  UNL11       0.0654
     34 H           4.4116   -2.9329   -0.0742 H       1  UNL11       0.2365
@<TRIPOS>BOND
     1     1     2    2
     2     2     3    1
     3     2    16    1
     4     3     4    1
     5     3    24    1
     6     3    25    1
     7     4     5    1
     8     5     6    2
     9     5     7    1
    10     7     8   ar
    11     8     9   ar
    12     8    26    1
    13     9    10   ar
    14    10    11   ar
    15    11    12   ar
    16    11    27    1
    17    12    13   ar
    18    12    28    1
    19    13    14   ar
    20    13    29    1
    21    14    15   ar
    22    14    30    1
    23    15     7   ar
    24    15    10   ar
    25    16    17   ar
    26    17    18   ar
    27    17    31    1
    28    18    19   ar
    29    18    32    1
    30    19    20    1
    31    19    21   ar
    32    21    22    1
    33    21    23   ar
    34    23    16   ar
    35    23    33    1
    36     9    34    1
@<TRIPOS>MOLECULE
*****
 34 36 0 0 0
SMALL
GASTEIGER

@<TRIPOS>ATOM
      1 O          -0.7373    0.7903    2.1603 O.2     1  UNL11      -0.2884
      2 C          -1.6452    0.4922    1.3671 C.2     1  UNL11       0.2004
      3 C          -1.2809    0.0779   -0.0151 C.3     1  UNL11       0.1552
      4 O           0.0088   -0.5520   -0.0223 O.3     1  UNL11      -0.4489
      5 C           1.1770    0.1540   -0.0090 C.2     1  UNL11       0.4075
      6 O           1.1545    1.4009    0.0118 O.2     1  UNL11      -0.2381
      7 C           2.5042   -0.5092   -0.0183 C.ar    1  UNL11       0.3224
      8 N           2.7167   -1.8360   -0.0551 N.ar    1  UNL11      -0.1171
      9 N           3.9931   -2.0421   -0.0516 N.ar    1  UNL11      -0.1639
     10 C           4.6752   -0.8862   -0.0132 C.ar    1  UNL11       0.1101
     11 C           6.0220   -0.5786    0.0056 C.ar    1  UNL11      -0.0324
     12 C           6.3765    0.7476    0.0466 C.ar    1  UNL11      -0.0596
     13 C           5.4335    1.7600    0.0689 C.ar    1  UNL11      -0.0609
     14 C           4.0832    1.4592    0.0503 C.ar    1  UNL11      -0.0458
     15 C           3.7284    0.1064    0.0086 C.ar    1  UNL11       0.0841
     16 C          -3.0589    0.5228    1.7079 C.ar    1  UNL11       0.0237
     17 C          -3.5212    0.2985    2.9868 C.ar    1  UNL11      -0.0483
     18 C          -4.8561    0.3279    3.3063 C.ar    1  UNL11      -0.0229
     19 C          -5.8019    0.5860    2.3502 C.ar    1  UNL11       0.1584
     20 F          -7.1101    0.6179    2.6479 F       1  UNL11      -0.2025
     21 C          -5.3690    0.8141    1.0626 C.ar    1  UNL11       0.1591
     22 F          -6.2918    1.0686    0.1163 F       1  UNL11      -0.2025
     23 C          -4.0061    0.7829    0.7427 C.ar    1  UNL11      -0.0130
     24 H          -1.9978   -0.6817   -0.3894 H       1  UNL11       0.0782
     25 H          -1.2969    0.9244   -0.7214 H       1  UNL11       0.0782
     26 H           1.9063   -2.5228   -0.0810 H       1  UNL11       0.4874
     27 H           6.7321   -1.3920   -0.0126 H       1  UNL11       0.0640
     28 H           7.4470    0.9646    0.0608 H       1  UNL11       0.0618
     29 H           5.7385    2.8076    0.1014 H       1  UNL11       0.0618
     30 H           3.3161    2.2002    0.0660 H       1  UNL11       0.0626
     31 H          -2.7628    0.0934    3.7447 H       1  UNL11       0.0625
     32 H          -5.1632    0.1470    4.3147 H       1  UNL11       0.0647
     33 H          -3.7077    0.9666   -0.2768 H       1  UNL11       0.0654
     34 H           4.4116   -2.9329   -0.0742 H       1  UNL11       0.2365
@<TRIPOS>BOND
     1     1     2    2
     2     2     3    1
     3     2    16    1
     4     3     4    1
     5     3    24    1
     6     3    25    1
     7     4     5    1
     8     5     6    2
     9     5     7    1
    10     7     8   ar
    11     8     9   ar
    12     8    26    1
    13     9    10   ar
    14    10    11   ar
    15    11    12   ar
    16    11    27    1
    17    12    13   ar
    18    12    28    1
    19    13    14   ar
    20    13    29    1
    21    14    15   ar
    22    14    30    1
    23    15     7   ar
    24    15    10   ar
    25    16    17   ar
    26    17    18   ar
    27    17    31    1
    28    18    19   ar
    29    18    32    1
    30    19    20    1
    31    19    21   ar
    32    21    22    1
    33    21    23   ar
    34    23    16   ar
    35    23    33    1
    36     9    34    1
@<TRIPOS>MOLECULE
*****
 34 36 0 0 0
SMALL
GASTEIGER

@<TRIPOS>ATOM
      1 O          -0.9833   -1.9640   -1.9620 O.2     1  UNL11      -0.2884
      2 C          -1.6538   -0.9506   -1.7057 C.2     1  UNL11       0.2004
      3 C          -1.1980   -0.0479   -0.6137 C.3     1  UNL11       0.1552
      4 O           0.0088   -0.5520   -0.0223 O.3     1  UNL11      -0.4489
      5 C           1.1770    0.1540   -0.0090 C.2     1  UNL11       0.4075
      6 O           1.1545    1.4009    0.0118 O.2     1  UNL11      -0.2381
      7 C           2.5042   -0.5092   -0.0183 C.ar    1  UNL11       0.3224
      8 N           3.6282   -0.0200    0.5330 N.ar    1  UNL11      -0.1171
      9 N           4.5823   -0.8684    0.3286 N.ar    1  UNL11      -0.1639
     10 C           4.1465   -1.9394   -0.3540 C.ar    1  UNL11       0.1101
     11 C           4.7610   -3.0908   -0.8075 C.ar    1  UNL11      -0.0324
     12 C           3.9927   -4.0013   -1.4908 C.ar    1  UNL11      -0.0596
     13 C           2.6456   -3.7940   -1.7293 C.ar    1  UNL11      -0.0609
     14 C           2.0238   -2.6433   -1.2782 C.ar    1  UNL11      -0.0458
     15 C           2.8118   -1.7196   -0.5827 C.ar    1  UNL11       0.0841
     16 C          -2.8708   -0.5859   -2.4137 C.ar    1  UNL11       0.0237
     17 C          -3.7136   -1.5208   -2.9754 C.ar    1  UNL11      -0.0483
     18 C          -4.8620   -1.1744   -3.6433 C.ar    1  UNL11      -0.0229
     19 C          -5.2251    0.1386   -3.7822 C.ar    1  UNL11       0.1584
     20 F          -6.3447    0.4920   -4.4324 F       1  UNL11      -0.2025
     21 C          -4.4017    1.0953   -3.2308 C.ar    1  UNL11       0.1591
     22 F          -4.7509    2.3886   -3.3625 F       1  UNL11      -0.2025
     23 C          -3.2316    0.7360   -2.5506 C.ar    1  UNL11      -0.0130
     24 H          -0.9472    0.9526   -1.0226 H       1  UNL11       0.0782
     25 H          -1.9716    0.0947    0.1588 H       1  UNL11       0.0782
     26 H           3.6332    0.9175    1.0332 H       1  UNL11       0.4874
     27 H           5.8136   -3.2219   -0.6047 H       1  UNL11       0.0640
     28 H           4.5016   -4.9030   -1.8388 H       1  UNL11       0.0618
     29 H           2.0544   -4.5318   -2.2750 H       1  UNL11       0.0618
     30 H           0.9896   -2.4345   -1.4348 H       1  UNL11       0.0626
     31 H          -3.4191   -2.5657   -2.8614 H       1  UNL11       0.0625
     32 H          -5.4823   -1.9388   -4.0612 H       1  UNL11       0.0647
     33 H          -2.6138    1.5146   -2.1333 H       1  UNL11       0.0654
     34 H           5.5099   -0.7449    0.6344 H       1  UNL11       0.2365
@<TRIPOS>BOND
     1     1     2    2
     2     2     3    1
     3     2    16    1
     4     3     4    1
     5     3    24    1
     6     3    25    1
     7     4     5    1
     8     5     6    2
     9     5     7    1
    10     7     8   ar
    11     8     9   ar
    12     8    26    1
    13     9    10   ar
    14    10    11   ar
    15    11    12   ar
    16    11    27    1
    17    12    13   ar
    18    12    28    1
    19    13    14   ar
    20    13    29    1
    21    14    15   ar
    22    14    30    1
    23    15     7   ar
    24    15    10   ar
    25    16    17   ar
    26    17    18   ar
    27    17    31    1
    28    18    19   ar
    29    18    32    1
    30    19    20    1
    31    19    21   ar
    32    21    22    1
    33    21    23   ar
    34    23    16   ar
    35    23    33    1
    36     9    34    1
@<TRIPOS>MOLECULE
*****
 34 36 0 0 0
SMALL
GASTEIGER

@<TRIPOS>ATOM
      1 O          -0.6038    1.3307   -2.4252 O.2     1  UNL11      -0.2884
      2 C          -0.9936    0.2078   -2.0655 C.2     1  UNL11       0.2004
      3 C          -1.1980   -0.0479   -0.6137 C.3     1  UNL11       0.1552
      4 O           0.0088   -0.5520   -0.0223 O.3     1  UNL11      -0.4489
      5 C           1.1770    0.1540   -0.0090 C.2     1  UNL11       0.4075
      6 O           1.1545    1.4009    0.0118 O.2     1  UNL11      -0.2381
      7 C           2.5042   -0.5092   -0.0183 C.ar    1  UNL11       0.3224
      8 N           3.6303   -0.0006   -0.5474 N.ar    1  UNL11      -0.1171
      9 N           4.5836   -0.8559   -0.3697 N.ar    1  UNL11      -0.1639
     10 C           4.1454   -1.9504    0.2726 C.ar    1  UNL11       0.1101
     11 C           4.7582   -3.1173    0.6872 C.ar    1  UNL11      -0.0324
     12 C           3.9874   -4.0516    1.3346 C.ar    1  UNL11      -0.0596
     13 C           2.6393   -3.8529    1.5751 C.ar    1  UNL11      -0.0609
     14 C           2.0191   -2.6869    1.1627 C.ar    1  UNL11      -0.0458
     15 C           2.8098   -1.7391    0.5037 C.ar    1  UNL11       0.0841
     16 C          -1.2663   -0.8862   -2.9844 C.ar    1  UNL11       0.0237
     17 C          -1.6948   -0.6819   -4.2785 C.ar    1  UNL11      -0.0483
     18 C          -1.9516   -1.7159   -5.1443 C.ar    1  UNL11      -0.0229
     19 C          -1.7899   -3.0177   -4.7515 C.ar    1  UNL11       0.1584
     20 F          -2.0370   -4.0386   -5.5869 F       1  UNL11      -0.2025
     21 C          -1.3624   -3.2524   -3.4633 C.ar    1  UNL11       0.1591
     22 F          -1.2008   -4.5291   -3.0686 F       1  UNL11      -0.2025
     23 C          -1.1021   -2.1937   -2.5846 C.ar    1  UNL11      -0.0130
     24 H          -1.4280    0.9005   -0.0857 H       1  UNL11       0.0782
     25 H          -2.0341   -0.7418   -0.4268 H       1  UNL11       0.0782
     26 H           3.6372    0.9541   -1.0137 H       1  UNL11       0.4874
     27 H           5.8116   -3.2412    0.4839 H       1  UNL11       0.0640
     28 H           4.4951   -4.9651    1.6522 H       1  UNL11       0.0618
     29 H           2.0460   -4.6097    2.0918 H       1  UNL11       0.0618
     30 H           0.9843   -2.4838    1.3228 H       1  UNL11       0.0626
     31 H          -1.8218    0.3579   -4.5859 H       1  UNL11       0.0625
     32 H          -2.2823   -1.5037   -6.1389 H       1  UNL11       0.0647
     33 H          -0.7692   -2.4189   -1.5844 H       1  UNL11       0.0654
     34 H           5.5124   -0.7217   -0.6674 H       1  UNL11       0.2365
@<TRIPOS>BOND
     1     1     2    2
     2     2     3    1
     3     2    16    1
     4     3     4    1
     5     3    24    1
     6     3    25    1
     7     4     5    1
     8     5     6    2
     9     5     7    1
    10     7     8   ar
    11     8     9   ar
    12     8    26    1
    13     9    10   ar
    14    10    11   ar
    15    11    12   ar
    16    11    27    1
    17    12    13   ar
    18    12    28    1
    19    13    14   ar
    20    13    29    1
    21    14    15   ar
    22    14    30    1
    23    15     7   ar
    24    15    10   ar
    25    16    17   ar
    26    17    18   ar
    27    17    31    1
    28    18    19   ar
    29    18    32    1
    30    19    20    1
    31    19    21   ar
    32    21    22    1
    33    21    23   ar
    34    23    16   ar
    35    23    33    1
    36     9    34    1
@<TRIPOS>MOLECULE
*****
 34 36 0 0 0
SMALL
GASTEIGER

@<TRIPOS>ATOM
      1 O          -1.9393    0.6601   -2.7313 O.2     1  UNL11      -0.2884
      2 C          -0.9936    0.2078   -2.0655 C.2     1  UNL11       0.2004
      3 C          -1.1980   -0.0479   -0.6137 C.3     1  UNL11       0.1552
      4 O           0.0088   -0.5520   -0.0223 O.3     1  UNL11      -0.4489
      5 C           1.1770    0.1540   -0.0090 C.2     1  UNL11       0.4075
      6 O           1.1545    1.4009    0.0118 O.2     1  UNL11      -0.2381
      7 C           2.5042   -0.5092   -0.0183 C.ar    1  UNL11       0.3224
      8 N           3.6303   -0.0006   -0.5474 N.ar    1  UNL11      -0.1171
      9 N           4.5836   -0.8559   -0.3697 N.ar    1  UNL11      -0.1639
     10 C           4.1454   -1.9504    0.2726 C.ar    1  UNL11       0.1101
     11 C           4.7582   -3.1173    0.6872 C.ar    1  UNL11      -0.0324
     12 C           3.9874   -4.0516    1.3346 C.ar    1  UNL11      -0.0596
     13 C           2.6393   -3.8529    1.5751 C.ar    1  UNL11      -0.0609
     14 C           2.0191   -2.6869    1.1627 C.ar    1  UNL11      -0.0458
     15 C           2.8098   -1.7391    0.5037 C.ar    1  UNL11       0.0841
     16 C           0.3167   -0.0914   -2.6216 C.ar    1  UNL11       0.0237
     17 C           1.4769   -0.0009   -1.8831 C.ar    1  UNL11      -0.0483
     18 C           2.7127   -0.2838   -2.4100 C.ar    1  UNL11      -0.0229
     19 C           2.8472   -0.6749   -3.7154 C.ar    1  UNL11       0.1584
     20 F           4.0486   -0.9547   -4.2439 F       1  UNL11      -0.2025
     21 C           1.7043   -0.7742   -4.4779 C.ar    1  UNL11       0.1591
     22 F           1.8271   -1.1579   -5.7622 F       1  UNL11      -0.2025
     23 C           0.4465   -0.4844   -3.9350 C.ar    1  UNL11      -0.0130
     24 H          -1.4280    0.9005   -0.0857 H       1  UNL11       0.0782
     25 H          -2.0341   -0.7418   -0.4268 H       1  UNL11       0.0782
     26 H           3.6372    0.9541   -1.0137 H       1  UNL11       0.4874
     27 H           5.8116   -3.2412    0.4839 H       1  UNL11       0.0640
     28 H           4.4951   -4.9651    1.6522 H       1  UNL11       0.0618
     29 H           2.0460   -4.6097    2.0918 H       1  UNL11       0.0618
     30 H           0.9843   -2.4838    1.3228 H       1  UNL11       0.0626
     31 H           1.3635    0.3112   -0.8432 H       1  UNL11       0.0625
     32 H           3.5829   -0.1981   -1.7942 H       1  UNL11       0.0647
     33 H          -0.4239   -0.5740   -4.5646 H       1  UNL11       0.0654
     34 H           5.5124   -0.7217   -0.6674 H       1  UNL11       0.2365
@<TRIPOS>BOND
     1     1     2    2
     2     2     3    1
     3     2    16    1
     4     3     4    1
     5     3    24    1
     6     3    25    1
     7     4     5    1
     8     5     6    2
     9     5     7    1
    10     7     8   ar
    11     8     9   ar
    12     8    26    1
    13     9    10   ar
    14    10    11   ar
    15    11    12   ar
    16    11    27    1
    17    12    13   ar
    18    12    28    1
    19    13    14   ar
    20    13    29    1
    21    14    15   ar
    22    14    30    1
    23    15     7   ar
    24    15    10   ar
    25    16    17   ar
    26    17    18   ar
    27    17    31    1
    28    18    19   ar
    29    18    32    1
    30    19    20    1
    31    19    21   ar
    32    21    22    1
    33    21    23   ar
    34    23    16   ar
    35    23    33    1
    36     9    34    1
@<TRIPOS>MOLECULE
*****
 34 36 0 0 0
SMALL
GASTEIGER

@<TRIPOS>ATOM
      1 O          -2.2401   -0.4133   -2.6911 O.2     1  UNL11      -0.2884
      2 C          -1.1680   -0.2379   -2.0895 C.2     1  UNL11       0.2004
      3 C          -1.1980   -0.0479   -0.6137 C.3     1  UNL11       0.1552
      4 O           0.0088   -0.5520   -0.0223 O.3     1  UNL11      -0.4489
      5 C           1.1770    0.1540   -0.0090 C.2     1  UNL11       0.4075
      6 O           1.1545    1.4009    0.0118 O.2     1  UNL11      -0.2381
      7 C           2.5042   -0.5092   -0.0183 C.ar    1  UNL11       0.3224
      8 N           2.7846   -1.6925   -0.5910 N.ar    1  UNL11      -0.1171
      9 N           4.0371   -1.9493   -0.3979 N.ar    1  UNL11      -0.1639
     10 C           4.6358   -0.9693    0.2976 C.ar    1  UNL11       0.1101
     11 C           5.9281   -0.7769    0.7470 C.ar    1  UNL11      -0.0324
     12 C           6.1989    0.3726    1.4480 C.ar    1  UNL11      -0.0596
     13 C           5.2258    1.3213    1.7079 C.ar    1  UNL11      -0.0609
     14 C           3.9297    1.1352    1.2610 C.ar    1  UNL11      -0.0458
     15 C           3.6601   -0.0379    0.5474 C.ar    1  UNL11       0.0841
     16 C           0.1306   -0.2059   -2.7439 C.ar    1  UNL11       0.0237
     17 C           0.4007   -0.9117   -3.8966 C.ar    1  UNL11      -0.0483
     18 C           1.6271   -0.8801   -4.5127 C.ar    1  UNL11      -0.0229
     19 C           2.6526   -0.1324   -3.9985 C.ar    1  UNL11       0.1584
     20 F           3.8566   -0.0919   -4.5899 F       1  UNL11      -0.2025
     21 C           2.4117    0.5838   -2.8468 C.ar    1  UNL11       0.1591
     22 F           3.4141    1.3215   -2.3343 F       1  UNL11      -0.2025
     23 C           1.1587    0.5477   -2.2228 C.ar    1  UNL11      -0.0130
     24 H          -1.2349    1.0331   -0.3667 H       1  UNL11       0.0782
     25 H          -2.0783   -0.5234   -0.1505 H       1  UNL11       0.0782
     26 H           2.0350   -2.2509   -1.0962 H       1  UNL11       0.4874
     27 H           6.6637   -1.5365    0.5274 H       1  UNL11       0.0640
     28 H           7.2276    0.5012    1.7923 H       1  UNL11       0.0618
     29 H           5.4640    2.2279    2.2673 H       1  UNL11       0.0618
     30 H           3.1428    1.8341    1.4337 H       1  UNL11       0.0626
     31 H          -0.4206   -1.5058   -4.3018 H       1  UNL11       0.0625
     32 H           1.7854   -1.4463   -5.4061 H       1  UNL11       0.0647
     33 H           1.0101    1.1222   -1.3228 H       1  UNL11       0.0654
     34 H           4.4934   -2.7601   -0.7199 H       1  UNL11       0.2365
@<TRIPOS>BOND
     1     1     2    2
     2     2     3    1
     3     2    16    1
     4     3     4    1
     5     3    24    1
     6     3    25    1
     7     4     5    1
     8     5     6    2
     9     5     7    1
    10     7     8   ar
    11     8     9   ar
    12     8    26    1
    13     9    10   ar
    14    10    11   ar
    15    11    12   ar
    16    11    27    1
    17    12    13   ar
    18    12    28    1
    19    13    14   ar
    20    13    29    1
    21    14    15   ar
    22    14    30    1
    23    15     7   ar
    24    15    10   ar
    25    16    17   ar
    26    17    18   ar
    27    17    31    1
    28    18    19   ar
    29    18    32    1
    30    19    20    1
    31    19    21   ar
    32    21    22    1
    33    21    23   ar
    34    23    16   ar
    35    23    33    1
    36     9    34    1
@<TRIPOS>MOLECULE
*****
 34 36 0 0 0
SMALL
GASTEIGER

@<TRIPOS>ATOM
      1 O          -0.6038    1.3307   -2.4252 O.2     1  UNL11      -0.2884
      2 C          -0.9936    0.2078   -2.0655 C.2     1  UNL11       0.2004
      3 C          -1.1980   -0.0479   -0.6137 C.3     1  UNL11       0.1552
      4 O           0.0088   -0.5520   -0.0223 O.3     1  UNL11      -0.4489
      5 C           1.1770    0.1540   -0.0090 C.2     1  UNL11       0.4075
      6 O           1.1545    1.4009    0.0118 O.2     1  UNL11      -0.2381
      7 C           2.5042   -0.5092   -0.0183 C.ar    1  UNL11       0.3224
      8 N           3.6303   -0.0006   -0.5474 N.ar    1  UNL11      -0.1171
      9 N           4.5836   -0.8559   -0.3697 N.ar    1  UNL11      -0.1639
     10 C           4.1454   -1.9504    0.2726 C.ar    1  UNL11       0.1101
     11 C           4.7582   -3.1173    0.6872 C.ar    1  UNL11      -0.0324
     12 C           3.9874   -4.0516    1.3346 C.ar    1  UNL11      -0.0596
     13 C           2.6393   -3.8529    1.5751 C.ar    1  UNL11      -0.0609
     14 C           2.0191   -2.6869    1.1627 C.ar    1  UNL11      -0.0458
     15 C           2.8098   -1.7391    0.5037 C.ar    1  UNL11       0.0841
     16 C          -1.2663   -0.8862   -2.9844 C.ar    1  UNL11       0.0237
     17 C          -2.2160   -1.8523   -2.7305 C.ar    1  UNL11      -0.0483
     18 C          -2.4718   -2.8841   -3.5993 C.ar    1  UNL11      -0.0229
     19 C          -1.7815   -2.9989   -4.7764 C.ar    1  UNL11       0.1584
     20 F          -2.0209   -4.0020   -5.6352 F       1  UNL11      -0.2025
     21 C          -0.8260   -2.0473   -5.0570 C.ar    1  UNL11       0.1591
     22 F          -0.1425   -2.1524   -6.2119 F       1  UNL11      -0.2025
     23 C          -0.5694   -0.9972   -4.1670 C.ar    1  UNL11      -0.0130
     24 H          -1.4280    0.9005   -0.0857 H       1  UNL11       0.0782
     25 H          -2.0341   -0.7418   -0.4268 H       1  UNL11       0.0782
     26 H           3.6372    0.9541   -1.0137 H       1  UNL11       0.4874
     27 H           5.8116   -3.2412    0.4839 H       1  UNL11       0.0640
     28 H           4.4951   -4.9651    1.6522 H       1  UNL11       0.0618
     29 H           2.0460   -4.6097    2.0918 H       1  UNL11       0.0618
     30 H           0.9843   -2.4838    1.3228 H       1  UNL11       0.0626
     31 H          -2.7630   -1.7555   -1.7908 H       1  UNL11       0.0625
     32 H          -3.2197   -3.6086   -3.3552 H       1  UNL11       0.0647
     33 H           0.1865   -0.2726   -4.4230 H       1  UNL11       0.0654
     34 H           5.5124   -0.7217   -0.6674 H       1  UNL11       0.2365
@<TRIPOS>BOND
     1     1     2    2
     2     2     3    1
     3     2    16    1
     4     3     4    1
     5     3    24    1
     6     3    25    1
     7     4     5    1
     8     5     6    2
     9     5     7    1
    10     7     8   ar
    11     8     9   ar
    12     8    26    1
    13     9    10   ar
    14    10    11   ar
    15    11    12   ar
    16    11    27    1
    17    12    13   ar
    18    12    28    1
    19    13    14   ar
    20    13    29    1
    21    14    15   ar
    22    14    30    1
    23    15     7   ar
    24    15    10   ar
    25    16    17   ar
    26    17    18   ar
    27    17    31    1
    28    18    19   ar
    29    18    32    1
    30    19    20    1
    31    19    21   ar
    32    21    22    1
    33    21    23   ar
    34    23    16   ar
    35    23    33    1
    36     9    34    1
@<TRIPOS>MOLECULE
*****
 34 36 0 0 0
SMALL
GASTEIGER

@<TRIPOS>ATOM
      1 O          -2.3670    1.4910    1.5207 O.2     1  UNL11      -0.2884
      2 C          -1.6452    0.4922    1.3671 C.2     1  UNL11       0.2004
      3 C          -1.2809    0.0779   -0.0151 C.3     1  UNL11       0.1552
      4 O           0.0088   -0.5520   -0.0223 O.3     1  UNL11      -0.4489
      5 C           1.1770    0.1540   -0.0090 C.2     1  UNL11       0.4075
      6 O           1.1545    1.4009    0.0118 O.2     1  UNL11      -0.2381
      7 C           2.5042   -0.5092   -0.0183 C.ar    1  UNL11       0.3224
      8 N           3.6282   -0.0200    0.5330 N.ar    1  UNL11      -0.1171
      9 N           4.5823   -0.8684    0.3286 N.ar    1  UNL11      -0.1639
     10 C           4.1465   -1.9394   -0.3540 C.ar    1  UNL11       0.1101
     11 C           4.7610   -3.0908   -0.8075 C.ar    1  UNL11      -0.0324
     12 C           3.9927   -4.0013   -1.4908 C.ar    1  UNL11      -0.0596
     13 C           2.6456   -3.7940   -1.7293 C.ar    1  UNL11      -0.0609
     14 C           2.0238   -2.6433   -1.2782 C.ar    1  UNL11      -0.0458
     15 C           2.8118   -1.7196   -0.5827 C.ar    1  UNL11       0.0841
     16 C          -1.1272   -0.3077    2.4659 C.ar    1  UNL11       0.0237
     17 C          -0.8621    0.2209    3.7110 C.ar    1  UNL11      -0.0483
     18 C          -0.3732   -0.5360    4.7468 C.ar    1  UNL11      -0.0229
     19 C          -0.1237   -1.8725    4.5837 C.ar    1  UNL11       0.1584
     20 F           0.3541   -2.6247    5.5871 F       1  UNL11      -0.2025
     21 C          -0.3794   -2.4285    3.3496 C.ar    1  UNL11       0.1591
     22 F          -0.1371   -3.7416    3.1803 F       1  UNL11      -0.2025
     23 C          -0.8781   -1.6515    2.2968 C.ar    1  UNL11      -0.0130
     24 H          -1.9978   -0.6817   -0.3894 H       1  UNL11       0.0782
     25 H          -1.2969    0.9244   -0.7214 H       1  UNL11       0.0782
     26 H           3.6332    0.9175    1.0332 H       1  UNL11       0.4874
     27 H           5.8136   -3.2219   -0.6047 H       1  UNL11       0.0640
     28 H           4.5016   -4.9030   -1.8388 H       1  UNL11       0.0618
     29 H           2.0544   -4.5318   -2.2750 H       1  UNL11       0.0618
     30 H           0.9896   -2.4345   -1.4348 H       1  UNL11       0.0626
     31 H          -1.0629    1.2867    3.8350 H       1  UNL11       0.0625
     32 H          -0.1841   -0.0773    5.6942 H       1  UNL11       0.0647
     33 H          -1.0651   -2.1240    1.3461 H       1  UNL11       0.0654
     34 H           5.5099   -0.7449    0.6344 H       1  UNL11       0.2365
@<TRIPOS>BOND
     1     1     2    2
     2     2     3    1
     3     2    16    1
     4     3     4    1
     5     3    24    1
     6     3    25    1
     7     4     5    1
     8     5     6    2
     9     5     7    1
    10     7     8   ar
    11     8     9   ar
    12     8    26    1
    13     9    10   ar
    14    10    11   ar
    15    11    12   ar
    16    11    27    1
    17    12    13   ar
    18    12    28    1
    19    13    14   ar
    20    13    29    1
    21    14    15   ar
    22    14    30    1
    23    15     7   ar
    24    15    10   ar
    25    16    17   ar
    26    17    18   ar
    27    17    31    1
    28    18    19   ar
    29    18    32    1
    30    19    20    1
    31    19    21   ar
    32    21    22    1
    33    21    23   ar
    34    23    16   ar
    35    23    33    1
    36     9    34    1
@<TRIPOS>MOLECULE
*****
 34 36 0 0 0
SMALL
GASTEIGER

@<TRIPOS>ATOM
      1 O           0.4714   -1.9197    2.1354 O.2     1  UNL11      -0.2884
      2 C          -0.5876   -1.2732    2.1870 C.2     1  UNL11       0.2004
      3 C          -0.9776   -0.4433    1.0147 C.3     1  UNL11       0.1552
      4 O           0.0088   -0.5520   -0.0223 O.3     1  UNL11      -0.4489
      5 C           1.1770    0.1540   -0.0090 C.2     1  UNL11       0.4075
      6 O           1.1545    1.4009    0.0118 O.2     1  UNL11      -0.2381
      7 C           2.5042   -0.5092   -0.0183 C.ar    1  UNL11       0.3224
      8 N           2.7846   -1.6925   -0.5910 N.ar    1  UNL11      -0.1171
      9 N           4.0371   -1.9493   -0.3979 N.ar    1  UNL11      -0.1639
     10 C           4.6358   -0.9693    0.2976 C.ar    1  UNL11       0.1101
     11 C           5.9281   -0.7769    0.7470 C.ar    1  UNL11      -0.0324
     12 C           6.1989    0.3726    1.4480 C.ar    1  UNL11      -0.0596
     13 C           5.2258    1.3213    1.7079 C.ar    1  UNL11      -0.0609
     14 C           3.9297    1.1352    1.2610 C.ar    1  UNL11      -0.0458
     15 C           3.6601   -0.0379    0.5474 C.ar    1  UNL11       0.0841
     16 C          -1.4815   -1.2758    3.3344 C.ar    1  UNL11       0.0237
     17 C          -1.0352   -1.4616    4.6251 C.ar    1  UNL11      -0.0483
     18 C          -1.8807   -1.4637    5.7068 C.ar    1  UNL11      -0.0229
     19 C          -3.2278   -1.2780    5.5459 C.ar    1  UNL11       0.1584
     20 F          -4.0662   -1.2776    6.5938 F       1  UNL11      -0.2025
     21 C          -3.7028   -1.0898    4.2667 C.ar    1  UNL11       0.1591
     22 F          -5.0257   -0.9065    4.0992 F       1  UNL11      -0.2025
     23 C          -2.8356   -1.0886    3.1673 C.ar    1  UNL11      -0.0130
     24 H          -1.9268   -0.8174    0.5786 H       1  UNL11       0.0782
     25 H          -1.1322    0.6140    1.2860 H       1  UNL11       0.0782
     26 H           2.0350   -2.2509   -1.0962 H       1  UNL11       0.4874
     27 H           6.6637   -1.5365    0.5274 H       1  UNL11       0.0640
     28 H           7.2276    0.5012    1.7923 H       1  UNL11       0.0618
     29 H           5.4640    2.2279    2.2673 H       1  UNL11       0.0618
     30 H           3.1428    1.8341    1.4337 H       1  UNL11       0.0626
     31 H           0.0396   -1.6090    4.7472 H       1  UNL11       0.0625
     32 H          -1.4836   -1.6122    6.6887 H       1  UNL11       0.0647
     33 H          -3.2464   -0.9380    2.1821 H       1  UNL11       0.0654
     34 H           4.4934   -2.7601   -0.7199 H       1  UNL11       0.2365
@<TRIPOS>BOND
     1     1     2    2
     2     2     3    1
     3     2    16    1
     4     3     4    1
     5     3    24    1
     6     3    25    1
     7     4     5    1
     8     5     6    2
     9     5     7    1
    10     7     8   ar
    11     8     9   ar
    12     8    26    1
    13     9    10   ar
    14    10    11   ar
    15    11    12   ar
    16    11    27    1
    17    12    13   ar
    18    12    28    1
    19    13    14   ar
    20    13    29    1
    21    14    15   ar
    22    14    30    1
    23    15     7   ar
    24    15    10   ar
    25    16    17   ar
    26    17    18   ar
    27    17    31    1
    28    18    19   ar
    29    18    32    1
    30    19    20    1
    31    19    21   ar
    32    21    22    1
    33    21    23   ar
    34    23    16   ar
    35    23    33    1
    36     9    34    1
@<TRIPOS>MOLECULE
*****
 34 36 0 0 0
SMALL
GASTEIGER

@<TRIPOS>ATOM
      1 O          -1.3483   -2.1836    2.5539 O.2     1  UNL11      -0.2884
      2 C          -0.5876   -1.2732    2.1870 C.2     1  UNL11       0.2004
      3 C          -0.9776   -0.4433    1.0147 C.3     1  UNL11       0.1552
      4 O           0.0088   -0.5520   -0.0223 O.3     1  UNL11      -0.4489
      5 C           1.1770    0.1540   -0.0090 C.2     1  UNL11       0.4075
      6 O           1.1545    1.4009    0.0118 O.2     1  UNL11      -0.2381
      7 C           2.5042   -0.5092   -0.0183 C.ar    1  UNL11       0.3224
      8 N           2.7825   -1.7122    0.5128 N.ar    1  UNL11      -0.1171
      9 N           4.0357   -1.9621    0.3154 N.ar    1  UNL11      -0.1639
     10 C           4.6370   -0.9580   -0.3425 C.ar    1  UNL11       0.1101
     11 C           5.9309   -0.7498   -0.7799 C.ar    1  UNL11      -0.0324
     12 C           6.2044    0.4240   -1.4383 C.ar    1  UNL11      -0.0596
     13 C           5.2322    1.3815   -1.6678 C.ar    1  UNL11      -0.0609
     14 C           3.9345    1.1797   -1.2326 C.ar    1  UNL11      -0.0458
     15 C           3.6623   -0.0181   -0.5624 C.ar    1  UNL11       0.0841
     16 C           0.6753   -0.9629    2.8384 C.ar    1  UNL11       0.0237
     17 C           1.4350   -1.9164    3.4814 C.ar    1  UNL11      -0.0483
     18 C           2.6269   -1.6215    4.0956 C.ar    1  UNL11      -0.0229
     19 C           3.1202   -0.3440    4.0953 C.ar    1  UNL11       0.1584
     20 F           4.2837   -0.0410    4.6915 F       1  UNL11      -0.2025
     21 C           2.3821    0.6302    3.4600 C.ar    1  UNL11       0.1591
     22 F           2.8595    1.8887    3.4548 F       1  UNL11      -0.2025
     23 C           1.1671    0.3233    2.8352 C.ar    1  UNL11      -0.0130
     24 H          -1.9268   -0.8174    0.5786 H       1  UNL11       0.0782
     25 H          -1.1322    0.6140    1.2860 H       1  UNL11       0.0782
     26 H           2.0310   -2.2884    0.9948 H       1  UNL11       0.4874
     27 H           6.6658   -1.5168   -0.5847 H       1  UNL11       0.0640
     28 H           7.2343    0.5647   -1.7740 H       1  UNL11       0.0618
     29 H           5.4725    2.3075   -2.1936 H       1  UNL11       0.0618
     30 H           3.1482    1.8844   -1.3833 H       1  UNL11       0.0626
     31 H           1.0368   -2.9328    3.4783 H       1  UNL11       0.0625
     32 H           3.1786   -2.3983    4.5812 H       1  UNL11       0.0647
     33 H           0.6192    1.1141    2.3488 H       1  UNL11       0.0654
     34 H           4.4909   -2.7839    0.6100 H       1  UNL11       0.2365
@<TRIPOS>BOND
     1     1     2    2
     2     2     3    1
     3     2    16    1
     4     3     4    1
     5     3    24    1
     6     3    25    1
     7     4     5    1
     8     5     6    2
     9     5     7    1
    10     7     8   ar
    11     8     9   ar
    12     8    26    1
    13     9    10   ar
    14    10    11   ar
    15    11    12   ar
    16    11    27    1
    17    12    13   ar
    18    12    28    1
    19    13    14   ar
    20    13    29    1
    21    14    15   ar
    22    14    30    1
    23    15     7   ar
    24    15    10   ar
    25    16    17   ar
    26    17    18   ar
    27    17    31    1
    28    18    19   ar
    29    18    32    1
    30    19    20    1
    31    19    21   ar
    32    21    22    1
    33    21    23   ar
    34    23    16   ar
    35    23    33    1
    36     9    34    1
@<TRIPOS>MOLECULE
*****
 34 36 0 0 0
SMALL
GASTEIGER

@<TRIPOS>ATOM
      1 O          -0.4328   -2.4951    2.0289 O.2     1  UNL11      -0.2884
      2 C          -0.5876   -1.2732    2.1870 C.2     1  UNL11       0.2004
      3 C          -0.9776   -0.4433    1.0147 C.3     1  UNL11       0.1552
      4 O           0.0088   -0.5520   -0.0223 O.3     1  UNL11      -0.4489
      5 C           1.1770    0.1540   -0.0090 C.2     1  UNL11       0.4075
      6 O           1.1545    1.4009    0.0118 O.2     1  UNL11      -0.2381
      7 C           2.5042   -0.5092   -0.0183 C.ar    1  UNL11       0.3224
      8 N           2.7825   -1.7122    0.5128 N.ar    1  UNL11      -0.1171
      9 N           4.0357   -1.9621    0.3154 N.ar    1  UNL11      -0.1639
     10 C           4.6370   -0.9580   -0.3425 C.ar    1  UNL11       0.1101
     11 C           5.9309   -0.7498   -0.7799 C.ar    1  UNL11      -0.0324
     12 C           6.2044    0.4240   -1.4383 C.ar    1  UNL11      -0.0596
     13 C           5.2322    1.3815   -1.6678 C.ar    1  UNL11      -0.0609
     14 C           3.9345    1.1797   -1.2326 C.ar    1  UNL11      -0.0458
     15 C           3.6623   -0.0181   -0.5624 C.ar    1  UNL11       0.0841
     16 C          -0.4098   -0.5937    3.4607 C.ar    1  UNL11       0.0237
     17 C          -0.6374   -1.2112    4.6718 C.ar    1  UNL11      -0.0483
     18 C          -0.4689   -0.5681    5.8729 C.ar    1  UNL11      -0.0229
     19 C          -0.0600    0.7380    5.9192 C.ar    1  UNL11       0.1584
     20 F           0.1089    1.3794    7.0859 F       1  UNL11      -0.2025
     21 C           0.1753    1.3810    4.7240 C.ar    1  UNL11       0.1591
     22 F           0.5775    2.6650    4.7601 F       1  UNL11      -0.2025
     23 C           0.0016    0.7198    3.5019 C.ar    1  UNL11      -0.0130
     24 H          -1.9268   -0.8174    0.5786 H       1  UNL11       0.0782
     25 H          -1.1322    0.6140    1.2860 H       1  UNL11       0.0782
     26 H           2.0310   -2.2884    0.9948 H       1  UNL11       0.4874
     27 H           6.6658   -1.5168   -0.5847 H       1  UNL11       0.0640
     28 H           7.2343    0.5647   -1.7740 H       1  UNL11       0.0618
     29 H           5.4725    2.3075   -2.1936 H       1  UNL11       0.0618
     30 H           3.1482    1.8844   -1.3833 H       1  UNL11       0.0626
     31 H          -0.9631   -2.2523    4.6285 H       1  UNL11       0.0625
     32 H          -0.6590   -1.0925    6.7854 H       1  UNL11       0.0647
     33 H           0.1961    1.2579    2.5883 H       1  UNL11       0.0654
     34 H           4.4909   -2.7839    0.6100 H       1  UNL11       0.2365
@<TRIPOS>BOND
     1     1     2    2
     2     2     3    1
     3     2    16    1
     4     3     4    1
     5     3    24    1
     6     3    25    1
     7     4     5    1
     8     5     6    2
     9     5     7    1
    10     7     8   ar
    11     8     9   ar
    12     8    26    1
    13     9    10   ar
    14    10    11   ar
    15    11    12   ar
    16    11    27    1
    17    12    13   ar
    18    12    28    1
    19    13    14   ar
    20    13    29    1
    21    14    15   ar
    22    14    30    1
    23    15     7   ar
    24    15    10   ar
    25    16    17   ar
    26    17    18   ar
    27    17    31    1
    28    18    19   ar
    29    18    32    1
    30    19    20    1
    31    19    21   ar
    32    21    22    1
    33    21    23   ar
    34    23    16   ar
    35    23    33    1
    36     9    34    1
@<TRIPOS>MOLECULE
*****
 34 36 0 0 0
SMALL
GASTEIGER

@<TRIPOS>ATOM
      1 O          -1.9320   -2.1290   -1.4296 O.2     1  UNL11      -0.2884
      2 C          -1.6538   -0.9506   -1.7057 C.2     1  UNL11       0.2004
      3 C          -1.1980   -0.0479   -0.6137 C.3     1  UNL11       0.1552
      4 O           0.0088   -0.5520   -0.0223 O.3     1  UNL11      -0.4489
      5 C           1.1770    0.1540   -0.0090 C.2     1  UNL11       0.4075
      6 O           1.1545    1.4009    0.0118 O.2     1  UNL11      -0.2381
      7 C           2.5042   -0.5092   -0.0183 C.ar    1  UNL11       0.3224
      8 N           2.7846   -1.6925   -0.5910 N.ar    1  UNL11      -0.1171
      9 N           4.0371   -1.9493   -0.3979 N.ar    1  UNL11      -0.1639
     10 C           4.6358   -0.9693    0.2976 C.ar    1  UNL11       0.1101
     11 C           5.9281   -0.7769    0.7470 C.ar    1  UNL11      -0.0324
     12 C           6.1989    0.3726    1.4480 C.ar    1  UNL11      -0.0596
     13 C           5.2258    1.3213    1.7079 C.ar    1  UNL11      -0.0609
     14 C           3.9297    1.1352    1.2610 C.ar    1  UNL11      -0.0458
     15 C           3.6601   -0.0379    0.5474 C.ar    1  UNL11       0.0841
     16 C          -1.7463   -0.3903   -3.0447 C.ar    1  UNL11       0.0237
     17 C          -2.1572   -1.1287   -4.1337 C.ar    1  UNL11      -0.0483
     18 C          -2.2439   -0.5978   -5.3968 C.ar    1  UNL11      -0.0229
     19 C          -1.9198    0.7116   -5.6324 C.ar    1  UNL11       0.1584
     20 F          -1.9998    1.2440   -6.8617 F       1  UNL11      -0.2025
     21 C          -1.5058    1.4741   -4.5625 C.ar    1  UNL11       0.1591
     22 F          -1.1852    2.7624   -4.7849 F       1  UNL11      -0.2025
     23 C          -1.4193    0.9272   -3.2764 C.ar    1  UNL11      -0.0130
     24 H          -0.9472    0.9526   -1.0226 H       1  UNL11       0.0782
     25 H          -1.9716    0.0947    0.1588 H       1  UNL11       0.0782
     26 H           2.0350   -2.2509   -1.0962 H       1  UNL11       0.4874
     27 H           6.6637   -1.5365    0.5274 H       1  UNL11       0.0640
     28 H           7.2276    0.5012    1.7923 H       1  UNL11       0.0618
     29 H           5.4640    2.2279    2.2673 H       1  UNL11       0.0618
     30 H           3.1428    1.8341    1.4337 H       1  UNL11       0.0626
     31 H          -2.4142   -2.1718   -3.9398 H       1  UNL11       0.0625
     32 H          -2.5686   -1.2137   -6.2087 H       1  UNL11       0.0647
     33 H          -1.0909    1.5569   -2.4654 H       1  UNL11       0.0654
     34 H           4.4934   -2.7601   -0.7199 H       1  UNL11       0.2365
@<TRIPOS>BOND
     1     1     2    2
     2     2     3    1
     3     2    16    1
     4     3     4    1
     5     3    24    1
     6     3    25    1
     7     4     5    1
     8     5     6    2
     9     5     7    1
    10     7     8   ar
    11     8     9   ar
    12     8    26    1
    13     9    10   ar
    14    10    11   ar
    15    11    12   ar
    16    11    27    1
    17    12    13   ar
    18    12    28    1
    19    13    14   ar
    20    13    29    1
    21    14    15   ar
    22    14    30    1
    23    15     7   ar
    24    15    10   ar
    25    16    17   ar
    26    17    18   ar
    27    17    31    1
    28    18    19   ar
    29    18    32    1
    30    19    20    1
    31    19    21   ar
    32    21    22    1
    33    21    23   ar
    34    23    16   ar
    35    23    33    1
    36     9    34    1
@<TRIPOS>MOLECULE
*****
 34 36 0 0 0
SMALL
GASTEIGER

@<TRIPOS>ATOM
      1 O          -3.2877   -0.3634   -1.1610 O.2     1  UNL11      -0.2884
      2 C          -2.0492   -0.3052   -1.2308 C.2     1  UNL11       0.2004
      3 C          -1.2809    0.0779   -0.0151 C.3     1  UNL11       0.1552
      4 O           0.0088   -0.5520   -0.0223 O.3     1  UNL11      -0.4489
      5 C           1.1770    0.1540   -0.0090 C.2     1  UNL11       0.4075
      6 O           1.1545    1.4009    0.0118 O.2     1  UNL11      -0.2381
      7 C           2.5042   -0.5092   -0.0183 C.ar    1  UNL11       0.3224
      8 N           3.6932    0.1176   -0.0048 N.ar    1  UNL11      -0.1171
      9 N           4.6243   -0.7795   -0.0190 N.ar    1  UNL11      -0.1639
     10 C           4.1089   -2.0191   -0.0421 C.ar    1  UNL11       0.1101
     11 C           4.6711   -3.2810   -0.0635 C.ar    1  UNL11      -0.0324
     12 C           3.8229   -4.3609   -0.0844 C.ar    1  UNL11      -0.0596
     13 C           2.4470   -4.2146   -0.0845 C.ar    1  UNL11      -0.0609
     14 C           1.8771   -2.9540   -0.0632 C.ar    1  UNL11      -0.0458
     15 C           2.7465   -1.8579   -0.0419 C.ar    1  UNL11       0.0841
     16 C          -1.2931   -0.5914   -2.4399 C.ar    1  UNL11       0.0237
     17 C          -1.7317   -1.4783   -3.3995 C.ar    1  UNL11      -0.0483
     18 C          -1.0165   -1.7470   -4.5402 C.ar    1  UNL11      -0.0229
     19 C           0.1848   -1.1338   -4.7770 C.ar    1  UNL11       0.1584
     20 F           0.8948   -1.3866   -5.8874 F       1  UNL11      -0.2025
     21 C           0.6484   -0.2421   -3.8350 C.ar    1  UNL11       0.1591
     22 F           1.8285    0.3653   -4.0595 F       1  UNL11      -0.2025
     23 C          -0.0855    0.0279   -2.6734 C.ar    1  UNL11      -0.0130
     24 H          -1.0908    1.1711   -0.0102 H       1  UNL11       0.0782
     25 H          -1.8214   -0.1681    0.9138 H       1  UNL11       0.0782
     26 H           3.7563    1.1781    0.0143 H       1  UNL11       0.4874
     27 H           5.7482   -3.3604   -0.0628 H       1  UNL11       0.0640
     28 H           4.2918   -5.3473   -0.1011 H       1  UNL11       0.0618
     29 H           1.7919   -5.0877   -0.1013 H       1  UNL11       0.0618
     30 H           0.8238   -2.7856   -0.0622 H       1  UNL11       0.0626
     31 H          -2.6899   -1.9639   -3.2054 H       1  UNL11       0.0625
     32 H          -1.4011   -2.4440   -5.2543 H       1  UNL11       0.0647
     33 H           0.3115    0.7322   -1.9603 H       1  UNL11       0.0654
     34 H           5.5882   -0.5792   -0.0136 H       1  UNL11       0.2365
@<TRIPOS>BOND
     1     1     2    2
     2     2     3    1
     3     2    16    1
     4     3     4    1
     5     3    24    1
     6     3    25    1
     7     4     5    1
     8     5     6    2
     9     5     7    1
    10     7     8   ar
    11     8     9   ar
    12     8    26    1
    13     9    10   ar
    14    10    11   ar
    15    11    12   ar
    16    11    27    1
    17    12    13   ar
    18    12    28    1
    19    13    14   ar
    20    13    29    1
    21    14    15   ar
    22    14    30    1
    23    15     7   ar
    24    15    10   ar
    25    16    17   ar
    26    17    18   ar
    27    17    31    1
    28    18    19   ar
    29    18    32    1
    30    19    20    1
    31    19    21   ar
    32    21    22    1
    33    21    23   ar
    34    23    16   ar
    35    23    33    1
    36     9    34    1
@<TRIPOS>MOLECULE
*****
 34 36 0 0 0
SMALL
GASTEIGER

@<TRIPOS>ATOM
      1 O          -2.4300   -1.8794   -1.4281 O.2     1  UNL11      -0.2884
      2 C          -1.6538   -0.9506   -1.7057 C.2     1  UNL11       0.2004
      3 C          -1.1980   -0.0479   -0.6137 C.3     1  UNL11       0.1552
      4 O           0.0088   -0.5520   -0.0223 O.3     1  UNL11      -0.4489
      5 C           1.1770    0.1540   -0.0090 C.2     1  UNL11       0.4075
      6 O           1.1545    1.4009    0.0118 O.2     1  UNL11      -0.2381
      7 C           2.5042   -0.5092   -0.0183 C.ar    1  UNL11       0.3224
      8 N           3.6303   -0.0006   -0.5474 N.ar    1  UNL11      -0.1171
      9 N           4.5836   -0.8559   -0.3697 N.ar    1  UNL11      -0.1639
     10 C           4.1454   -1.9504    0.2726 C.ar    1  UNL11       0.1101
     11 C           4.7582   -3.1173    0.6872 C.ar    1  UNL11      -0.0324
     12 C           3.9874   -4.0516    1.3346 C.ar    1  UNL11      -0.0596
     13 C           2.6393   -3.8529    1.5751 C.ar    1  UNL11      -0.0609
     14 C           2.0191   -2.6869    1.1627 C.ar    1  UNL11      -0.0458
     15 C           2.8098   -1.7391    0.5037 C.ar    1  UNL11       0.0841
     16 C          -1.1560   -0.6862   -3.0465 C.ar    1  UNL11       0.0237
     17 C          -1.5094   -1.4527   -4.1362 C.ar    1  UNL11      -0.0483
     18 C          -1.0384   -1.2014   -5.4010 C.ar    1  UNL11      -0.0229
     19 C          -0.1820   -0.1595   -5.6377 C.ar    1  UNL11       0.1584
     20 F           0.2864    0.0982   -6.8686 F       1  UNL11      -0.2025
     21 C           0.1887    0.6241   -4.5672 C.ar    1  UNL11       0.1591
     22 F           1.0303    1.6506   -4.7906 F       1  UNL11      -0.2025
     23 C          -0.2949    0.3629   -3.2793 C.ar    1  UNL11      -0.0130
     24 H          -0.9472    0.9526   -1.0226 H       1  UNL11       0.0782
     25 H          -1.9716    0.0947    0.1588 H       1  UNL11       0.0782
     26 H           3.6372    0.9541   -1.0137 H       1  UNL11       0.4874
     27 H           5.8116   -3.2412    0.4839 H       1  UNL11       0.0640
     28 H           4.4951   -4.9651    1.6522 H       1  UNL11       0.0618
     29 H           2.0460   -4.6097    2.0918 H       1  UNL11       0.0618
     30 H           0.9843   -2.4838    1.3228 H       1  UNL11       0.0626
     31 H          -2.1923   -2.2818   -3.9414 H       1  UNL11       0.0625
     32 H          -1.3434   -1.8266   -6.2134 H       1  UNL11       0.0647
     33 H           0.0189    0.9994   -2.4678 H       1  UNL11       0.0654
     34 H           5.5124   -0.7217   -0.6674 H       1  UNL11       0.2365
@<TRIPOS>BOND
     1     1     2    2
     2     2     3    1
     3     2    16    1
     4     3     4    1
     5     3    24    1
     6     3    25    1
     7     4     5    1
     8     5     6    2
     9     5     7    1
    10     7     8   ar
    11     8     9   ar
    12     8    26    1
    13     9    10   ar
    14    10    11   ar
    15    11    12   ar
    16    11    27    1
    17    12    13   ar
    18    12    28    1
    19    13    14   ar
    20    13    29    1
    21    14    15   ar
    22    14    30    1
    23    15     7   ar
    24    15    10   ar
    25    16    17   ar
    26    17    18   ar
    27    17    31    1
    28    18    19   ar
    29    18    32    1
    30    19    20    1
    31    19    21   ar
    32    21    22    1
    33    21    23   ar
    34    23    16   ar
    35    23    33    1
    36     9    34    1
@<TRIPOS>MOLECULE
*****
 34 36 0 0 0
SMALL
GASTEIGER

@<TRIPOS>ATOM
      1 O          -2.3093   -1.5047   -1.4196 O.2     1  UNL11      -0.2884
      2 C          -2.0492   -0.3052   -1.2308 C.2     1  UNL11       0.2004
      3 C          -1.2809    0.0779   -0.0151 C.3     1  UNL11       0.1552
      4 O           0.0088   -0.5520   -0.0223 O.3     1  UNL11      -0.4489
      5 C           1.1770    0.1540   -0.0090 C.2     1  UNL11       0.4075
      6 O           1.1545    1.4009    0.0118 O.2     1  UNL11      -0.2381
      7 C           2.5042   -0.5092   -0.0183 C.ar    1  UNL11       0.3224
      8 N           3.6932    0.1176   -0.0048 N.ar    1  UNL11      -0.1171
      9 N           4.6243   -0.7795   -0.0190 N.ar    1  UNL11      -0.1639
     10 C           4.1089   -2.0191   -0.0421 C.ar    1  UNL11       0.1101
     11 C           4.6711   -3.2810   -0.0635 C.ar    1  UNL11      -0.0324
     12 C           3.8229   -4.3609   -0.0844 C.ar    1  UNL11      -0.0596
     13 C           2.4470   -4.2146   -0.0845 C.ar    1  UNL11      -0.0609
     14 C           1.8771   -2.9540   -0.0632 C.ar    1  UNL11      -0.0458
     15 C           2.7465   -1.8579   -0.0419 C.ar    1  UNL11       0.0841
     16 C          -2.4528    0.7615   -2.1334 C.ar    1  UNL11       0.0237
     17 C          -3.1683    0.5284   -3.2882 C.ar    1  UNL11      -0.0483
     18 C          -3.5483    1.5368   -4.1389 C.ar    1  UNL11      -0.0229
     19 C          -3.2265    2.8406   -3.8710 C.ar    1  UNL11       0.1584
     20 F          -3.5912    3.8365   -4.6932 F       1  UNL11      -0.2025
     21 C          -2.5116    3.1038   -2.7233 C.ar    1  UNL11       0.1591
     22 F          -2.1910    4.3826   -2.4521 F       1  UNL11      -0.2025
     23 C          -2.1268    2.0711   -1.8595 C.ar    1  UNL11      -0.0130
     24 H          -1.0908    1.1711   -0.0102 H       1  UNL11       0.0782
     25 H          -1.8214   -0.1681    0.9138 H       1  UNL11       0.0782
     26 H           3.7563    1.1781    0.0143 H       1  UNL11       0.4874
     27 H           5.7482   -3.3604   -0.0628 H       1  UNL11       0.0640
     28 H           4.2918   -5.3473   -0.1011 H       1  UNL11       0.0618
     29 H           1.7919   -5.0877   -0.1013 H       1  UNL11       0.0618
     30 H           0.8238   -2.7856   -0.0622 H       1  UNL11       0.0626
     31 H          -3.4219   -0.5127   -3.4965 H       1  UNL11       0.0625
     32 H          -4.1029    1.3028   -5.0228 H       1  UNL11       0.0647
     33 H          -1.5681    2.3183   -0.9713 H       1  UNL11       0.0654
     34 H           5.5882   -0.5792   -0.0136 H       1  UNL11       0.2365
@<TRIPOS>BOND
     1     1     2    2
     2     2     3    1
     3     2    16    1
     4     3     4    1
     5     3    24    1
     6     3    25    1
     7     4     5    1
     8     5     6    2
     9     5     7    1
    10     7     8   ar
    11     8     9   ar
    12     8    26    1
    13     9    10   ar
    14    10    11   ar
    15    11    12   ar
    16    11    27    1
    17    12    13   ar
    18    12    28    1
    19    13    14   ar
    20    13    29    1
    21    14    15   ar
    22    14    30    1
    23    15     7   ar
    24    15    10   ar
    25    16    17   ar
    26    17    18   ar
    27    17    31    1
    28    18    19   ar
    29    18    32    1
    30    19    20    1
    31    19    21   ar
    32    21    22    1
    33    21    23   ar
    34    23    16   ar
    35    23    33    1
    36     9    34    1
@<TRIPOS>MOLECULE
*****
 34 36 0 0 0
SMALL
GASTEIGER

@<TRIPOS>ATOM
      1 O          -1.7159   -0.3762    2.2520 O.2     1  UNL11      -0.2884
      2 C          -1.6452    0.4922    1.3671 C.2     1  UNL11       0.2004
      3 C          -1.2809    0.0779   -0.0151 C.3     1  UNL11       0.1552
      4 O           0.0088   -0.5520   -0.0223 O.3     1  UNL11      -0.4489
      5 C           1.1770    0.1540   -0.0090 C.2     1  UNL11       0.4075
      6 O           1.1545    1.4009    0.0118 O.2     1  UNL11      -0.2381
      7 C           2.5042   -0.5092   -0.0183 C.ar    1  UNL11       0.3224
      8 N           2.7825   -1.7122    0.5128 N.ar    1  UNL11      -0.1171
      9 N           4.0357   -1.9621    0.3154 N.ar    1  UNL11      -0.1639
     10 C           4.6370   -0.9580   -0.3425 C.ar    1  UNL11       0.1101
     11 C           5.9309   -0.7498   -0.7799 C.ar    1  UNL11      -0.0324
     12 C           6.2044    0.4240   -1.4383 C.ar    1  UNL11      -0.0596
     13 C           5.2322    1.3815   -1.6678 C.ar    1  UNL11      -0.0609
     14 C           3.9345    1.1797   -1.2326 C.ar    1  UNL11      -0.0458
     15 C           3.6623   -0.0181   -0.5624 C.ar    1  UNL11       0.0841
     16 C          -1.8990    1.9055    1.5991 C.ar    1  UNL11       0.0237
     17 C          -2.7694    2.3561    2.5683 C.ar    1  UNL11      -0.0483
     18 C          -3.0075    3.6906    2.7856 C.ar    1  UNL11      -0.0229
     19 C          -2.3787    4.6478    2.0350 C.ar    1  UNL11       0.1584
     20 F          -2.6016    5.9558    2.2362 F       1  UNL11      -0.2025
     21 C          -1.5029    4.2269    1.0587 C.ar    1  UNL11       0.1591
     22 F          -0.8804    5.1610    0.3159 F       1  UNL11      -0.2025
     23 C          -1.2641    2.8643    0.8415 C.ar    1  UNL11      -0.0130
     24 H          -1.9978   -0.6817   -0.3894 H       1  UNL11       0.0782
     25 H          -1.2969    0.9244   -0.7214 H       1  UNL11       0.0782
     26 H           2.0310   -2.2884    0.9948 H       1  UNL11       0.4874
     27 H           6.6658   -1.5168   -0.5847 H       1  UNL11       0.0640
     28 H           7.2343    0.5647   -1.7740 H       1  UNL11       0.0618
     29 H           5.4725    2.3075   -2.1936 H       1  UNL11       0.0618
     30 H           3.1482    1.8844   -1.3833 H       1  UNL11       0.0626
     31 H          -3.2676    1.5885    3.1635 H       1  UNL11       0.0625
     32 H          -3.6927    3.9882    3.5509 H       1  UNL11       0.0647
     33 H          -0.5715    2.5755    0.0676 H       1  UNL11       0.0654
     34 H           4.4909   -2.7839    0.6100 H       1  UNL11       0.2365
@<TRIPOS>BOND
     1     1     2    2
     2     2     3    1
     3     2    16    1
     4     3     4    1
     5     3    24    1
     6     3    25    1
     7     4     5    1
     8     5     6    2
     9     5     7    1
    10     7     8   ar
    11     8     9   ar
    12     8    26    1
    13     9    10   ar
    14    10    11   ar
    15    11    12   ar
    16    11    27    1
    17    12    13   ar
    18    12    28    1
    19    13    14   ar
    20    13    29    1
    21    14    15   ar
    22    14    30    1
    23    15     7   ar
    24    15    10   ar
    25    16    17   ar
    26    17    18   ar
    27    17    31    1
    28    18    19   ar
    29    18    32    1
    30    19    20    1
    31    19    21   ar
    32    21    22    1
    33    21    23   ar
    34    23    16   ar
    35    23    33    1
    36     9    34    1
@<TRIPOS>MOLECULE
*****
 34 36 0 0 0
SMALL
GASTEIGER

@<TRIPOS>ATOM
      1 O          -2.8312   -0.6600   -0.4179 O.2     1  UNL11      -0.2884
      2 C          -2.2706    0.0295    0.4495 C.2     1  UNL11       0.2004
      3 C          -0.9776   -0.4433    1.0147 C.3     1  UNL11       0.1552
      4 O           0.0088   -0.5520   -0.0223 O.3     1  UNL11      -0.4489
      5 C           1.1770    0.1540   -0.0090 C.2     1  UNL11       0.4075
      6 O           1.1545    1.4009    0.0118 O.2     1  UNL11      -0.2381
      7 C           2.5042   -0.5092   -0.0183 C.ar    1  UNL11       0.3224
      8 N           2.7825   -1.7122    0.5128 N.ar    1  UNL11      -0.1171
      9 N           4.0357   -1.9621    0.3154 N.ar    1  UNL11      -0.1639
     10 C           4.6370   -0.9580   -0.3425 C.ar    1  UNL11       0.1101
     11 C           5.9309   -0.7498   -0.7799 C.ar    1  UNL11      -0.0324
     12 C           6.2044    0.4240   -1.4383 C.ar    1  UNL11      -0.0596
     13 C           5.2322    1.3815   -1.6678 C.ar    1  UNL11      -0.0609
     14 C           3.9345    1.1797   -1.2326 C.ar    1  UNL11      -0.0458
     15 C           3.6623   -0.0181   -0.5624 C.ar    1  UNL11       0.0841
     16 C          -2.8044    1.2850    0.9540 C.ar    1  UNL11       0.0237
     17 C          -3.9929    1.8214    0.5074 C.ar    1  UNL11      -0.0483
     18 C          -4.4949    3.0067    0.9849 C.ar    1  UNL11      -0.0229
     19 C          -3.8236    3.7190    1.9425 C.ar    1  UNL11       0.1584
     20 F          -4.3021    4.8789    2.4186 F       1  UNL11      -0.2025
     21 C          -2.6325    3.2071    2.4079 C.ar    1  UNL11       0.1591
     22 F          -1.9658    3.9007    3.3493 F       1  UNL11      -0.2025
     23 C          -2.1254    1.9976    1.9171 C.ar    1  UNL11      -0.0130
     24 H          -0.5825    0.2971    1.7405 H       1  UNL11       0.0782
     25 H          -1.0817   -1.4040    1.5455 H       1  UNL11       0.0782
     26 H           2.0310   -2.2884    0.9948 H       1  UNL11       0.4874
     27 H           6.6658   -1.5168   -0.5847 H       1  UNL11       0.0640
     28 H           7.2343    0.5647   -1.7740 H       1  UNL11       0.0618
     29 H           5.4725    2.3075   -2.1936 H       1  UNL11       0.0618
     30 H           3.1482    1.8844   -1.3833 H       1  UNL11       0.0626
     31 H          -4.5236    1.2491   -0.2559 H       1  UNL11       0.0625
     32 H          -5.4223    3.3800    0.6050 H       1  UNL11       0.0647
     33 H          -1.1898    1.6306    2.3069 H       1  UNL11       0.0654
     34 H           4.4909   -2.7839    0.6100 H       1  UNL11       0.2365
@<TRIPOS>BOND
     1     1     2    2
     2     2     3    1
     3     2    16    1
     4     3     4    1
     5     3    24    1
     6     3    25    1
     7     4     5    1
     8     5     6    2
     9     5     7    1
    10     7     8   ar
    11     8     9   ar
    12     8    26    1
    13     9    10   ar
    14    10    11   ar
    15    11    12   ar
    16    11    27    1
    17    12    13   ar
    18    12    28    1
    19    13    14   ar
    20    13    29    1
    21    14    15   ar
    22    14    30    1
    23    15     7   ar
    24    15    10   ar
    25    16    17   ar
    26    17    18   ar
    27    17    31    1
    28    18    19   ar
    29    18    32    1
    30    19    20    1
    31    19    21   ar
    32    21    22    1
    33    21    23   ar
    34    23    16   ar
    35    23    33    1
    36     9    34    1
@<TRIPOS>MOLECULE
*****
 34 36 0 0 0
SMALL
GASTEIGER

@<TRIPOS>ATOM
      1 O          -1.3516    1.1590   -1.4231 O.2     1  UNL11      -0.2884
      2 C          -1.8762    0.9007   -0.3275 C.2     1  UNL11       0.2004
      3 C          -1.2004   -0.0665    0.5796 C.3     1  UNL11       0.1552
      4 O           0.0088   -0.5520   -0.0223 O.3     1  UNL11      -0.4489
      5 C           1.1770    0.1540   -0.0090 C.2     1  UNL11       0.4075
      6 O           1.1545    1.4009    0.0118 O.2     1  UNL11      -0.2381
      7 C           2.5042   -0.5092   -0.0183 C.ar    1  UNL11       0.3224
      8 N           2.7846   -1.6925   -0.5910 N.ar    1  UNL11      -0.1171
      9 N           4.0371   -1.9493   -0.3979 N.ar    1  UNL11      -0.1639
     10 C           4.6358   -0.9693    0.2976 C.ar    1  UNL11       0.1101
     11 C           5.9281   -0.7769    0.7470 C.ar    1  UNL11      -0.0324
     12 C           6.1989    0.3726    1.4480 C.ar    1  UNL11      -0.0596
     13 C           5.2258    1.3213    1.7079 C.ar    1  UNL11      -0.0609
     14 C           3.9297    1.1352    1.2610 C.ar    1  UNL11      -0.0458
     15 C           3.6601   -0.0379    0.5474 C.ar    1  UNL11       0.0841
     16 C          -3.1241    1.4909    0.1305 C.ar    1  UNL11       0.0237
     17 C          -3.5372    2.7489   -0.2526 C.ar    1  UNL11      -0.0483
     18 C          -4.7157    3.3041    0.1810 C.ar    1  UNL11      -0.0229
     19 C          -5.5455    2.6190    1.0278 C.ar    1  UNL11       0.1584
     20 F          -6.7003    3.1490    1.4597 F       1  UNL11      -0.2025
     21 C          -5.1583    1.3589    1.4276 C.ar    1  UNL11       0.1591
     22 F          -5.9679    0.6782    2.2601 F       1  UNL11      -0.2025
     23 C          -3.9552    0.7978    0.9821 C.ar    1  UNL11      -0.0130
     24 H          -0.8965    0.4377    1.5201 H       1  UNL11       0.0782
     25 H          -1.8566   -0.9092    0.8529 H       1  UNL11       0.0782
     26 H           2.0350   -2.2509   -1.0962 H       1  UNL11       0.4874
     27 H           6.6637   -1.5365    0.5274 H       1  UNL11       0.0640
     28 H           7.2276    0.5012    1.7923 H       1  UNL11       0.0618
     29 H           5.4640    2.2279    2.2673 H       1  UNL11       0.0618
     30 H           3.1428    1.8341    1.4337 H       1  UNL11       0.0626
     31 H          -2.8717    3.2902   -0.9277 H       1  UNL11       0.0625
     32 H          -4.9907    4.2845   -0.1460 H       1  UNL11       0.0647
     33 H          -3.6878   -0.1910    1.3179 H       1  UNL11       0.0654
     34 H           4.4934   -2.7601   -0.7199 H       1  UNL11       0.2365
@<TRIPOS>BOND
     1     1     2    2
     2     2     3    1
     3     2    16    1
     4     3     4    1
     5     3    24    1
     6     3    25    1
     7     4     5    1
     8     5     6    2
     9     5     7    1
    10     7     8   ar
    11     8     9   ar
    12     8    26    1
    13     9    10   ar
    14    10    11   ar
    15    11    12   ar
    16    11    27    1
    17    12    13   ar
    18    12    28    1
    19    13    14   ar
    20    13    29    1
    21    14    15   ar
    22    14    30    1
    23    15     7   ar
    24    15    10   ar
    25    16    17   ar
    26    17    18   ar
    27    17    31    1
    28    18    19   ar
    29    18    32    1
    30    19    20    1
    31    19    21   ar
    32    21    22    1
    33    21    23   ar
    34    23    16   ar
    35    23    33    1
    36     9    34    1
@<TRIPOS>MOLECULE
*****
 34 36 0 0 0
SMALL
GASTEIGER

@<TRIPOS>ATOM
      1 O          -2.2520    0.7655   -0.5506 O.2     1  UNL11      -0.2884
      2 C          -2.2706    0.0295    0.4495 C.2     1  UNL11       0.2004
      3 C          -0.9776   -0.4433    1.0147 C.3     1  UNL11       0.1552
      4 O           0.0088   -0.5520   -0.0223 O.3     1  UNL11      -0.4489
      5 C           1.1770    0.1540   -0.0090 C.2     1  UNL11       0.4075
      6 O           1.1545    1.4009    0.0118 O.2     1  UNL11      -0.2381
      7 C           2.5042   -0.5092   -0.0183 C.ar    1  UNL11       0.3224
      8 N           2.7825   -1.7122    0.5128 N.ar    1  UNL11      -0.1171
      9 N           4.0357   -1.9621    0.3154 N.ar    1  UNL11      -0.1639
     10 C           4.6370   -0.9580   -0.3425 C.ar    1  UNL11       0.1101
     11 C           5.9309   -0.7498   -0.7799 C.ar    1  UNL11      -0.0324
     12 C           6.2044    0.4240   -1.4383 C.ar    1  UNL11      -0.0596
     13 C           5.2322    1.3815   -1.6678 C.ar    1  UNL11      -0.0609
     14 C           3.9345    1.1797   -1.2326 C.ar    1  UNL11      -0.0458
     15 C           3.6623   -0.0181   -0.5624 C.ar    1  UNL11       0.0841
     16 C          -3.4910   -0.4046    1.1113 C.ar    1  UNL11       0.0237
     17 C          -3.4850   -1.2095    2.2302 C.ar    1  UNL11      -0.0483
     18 C          -4.6381   -1.6181    2.8533 C.ar    1  UNL11      -0.0229
     19 C          -5.8653   -1.2363    2.3807 C.ar    1  UNL11       0.1584
     20 F          -7.0007   -1.6279    2.9794 F       1  UNL11      -0.2025
     21 C          -5.9022   -0.4315    1.2634 C.ar    1  UNL11       0.1591
     22 F          -7.1043   -0.0513    0.7919 F       1  UNL11      -0.2025
     23 C          -4.7227   -0.0178    0.6321 C.ar    1  UNL11      -0.0130
     24 H          -0.5825    0.2971    1.7405 H       1  UNL11       0.0782
     25 H          -1.0817   -1.4040    1.5455 H       1  UNL11       0.0782
     26 H           2.0310   -2.2884    0.9948 H       1  UNL11       0.4874
     27 H           6.6658   -1.5168   -0.5847 H       1  UNL11       0.0640
     28 H           7.2343    0.5647   -1.7740 H       1  UNL11       0.0618
     29 H           5.4725    2.3075   -2.1936 H       1  UNL11       0.0618
     30 H           3.1482    1.8844   -1.3833 H       1  UNL11       0.0626
     31 H          -2.5039   -1.5105    2.6023 H       1  UNL11       0.0625
     32 H          -4.5789   -2.2429    3.7193 H       1  UNL11       0.0647
     33 H          -4.7939    0.6118   -0.2400 H       1  UNL11       0.0654
     34 H           4.4909   -2.7839    0.6100 H       1  UNL11       0.2365
@<TRIPOS>BOND
     1     1     2    2
     2     2     3    1
     3     2    16    1
     4     3     4    1
     5     3    24    1
     6     3    25    1
     7     4     5    1
     8     5     6    2
     9     5     7    1
    10     7     8   ar
    11     8     9   ar
    12     8    26    1
    13     9    10   ar
    14    10    11   ar
    15    11    12   ar
    16    11    27    1
    17    12    13   ar
    18    12    28    1
    19    13    14   ar
    20    13    29    1
    21    14    15   ar
    22    14    30    1
    23    15     7   ar
    24    15    10   ar
    25    16    17   ar
    26    17    18   ar
    27    17    31    1
    28    18    19   ar
    29    18    32    1
    30    19    20    1
    31    19    21   ar
    32    21    22    1
    33    21    23   ar
    34    23    16   ar
    35    23    33    1
    36     9    34    1
