@<TRIPOS>MOLECULE
*****
 33 35 0 0 0
SMALL
GASTEIGER

@<TRIPOS>ATOM
      1 O          -3.6093   -0.1359    2.8550 O.3     1  UNL11      -0.5032
      2 C          -2.8504   -0.1761    1.6903 C.ar    1  UNL11       0.1620
      3 C          -3.4065   -0.2444    0.4307 C.ar    1  UNL11      -0.0155
      4 C          -2.5734   -0.2818   -0.6959 C.ar    1  UNL11      -0.0410
      5 C          -1.2044   -0.2525   -0.5758 C.ar    1  UNL11       0.0942
      6 C          -0.2978   -0.2905   -1.7171 C.ar    1  UNL11       0.2491
      7 N          -0.6746   -0.3589   -3.0333 N.ar    1  UNL11      -0.1233
      8 N           0.4097   -0.3654   -3.7482 N.ar    1  UNL11      -0.1713
      9 C           1.5054   -0.3046   -2.9758 C.ar    1  UNL11       0.0743
     10 C           1.0667   -0.2548   -1.6393 C.ar    1  UNL11       0.0773
     11 C           1.9732   -0.1897   -0.5058 C.ar    1  UNL11      -0.0098
     12 C           3.1900    0.3956   -0.5899 C.ar    1  UNL11      -0.0511
     13 C           4.0588    0.4658    0.4785 C.ar    1  UNL11      -0.0259
     14 C           3.6863   -0.0779    1.6881 C.ar    1  UNL11       0.1234
     15 F           4.5562    0.0036    2.7206 F       1  UNL11      -0.2055
     16 C           2.4469   -0.6809    1.7966 C.ar    1  UNL11      -0.0259
     17 C           1.5856   -0.7375    0.6940 C.ar    1  UNL11      -0.0511
     18 C          -0.6455   -0.1835    0.6978 C.ar    1  UNL11       0.1757
     19 O           0.7266   -0.1514    0.8743 O.3     1  UNL11      -0.5027
     20 C          -1.4652   -0.1470    1.7946 C.ar    1  UNL11       0.2014
     21 O          -0.9130   -0.0796    3.0445 O.3     1  UNL11      -0.5009
     22 H          -4.6099   -0.1535    2.8564 H       1  UNL11       0.2923
     23 H          -4.4742   -0.2672    0.3706 H       1  UNL11       0.0655
     24 H          -3.0680   -0.3283   -1.6593 H       1  UNL11       0.0628
     25 H          -1.6798   -0.3958   -3.3070 H       1  UNL11       0.4872
     26 H           2.5513   -0.2905   -3.2645 H       1  UNL11       0.0870
     27 H           3.5118    0.8372   -1.5115 H       1  UNL11       0.0625
     28 H           5.0197    0.9335    0.3939 H       1  UNL11       0.0646
     29 H           2.1728   -1.1043    2.7614 H       1  UNL11       0.0646
     30 H           0.6371   -1.2218    0.8512 H       1  UNL11       0.0625
     31 H           1.1157   -0.0977    1.8044 H       1  UNL11       0.2923
     32 H          -1.4110   -0.0456    3.9207 H       1  UNL11       0.2924
     33 H           0.4257   -0.4093   -4.7316 H       1  UNL11       0.2358
@<TRIPOS>BOND
     1     1     2    1
     2     1    22    1
     3     2     3   ar
     4     3     4   ar
     5     3    23    1
     6     4     5   ar
     7     4    24    1
     8     5     6    1
     9     5    18   ar
    10     6     7   ar
    11     7     8   ar
    12     7    25    1
    13     8     9   ar
    14     9    10   ar
    15     9    26    1
    16    10    11    1
    17    10     6   ar
    18    11    12   ar
    19    12    13   ar
    20    12    27    1
    21    13    14   ar
    22    13    28    1
    23    14    15    1
    24    14    16   ar
    25    16    17   ar
    26    16    29    1
    27    17    11   ar
    28    17    30    1
    29    18    19    1
    30    18    20   ar
    31    19    31    1
    32    20    21    1
    33    20     2   ar
    34    21    32    1
    35     8    33    1
@<TRIPOS>MOLECULE
*****
 33 35 0 0 0
SMALL
GASTEIGER

@<TRIPOS>ATOM
      1 O          -3.6093   -0.1359    2.8550 O.3     1  UNL11      -0.5032
      2 C          -2.8504   -0.1761    1.6903 C.ar    1  UNL11       0.1620
      3 C          -3.4065   -0.2444    0.4307 C.ar    1  UNL11      -0.0155
      4 C          -2.5734   -0.2818   -0.6959 C.ar    1  UNL11      -0.0410
      5 C          -1.2044   -0.2525   -0.5758 C.ar    1  UNL11       0.0942
      6 C          -0.2978   -0.2905   -1.7171 C.ar    1  UNL11       0.2491
      7 N          -0.6746   -0.3589   -3.0333 N.ar    1  UNL11      -0.1233
      8 N           0.4097   -0.3654   -3.7482 N.ar    1  UNL11      -0.1713
      9 C           1.5054   -0.3046   -2.9758 C.ar    1  UNL11       0.0743
     10 C           1.0667   -0.2548   -1.6393 C.ar    1  UNL11       0.0773
     11 C           1.9732   -0.1897   -0.5058 C.ar    1  UNL11      -0.0098
     12 C           3.2102   -0.7363   -0.5410 C.ar    1  UNL11      -0.0511
     13 C           4.0807   -0.6800    0.5268 C.ar    1  UNL11      -0.0259
     14 C           3.6890   -0.0437    1.6840 C.ar    1  UNL11       0.1234
     15 F           4.5609   -0.0021    2.7172 F       1  UNL11      -0.2055
     16 C           2.4289    0.5223    1.7419 C.ar    1  UNL11      -0.0259
     17 C           1.5661    0.4489    0.6415 C.ar    1  UNL11      -0.0511
     18 C          -0.6455   -0.1835    0.6978 C.ar    1  UNL11       0.1757
     19 O           0.7266   -0.1514    0.8743 O.3     1  UNL11      -0.5027
     20 C          -1.4652   -0.1470    1.7946 C.ar    1  UNL11       0.2014
     21 O          -0.9130   -0.0796    3.0445 O.3     1  UNL11      -0.5009
     22 H          -4.6099   -0.1535    2.8564 H       1  UNL11       0.2923
     23 H          -4.4742   -0.2672    0.3706 H       1  UNL11       0.0655
     24 H          -3.0680   -0.3283   -1.6593 H       1  UNL11       0.0628
     25 H          -1.6798   -0.3958   -3.3070 H       1  UNL11       0.4872
     26 H           2.5513   -0.2905   -3.2645 H       1  UNL11       0.0870
     27 H           3.5541   -1.2321   -1.4265 H       1  UNL11       0.0625
     28 H           5.0578   -1.1189    0.4814 H       1  UNL11       0.0646
     29 H           2.1395    1.0199    2.6660 H       1  UNL11       0.0646
     30 H           0.6010    0.9114    0.7576 H       1  UNL11       0.0625
     31 H           1.1157   -0.0977    1.8044 H       1  UNL11       0.2923
     32 H          -1.4110   -0.0456    3.9207 H       1  UNL11       0.2924
     33 H           0.4257   -0.4093   -4.7316 H       1  UNL11       0.2358
@<TRIPOS>BOND
     1     1     2    1
     2     1    22    1
     3     2     3   ar
     4     3     4   ar
     5     3    23    1
     6     4     5   ar
     7     4    24    1
     8     5     6    1
     9     5    18   ar
    10     6     7   ar
    11     7     8   ar
    12     7    25    1
    13     8     9   ar
    14     9    10   ar
    15     9    26    1
    16    10    11    1
    17    10     6   ar
    18    11    12   ar
    19    12    13   ar
    20    12    27    1
    21    13    14   ar
    22    13    28    1
    23    14    15    1
    24    14    16   ar
    25    16    17   ar
    26    16    29    1
    27    17    11   ar
    28    17    30    1
    29    18    19    1
    30    18    20   ar
    31    19    31    1
    32    20    21    1
    33    20     2   ar
    34    21    32    1
    35     8    33    1
@<TRIPOS>MOLECULE
*****
 33 35 0 0 0
SMALL
GASTEIGER

@<TRIPOS>ATOM
      1 O          -3.6093   -0.1359    2.8550 O.3     1  UNL11      -0.5032
      2 C          -2.8504   -0.1761    1.6903 C.ar    1  UNL11       0.1620
      3 C          -3.4065   -0.2444    0.4307 C.ar    1  UNL11      -0.0155
      4 C          -2.5734   -0.2818   -0.6959 C.ar    1  UNL11      -0.0410
      5 C          -1.2044   -0.2525   -0.5758 C.ar    1  UNL11       0.0942
      6 C          -0.2978   -0.2905   -1.7171 C.ar    1  UNL11       0.2491
      7 N          -0.6746   -0.3589   -3.0333 N.ar    1  UNL11      -0.1233
      8 N           0.4097   -0.3654   -3.7482 N.ar    1  UNL11      -0.1713
      9 C           1.5054   -0.3046   -2.9758 C.ar    1  UNL11       0.0743
     10 C           1.0667   -0.2548   -1.6393 C.ar    1  UNL11       0.0773
     11 C           1.9732   -0.1897   -0.5058 C.ar    1  UNL11      -0.0098
     12 C           1.6604   -0.7228    0.6976 C.ar    1  UNL11      -0.0511
     13 C           2.5122   -0.6695    1.7806 C.ar    1  UNL11      -0.0259
     14 C           3.7360   -0.0515    1.6469 C.ar    1  UNL11       0.1234
     15 F           4.5533   -0.0122    2.7238 F       1  UNL11      -0.2055
     16 C           4.0764    0.5001    0.4256 C.ar    1  UNL11      -0.0259
     17 C           3.1905    0.4311   -0.6566 C.ar    1  UNL11      -0.0511
     18 C          -0.6455   -0.1835    0.6978 C.ar    1  UNL11       0.1757
     19 O           0.7266   -0.1514    0.8743 O.3     1  UNL11      -0.5027
     20 C          -1.4652   -0.1470    1.7946 C.ar    1  UNL11       0.2014
     21 O          -0.9130   -0.0796    3.0445 O.3     1  UNL11      -0.5009
     22 H          -4.6099   -0.1535    2.8564 H       1  UNL11       0.2923
     23 H          -4.4742   -0.2672    0.3706 H       1  UNL11       0.0655
     24 H          -3.0680   -0.3283   -1.6593 H       1  UNL11       0.0628
     25 H          -1.6798   -0.3958   -3.3070 H       1  UNL11       0.4872
     26 H           2.5513   -0.2905   -3.2645 H       1  UNL11       0.0870
     27 H           0.7214   -1.2192    0.8382 H       1  UNL11       0.0625
     28 H           2.2479   -1.0975    2.7273 H       1  UNL11       0.0646
     29 H           5.0481    0.9840    0.3420 H       1  UNL11       0.0646
     30 H           3.5216    0.8816   -1.5765 H       1  UNL11       0.0625
     31 H           1.1157   -0.0977    1.8044 H       1  UNL11       0.2923
     32 H          -1.4110   -0.0456    3.9207 H       1  UNL11       0.2924
     33 H           0.4257   -0.4093   -4.7316 H       1  UNL11       0.2358
@<TRIPOS>BOND
     1     1     2    1
     2     1    22    1
     3     2     3   ar
     4     3     4   ar
     5     3    23    1
     6     4     5   ar
     7     4    24    1
     8     5     6    1
     9     5    18   ar
    10     6     7   ar
    11     7     8   ar
    12     7    25    1
    13     8     9   ar
    14     9    10   ar
    15     9    26    1
    16    10    11    1
    17    10     6   ar
    18    11    12   ar
    19    12    13   ar
    20    12    27    1
    21    13    14   ar
    22    13    28    1
    23    14    15    1
    24    14    16   ar
    25    16    17   ar
    26    16    29    1
    27    17    11   ar
    28    17    30    1
    29    18    19    1
    30    18    20   ar
    31    19    31    1
    32    20    21    1
    33    20     2   ar
    34    21    32    1
    35     8    33    1
@<TRIPOS>MOLECULE
*****
 33 35 0 0 0
SMALL
GASTEIGER

@<TRIPOS>ATOM
      1 O          -3.6093   -0.1359    2.8550 O.3     1  UNL11      -0.5032
      2 C          -2.8504   -0.1761    1.6903 C.ar    1  UNL11       0.1620
      3 C          -3.4065   -0.2444    0.4307 C.ar    1  UNL11      -0.0155
      4 C          -2.5734   -0.2818   -0.6959 C.ar    1  UNL11      -0.0410
      5 C          -1.2044   -0.2525   -0.5758 C.ar    1  UNL11       0.0942
      6 C          -0.2978   -0.2905   -1.7171 C.ar    1  UNL11       0.2491
      7 N          -0.6746   -0.3589   -3.0333 N.ar    1  UNL11      -0.1233
      8 N           0.4097   -0.3654   -3.7482 N.ar    1  UNL11      -0.1713
      9 C           1.5054   -0.3046   -2.9758 C.ar    1  UNL11       0.0743
     10 C           1.0667   -0.2548   -1.6393 C.ar    1  UNL11       0.0773
     11 C           1.9732   -0.1897   -0.5058 C.ar    1  UNL11      -0.0098
     12 C           1.6398    0.4335    0.6477 C.ar    1  UNL11      -0.0511
     13 C           2.4898    0.5009    1.7312 C.ar    1  UNL11      -0.0259
     14 C           3.7332   -0.0864    1.6511 C.ar    1  UNL11       0.1234
     15 F           4.5486   -0.0064    2.7272 F       1  UNL11      -0.2055
     16 C           4.0948   -0.7290    0.4815 C.ar    1  UNL11      -0.0259
     17 C           3.2105   -0.7810   -0.6029 C.ar    1  UNL11      -0.0511
     18 C          -0.6455   -0.1835    0.6978 C.ar    1  UNL11       0.1757
     19 O           0.7266   -0.1514    0.8743 O.3     1  UNL11      -0.5027
     20 C          -1.4652   -0.1470    1.7946 C.ar    1  UNL11       0.2014
     21 O          -0.9130   -0.0796    3.0445 O.3     1  UNL11      -0.5009
     22 H          -4.6099   -0.1535    2.8564 H       1  UNL11       0.2923
     23 H          -4.4742   -0.2672    0.3706 H       1  UNL11       0.0655
     24 H          -3.0680   -0.3283   -1.6593 H       1  UNL11       0.0628
     25 H          -1.6798   -0.3958   -3.3070 H       1  UNL11       0.4872
     26 H           2.5513   -0.2905   -3.2645 H       1  UNL11       0.0870
     27 H           0.6782    0.8947    0.7513 H       1  UNL11       0.0625
     28 H           2.2090    0.9993    2.6380 H       1  UNL11       0.0646
     29 H           5.0820   -1.1860    0.4395 H       1  UNL11       0.0646
     30 H           3.5586   -1.2976   -1.4809 H       1  UNL11       0.0625
     31 H           1.1157   -0.0977    1.8044 H       1  UNL11       0.2923
     32 H          -1.4110   -0.0456    3.9207 H       1  UNL11       0.2924
     33 H           0.4257   -0.4093   -4.7316 H       1  UNL11       0.2358
@<TRIPOS>BOND
     1     1     2    1
     2     1    22    1
     3     2     3   ar
     4     3     4   ar
     5     3    23    1
     6     4     5   ar
     7     4    24    1
     8     5     6    1
     9     5    18   ar
    10     6     7   ar
    11     7     8   ar
    12     7    25    1
    13     8     9   ar
    14     9    10   ar
    15     9    26    1
    16    10    11    1
    17    10     6   ar
    18    11    12   ar
    19    12    13   ar
    20    12    27    1
    21    13    14   ar
    22    13    28    1
    23    14    15    1
    24    14    16   ar
    25    16    17   ar
    26    16    29    1
    27    17    11   ar
    28    17    30    1
    29    18    19    1
    30    18    20   ar
    31    19    31    1
    32    20    21    1
    33    20     2   ar
    34    21    32    1
    35     8    33    1
@<TRIPOS>MOLECULE
*****
 33 35 0 0 0
SMALL
GASTEIGER

@<TRIPOS>ATOM
      1 O          -3.9746   -0.2768    2.5696 O.3     1  UNL11      -0.5032
      2 C          -3.0261   -0.2435    1.5529 C.ar    1  UNL11       0.1620
      3 C          -1.8131    0.4000    1.6750 C.ar    1  UNL11      -0.0155
      4 C          -0.9093    0.3887    0.6036 C.ar    1  UNL11      -0.0410
      5 C          -1.2044   -0.2525   -0.5758 C.ar    1  UNL11       0.0942
      6 C          -0.2978   -0.2905   -1.7171 C.ar    1  UNL11       0.2491
      7 N          -0.6746   -0.3589   -3.0333 N.ar    1  UNL11      -0.1233
      8 N           0.4097   -0.3654   -3.7482 N.ar    1  UNL11      -0.1713
      9 C           1.5054   -0.3046   -2.9758 C.ar    1  UNL11       0.0743
     10 C           1.0667   -0.2548   -1.6393 C.ar    1  UNL11       0.0773
     11 C           1.9732   -0.1897   -0.5058 C.ar    1  UNL11      -0.0098
     12 C           1.6398    0.4335    0.6477 C.ar    1  UNL11      -0.0511
     13 C           2.4898    0.5009    1.7312 C.ar    1  UNL11      -0.0259
     14 C           3.7332   -0.0864    1.6511 C.ar    1  UNL11       0.1234
     15 F           4.5486   -0.0064    2.7272 F       1  UNL11      -0.2055
     16 C           4.0948   -0.7290    0.4815 C.ar    1  UNL11      -0.0259
     17 C           3.2105   -0.7810   -0.6029 C.ar    1  UNL11      -0.0511
     18 C          -2.4305   -0.9016   -0.6962 C.ar    1  UNL11       0.1757
     19 O          -2.7769   -1.5623   -1.8618 O.3     1  UNL11      -0.5027
     20 C          -3.3091   -0.8870    0.3545 C.ar    1  UNL11       0.2014
     21 O          -4.5130   -1.5254    0.2329 O.3     1  UNL11      -0.5009
     22 H          -3.8395    0.1641    3.4578 H       1  UNL11       0.2923
     23 H          -1.6138    0.8908    2.6043 H       1  UNL11       0.0655
     24 H           0.0304    0.9055    0.7609 H       1  UNL11       0.0628
     25 H          -1.6798   -0.3958   -3.3070 H       1  UNL11       0.4872
     26 H           2.5513   -0.2905   -3.2645 H       1  UNL11       0.0870
     27 H           0.6782    0.8947    0.7513 H       1  UNL11       0.0625
     28 H           2.2090    0.9993    2.6380 H       1  UNL11       0.0646
     29 H           5.0820   -1.1860    0.4395 H       1  UNL11       0.0646
     30 H           3.5586   -1.2976   -1.4809 H       1  UNL11       0.0625
     31 H          -3.6683   -2.0310   -1.9315 H       1  UNL11       0.2923
     32 H          -5.2355   -1.5848    0.9339 H       1  UNL11       0.2924
     33 H           0.4257   -0.4093   -4.7316 H       1  UNL11       0.2358
@<TRIPOS>BOND
     1     1     2    1
     2     1    22    1
     3     2     3   ar
     4     3     4   ar
     5     3    23    1
     6     4     5   ar
     7     4    24    1
     8     5     6    1
     9     5    18   ar
    10     6     7   ar
    11     7     8   ar
    12     7    25    1
    13     8     9   ar
    14     9    10   ar
    15     9    26    1
    16    10    11    1
    17    10     6   ar
    18    11    12   ar
    19    12    13   ar
    20    12    27    1
    21    13    14   ar
    22    13    28    1
    23    14    15    1
    24    14    16   ar
    25    16    17   ar
    26    16    29    1
    27    17    11   ar
    28    17    30    1
    29    18    19    1
    30    18    20   ar
    31    19    31    1
    32    20    21    1
    33    20     2   ar
    34    21    32    1
    35     8    33    1
@<TRIPOS>MOLECULE
*****
 33 35 0 0 0
SMALL
GASTEIGER

@<TRIPOS>ATOM
      1 O          -3.9765   -0.0233    2.5596 O.3     1  UNL11      -0.5032
      2 C          -3.0268   -0.1216    1.5482 C.ar    1  UNL11       0.1620
      3 C          -1.7930   -0.7096    1.7279 C.ar    1  UNL11      -0.0155
      4 C          -0.8893   -0.7697    0.6581 C.ar    1  UNL11      -0.0410
      5 C          -1.2044   -0.2525   -0.5758 C.ar    1  UNL11       0.0942
      6 C          -0.2978   -0.2905   -1.7171 C.ar    1  UNL11       0.2491
      7 N          -0.6746   -0.3589   -3.0333 N.ar    1  UNL11      -0.1233
      8 N           0.4097   -0.3654   -3.7482 N.ar    1  UNL11      -0.1713
      9 C           1.5054   -0.3046   -2.9758 C.ar    1  UNL11       0.0743
     10 C           1.0667   -0.2548   -1.6393 C.ar    1  UNL11       0.0773
     11 C           1.9732   -0.1897   -0.5058 C.ar    1  UNL11      -0.0098
     12 C           1.6398    0.4335    0.6477 C.ar    1  UNL11      -0.0511
     13 C           2.4898    0.5009    1.7312 C.ar    1  UNL11      -0.0259
     14 C           3.7332   -0.0864    1.6511 C.ar    1  UNL11       0.1234
     15 F           4.5486   -0.0064    2.7272 F       1  UNL11      -0.2055
     16 C           4.0948   -0.7290    0.4815 C.ar    1  UNL11      -0.0259
     17 C           3.2105   -0.7810   -0.6029 C.ar    1  UNL11      -0.0511
     18 C          -2.4515    0.3408   -0.7543 C.ar    1  UNL11       0.1757
     19 O          -2.8187    0.8766   -1.9762 O.3     1  UNL11      -0.5027
     20 C          -3.3301    0.3962    0.2951 C.ar    1  UNL11       0.2014
     21 O          -4.5544    0.9801    0.1166 O.3     1  UNL11      -0.5009
     22 H          -3.8274   -0.3731    3.4854 H       1  UNL11       0.2923
     23 H          -1.5772   -1.1011    2.6996 H       1  UNL11       0.0655
     24 H           0.0619   -1.2496    0.8576 H       1  UNL11       0.0628
     25 H          -1.6798   -0.3958   -3.3070 H       1  UNL11       0.4872
     26 H           2.5513   -0.2905   -3.2645 H       1  UNL11       0.0870
     27 H           0.6782    0.8947    0.7513 H       1  UNL11       0.0625
     28 H           2.2090    0.9993    2.6380 H       1  UNL11       0.0646
     29 H           5.0820   -1.1860    0.4395 H       1  UNL11       0.0646
     30 H           3.5586   -1.2976   -1.4809 H       1  UNL11       0.0625
     31 H          -3.7281    1.3001   -2.0899 H       1  UNL11       0.2923
     32 H          -5.2808    1.0774    0.8093 H       1  UNL11       0.2924
     33 H           0.4257   -0.4093   -4.7316 H       1  UNL11       0.2358
@<TRIPOS>BOND
     1     1     2    1
     2     1    22    1
     3     2     3   ar
     4     3     4   ar
     5     3    23    1
     6     4     5   ar
     7     4    24    1
     8     5     6    1
     9     5    18   ar
    10     6     7   ar
    11     7     8   ar
    12     7    25    1
    13     8     9   ar
    14     9    10   ar
    15     9    26    1
    16    10    11    1
    17    10     6   ar
    18    11    12   ar
    19    12    13   ar
    20    12    27    1
    21    13    14   ar
    22    13    28    1
    23    14    15    1
    24    14    16   ar
    25    16    17   ar
    26    16    29    1
    27    17    11   ar
    28    17    30    1
    29    18    19    1
    30    18    20   ar
    31    19    31    1
    32    20    21    1
    33    20     2   ar
    34    21    32    1
    35     8    33    1
@<TRIPOS>MOLECULE
*****
 33 35 0 0 0
SMALL
GASTEIGER

@<TRIPOS>ATOM
      1 O          -3.6341   -0.2609    2.8395 O.3     1  UNL11      -0.5032
      2 C          -2.8624   -0.2362    1.6827 C.ar    1  UNL11       0.1620
      3 C          -3.3036    0.3050    0.4941 C.ar    1  UNL11      -0.0155
      4 C          -2.4655    0.2916   -0.6293 C.ar    1  UNL11      -0.0410
      5 C          -1.2044   -0.2525   -0.5758 C.ar    1  UNL11       0.0942
      6 C          -0.2978   -0.2905   -1.7171 C.ar    1  UNL11       0.2491
      7 N          -0.6746   -0.3589   -3.0333 N.ar    1  UNL11      -0.1233
      8 N           0.4097   -0.3654   -3.7482 N.ar    1  UNL11      -0.1713
      9 C           1.5054   -0.3046   -2.9758 C.ar    1  UNL11       0.0743
     10 C           1.0667   -0.2548   -1.6393 C.ar    1  UNL11       0.0773
     11 C           1.9732   -0.1897   -0.5058 C.ar    1  UNL11      -0.0098
     12 C           1.6398    0.4335    0.6477 C.ar    1  UNL11      -0.0511
     13 C           2.4898    0.5009    1.7312 C.ar    1  UNL11      -0.0259
     14 C           3.7332   -0.0864    1.6511 C.ar    1  UNL11       0.1234
     15 F           4.5486   -0.0064    2.7272 F       1  UNL11      -0.2055
     16 C           4.0948   -0.7290    0.4815 C.ar    1  UNL11      -0.0259
     17 C           3.2105   -0.7810   -0.6029 C.ar    1  UNL11      -0.0511
     18 C          -0.7614   -0.7985    0.6262 C.ar    1  UNL11       0.1757
     19 O           0.4994   -1.3585    0.7340 O.3     1  UNL11      -0.5027
     20 C          -1.5853   -0.7820    1.7204 C.ar    1  UNL11       0.2014
     21 O          -1.1471   -1.3195    2.8997 O.3     1  UNL11      -0.5009
     22 H          -4.5613    0.1128    2.8862 H       1  UNL11       0.2923
     23 H          -4.2898    0.7191    0.4843 H       1  UNL11       0.0655
     24 H          -2.8645    0.7375   -1.5331 H       1  UNL11       0.0628
     25 H          -1.6798   -0.3958   -3.3070 H       1  UNL11       0.4872
     26 H           2.5513   -0.2905   -3.2645 H       1  UNL11       0.0870
     27 H           0.6782    0.8947    0.7513 H       1  UNL11       0.0625
     28 H           2.2090    0.9993    2.6380 H       1  UNL11       0.0646
     29 H           5.0820   -1.1860    0.4395 H       1  UNL11       0.0646
     30 H           3.5586   -1.2976   -1.4809 H       1  UNL11       0.0625
     31 H           0.8067   -1.7469    1.6138 H       1  UNL11       0.2923
     32 H          -1.6592   -1.3632    3.7674 H       1  UNL11       0.2924
     33 H           0.4257   -0.4093   -4.7316 H       1  UNL11       0.2358
@<TRIPOS>BOND
     1     1     2    1
     2     1    22    1
     3     2     3   ar
     4     3     4   ar
     5     3    23    1
     6     4     5   ar
     7     4    24    1
     8     5     6    1
     9     5    18   ar
    10     6     7   ar
    11     7     8   ar
    12     7    25    1
    13     8     9   ar
    14     9    10   ar
    15     9    26    1
    16    10    11    1
    17    10     6   ar
    18    11    12   ar
    19    12    13   ar
    20    12    27    1
    21    13    14   ar
    22    13    28    1
    23    14    15    1
    24    14    16   ar
    25    16    17   ar
    26    16    29    1
    27    17    11   ar
    28    17    30    1
    29    18    19    1
    30    18    20   ar
    31    19    31    1
    32    20    21    1
    33    20     2   ar
    34    21    32    1
    35     8    33    1
@<TRIPOS>MOLECULE
*****
 33 35 0 0 0
SMALL
GASTEIGER

@<TRIPOS>ATOM
      1 O          -3.6359   -0.0128    2.8298 O.3     1  UNL11      -0.5032
      2 C          -2.8631   -0.1169    1.6782 C.ar    1  UNL11       0.1620
      3 C          -3.2840   -0.7811    0.5459 C.ar    1  UNL11      -0.0155
      4 C          -2.4459   -0.8424   -0.5760 C.ar    1  UNL11      -0.0410
      5 C          -1.2044   -0.2525   -0.5758 C.ar    1  UNL11       0.0942
      6 C          -0.2978   -0.2905   -1.7171 C.ar    1  UNL11       0.2491
      7 N          -0.6746   -0.3589   -3.0333 N.ar    1  UNL11      -0.1233
      8 N           0.4097   -0.3654   -3.7482 N.ar    1  UNL11      -0.1713
      9 C           1.5054   -0.3046   -2.9758 C.ar    1  UNL11       0.0743
     10 C           1.0667   -0.2548   -1.6393 C.ar    1  UNL11       0.0773
     11 C           1.9732   -0.1897   -0.5058 C.ar    1  UNL11      -0.0098
     12 C           1.6398    0.4335    0.6477 C.ar    1  UNL11      -0.0511
     13 C           2.4898    0.5009    1.7312 C.ar    1  UNL11      -0.0259
     14 C           3.7332   -0.0864    1.6511 C.ar    1  UNL11       0.1234
     15 F           4.5486   -0.0064    2.7272 F       1  UNL11      -0.2055
     16 C           4.0948   -0.7290    0.4815 C.ar    1  UNL11      -0.0259
     17 C           3.2105   -0.7810   -0.6029 C.ar    1  UNL11      -0.0511
     18 C          -0.7819    0.4178    0.5693 C.ar    1  UNL11       0.1757
     19 O           0.4585    1.0289    0.6220 O.3     1  UNL11      -0.5027
     20 C          -1.6058    0.4741    1.6622 C.ar    1  UNL11       0.2014
     21 O          -1.1877    1.1331    2.7859 O.3     1  UNL11      -0.5009
     22 H          -4.5494   -0.4130    2.9131 H       1  UNL11       0.2923
     23 H          -4.2540   -1.2308    0.5776 H       1  UNL11       0.0655
     24 H          -2.8337   -1.3721   -1.4384 H       1  UNL11       0.0628
     25 H          -1.6798   -0.3958   -3.3070 H       1  UNL11       0.4872
     26 H           2.5513   -0.2905   -3.2645 H       1  UNL11       0.0870
     27 H           0.6782    0.8947    0.7513 H       1  UNL11       0.0625
     28 H           2.2090    0.9993    2.6380 H       1  UNL11       0.0646
     29 H           5.0820   -1.1860    0.4395 H       1  UNL11       0.0646
     30 H           3.5586   -1.2976   -1.4809 H       1  UNL11       0.0625
     31 H           0.7482    1.5139    1.4588 H       1  UNL11       0.2923
     32 H          -1.7035    1.2428    3.6454 H       1  UNL11       0.2924
     33 H           0.4257   -0.4093   -4.7316 H       1  UNL11       0.2358
@<TRIPOS>BOND
     1     1     2    1
     2     1    22    1
     3     2     3   ar
     4     3     4   ar
     5     3    23    1
     6     4     5   ar
     7     4    24    1
     8     5     6    1
     9     5    18   ar
    10     6     7   ar
    11     7     8   ar
    12     7    25    1
    13     8     9   ar
    14     9    10   ar
    15     9    26    1
    16    10    11    1
    17    10     6   ar
    18    11    12   ar
    19    12    13   ar
    20    12    27    1
    21    13    14   ar
    22    13    28    1
    23    14    15    1
    24    14    16   ar
    25    16    17   ar
    26    16    29    1
    27    17    11   ar
    28    17    30    1
    29    18    19    1
    30    18    20   ar
    31    19    31    1
    32    20    21    1
    33    20     2   ar
    34    21    32    1
    35     8    33    1
@<TRIPOS>MOLECULE
*****
 33 35 0 0 0
SMALL
GASTEIGER

@<TRIPOS>ATOM
      1 O          -4.0024   -0.1541    2.5433 O.3     1  UNL11      -0.5032
      2 C          -3.0394   -0.1845    1.5403 C.ar    1  UNL11       0.1620
      3 C          -1.6853   -0.1347    1.7942 C.ar    1  UNL11      -0.0155
      4 C          -0.7764   -0.1697    0.7278 C.ar    1  UNL11      -0.0410
      5 C          -1.2044   -0.2525   -0.5758 C.ar    1  UNL11       0.0942
      6 C          -0.2978   -0.2905   -1.7171 C.ar    1  UNL11       0.2491
      7 N          -0.6746   -0.3589   -3.0333 N.ar    1  UNL11      -0.1233
      8 N           0.4097   -0.3654   -3.7482 N.ar    1  UNL11      -0.1713
      9 C           1.5054   -0.3046   -2.9758 C.ar    1  UNL11       0.0743
     10 C           1.0667   -0.2548   -1.6393 C.ar    1  UNL11       0.0773
     11 C           1.9732   -0.1897   -0.5058 C.ar    1  UNL11      -0.0098
     12 C           1.6398    0.4335    0.6477 C.ar    1  UNL11      -0.0511
     13 C           2.4898    0.5009    1.7312 C.ar    1  UNL11      -0.0259
     14 C           3.7332   -0.0864    1.6511 C.ar    1  UNL11       0.1234
     15 F           4.5486   -0.0064    2.7272 F       1  UNL11      -0.2055
     16 C           4.0948   -0.7290    0.4815 C.ar    1  UNL11      -0.0259
     17 C           3.2105   -0.7810   -0.6029 C.ar    1  UNL11      -0.0511
     18 C          -2.5727   -0.3027   -0.8292 C.ar    1  UNL11       0.1757
     19 O          -3.0564   -0.3866   -2.1230 O.3     1  UNL11      -0.5027
     20 C          -3.4557   -0.2683    0.2175 C.ar    1  UNL11       0.2014
     21 O          -4.7994   -0.3174   -0.0349 O.3     1  UNL11      -0.5009
     22 H          -3.7765   -0.0944    3.5165 H       1  UNL11       0.2923
     23 H          -1.3843   -0.0689    2.8185 H       1  UNL11       0.0655
     24 H           0.2748   -0.1343    0.9896 H       1  UNL11       0.0628
     25 H          -1.6798   -0.3958   -3.3070 H       1  UNL11       0.4872
     26 H           2.5513   -0.2905   -3.2645 H       1  UNL11       0.0870
     27 H           0.6782    0.8947    0.7513 H       1  UNL11       0.0625
     28 H           2.2090    0.9993    2.6380 H       1  UNL11       0.0646
     29 H           5.0820   -1.1860    0.4395 H       1  UNL11       0.0646
     30 H           3.5586   -1.2976   -1.4809 H       1  UNL11       0.0625
     31 H          -4.0515   -0.4258   -2.2893 H       1  UNL11       0.2923
     32 H          -5.5405   -0.3015    0.6489 H       1  UNL11       0.2924
     33 H           0.4257   -0.4093   -4.7316 H       1  UNL11       0.2358
@<TRIPOS>BOND
     1     1     2    1
     2     1    22    1
     3     2     3   ar
     4     3     4   ar
     5     3    23    1
     6     4     5   ar
     7     4    24    1
     8     5     6    1
     9     5    18   ar
    10     6     7   ar
    11     7     8   ar
    12     7    25    1
    13     8     9   ar
    14     9    10   ar
    15     9    26    1
    16    10    11    1
    17    10     6   ar
    18    11    12   ar
    19    12    13   ar
    20    12    27    1
    21    13    14   ar
    22    13    28    1
    23    14    15    1
    24    14    16   ar
    25    16    17   ar
    26    16    29    1
    27    17    11   ar
    28    17    30    1
    29    18    19    1
    30    18    20   ar
    31    19    31    1
    32    20    21    1
    33    20     2   ar
    34    21    32    1
    35     8    33    1
@<TRIPOS>MOLECULE
*****
 33 35 0 0 0
SMALL
GASTEIGER

@<TRIPOS>ATOM
      1 O          -3.6341   -0.2609    2.8395 O.3     1  UNL11      -0.5032
      2 C          -2.8624   -0.2362    1.6827 C.ar    1  UNL11       0.1620
      3 C          -3.3036    0.3050    0.4941 C.ar    1  UNL11      -0.0155
      4 C          -2.4655    0.2916   -0.6293 C.ar    1  UNL11      -0.0410
      5 C          -1.2044   -0.2525   -0.5758 C.ar    1  UNL11       0.0942
      6 C          -0.2978   -0.2905   -1.7171 C.ar    1  UNL11       0.2491
      7 N          -0.6746   -0.3589   -3.0333 N.ar    1  UNL11      -0.1233
      8 N           0.4097   -0.3654   -3.7482 N.ar    1  UNL11      -0.1713
      9 C           1.5054   -0.3046   -2.9758 C.ar    1  UNL11       0.0743
     10 C           1.0667   -0.2548   -1.6393 C.ar    1  UNL11       0.0773
     11 C           1.9732   -0.1897   -0.5058 C.ar    1  UNL11      -0.0098
     12 C           3.1900    0.3956   -0.5899 C.ar    1  UNL11      -0.0511
     13 C           4.0588    0.4658    0.4785 C.ar    1  UNL11      -0.0259
     14 C           3.6863   -0.0779    1.6881 C.ar    1  UNL11       0.1234
     15 F           4.5562    0.0036    2.7206 F       1  UNL11      -0.2055
     16 C           2.4469   -0.6809    1.7966 C.ar    1  UNL11      -0.0259
     17 C           1.5856   -0.7375    0.6940 C.ar    1  UNL11      -0.0511
     18 C          -0.7614   -0.7985    0.6262 C.ar    1  UNL11       0.1757
     19 O           0.4994   -1.3585    0.7340 O.3     1  UNL11      -0.5027
     20 C          -1.5853   -0.7820    1.7204 C.ar    1  UNL11       0.2014
     21 O          -1.1471   -1.3195    2.8997 O.3     1  UNL11      -0.5009
     22 H          -4.5613    0.1128    2.8862 H       1  UNL11       0.2923
     23 H          -4.2898    0.7191    0.4843 H       1  UNL11       0.0655
     24 H          -2.8645    0.7375   -1.5331 H       1  UNL11       0.0628
     25 H          -1.6798   -0.3958   -3.3070 H       1  UNL11       0.4872
     26 H           2.5513   -0.2905   -3.2645 H       1  UNL11       0.0870
     27 H           3.5118    0.8372   -1.5115 H       1  UNL11       0.0625
     28 H           5.0197    0.9335    0.3939 H       1  UNL11       0.0646
     29 H           2.1728   -1.1043    2.7614 H       1  UNL11       0.0646
     30 H           0.6371   -1.2218    0.8512 H       1  UNL11       0.0625
     31 H           0.8067   -1.7469    1.6138 H       1  UNL11       0.2923
     32 H          -1.6592   -1.3632    3.7674 H       1  UNL11       0.2924
     33 H           0.4257   -0.4093   -4.7316 H       1  UNL11       0.2358
@<TRIPOS>BOND
     1     1     2    1
     2     1    22    1
     3     2     3   ar
     4     3     4   ar
     5     3    23    1
     6     4     5   ar
     7     4    24    1
     8     5     6    1
     9     5    18   ar
    10     6     7   ar
    11     7     8   ar
    12     7    25    1
    13     8     9   ar
    14     9    10   ar
    15     9    26    1
    16    10    11    1
    17    10     6   ar
    18    11    12   ar
    19    12    13   ar
    20    12    27    1
    21    13    14   ar
    22    13    28    1
    23    14    15    1
    24    14    16   ar
    25    16    17   ar
    26    16    29    1
    27    17    11   ar
    28    17    30    1
    29    18    19    1
    30    18    20   ar
    31    19    31    1
    32    20    21    1
    33    20     2   ar
    34    21    32    1
    35     8    33    1
@<TRIPOS>MOLECULE
*****
 33 35 0 0 0
SMALL
GASTEIGER

@<TRIPOS>ATOM
      1 O          -3.6359   -0.0128    2.8298 O.3     1  UNL11      -0.5032
      2 C          -2.8631   -0.1169    1.6782 C.ar    1  UNL11       0.1620
      3 C          -3.2840   -0.7811    0.5459 C.ar    1  UNL11      -0.0155
      4 C          -2.4459   -0.8424   -0.5760 C.ar    1  UNL11      -0.0410
      5 C          -1.2044   -0.2525   -0.5758 C.ar    1  UNL11       0.0942
      6 C          -0.2978   -0.2905   -1.7171 C.ar    1  UNL11       0.2491
      7 N          -0.6746   -0.3589   -3.0333 N.ar    1  UNL11      -0.1233
      8 N           0.4097   -0.3654   -3.7482 N.ar    1  UNL11      -0.1713
      9 C           1.5054   -0.3046   -2.9758 C.ar    1  UNL11       0.0743
     10 C           1.0667   -0.2548   -1.6393 C.ar    1  UNL11       0.0773
     11 C           1.9732   -0.1897   -0.5058 C.ar    1  UNL11      -0.0098
     12 C           3.2102   -0.7363   -0.5410 C.ar    1  UNL11      -0.0511
     13 C           4.0807   -0.6800    0.5268 C.ar    1  UNL11      -0.0259
     14 C           3.6890   -0.0437    1.6840 C.ar    1  UNL11       0.1234
     15 F           4.5609   -0.0021    2.7172 F       1  UNL11      -0.2055
     16 C           2.4289    0.5223    1.7419 C.ar    1  UNL11      -0.0259
     17 C           1.5661    0.4489    0.6415 C.ar    1  UNL11      -0.0511
     18 C          -0.7819    0.4178    0.5693 C.ar    1  UNL11       0.1757
     19 O           0.4585    1.0289    0.6220 O.3     1  UNL11      -0.5027
     20 C          -1.6058    0.4741    1.6622 C.ar    1  UNL11       0.2014
     21 O          -1.1877    1.1331    2.7859 O.3     1  UNL11      -0.5009
     22 H          -4.5494   -0.4130    2.9131 H       1  UNL11       0.2923
     23 H          -4.2540   -1.2308    0.5776 H       1  UNL11       0.0655
     24 H          -2.8337   -1.3721   -1.4384 H       1  UNL11       0.0628
     25 H          -1.6798   -0.3958   -3.3070 H       1  UNL11       0.4872
     26 H           2.5513   -0.2905   -3.2645 H       1  UNL11       0.0870
     27 H           3.5541   -1.2321   -1.4265 H       1  UNL11       0.0625
     28 H           5.0578   -1.1189    0.4814 H       1  UNL11       0.0646
     29 H           2.1395    1.0199    2.6660 H       1  UNL11       0.0646
     30 H           0.6010    0.9114    0.7576 H       1  UNL11       0.0625
     31 H           0.7482    1.5139    1.4588 H       1  UNL11       0.2923
     32 H          -1.7035    1.2428    3.6454 H       1  UNL11       0.2924
     33 H           0.4257   -0.4093   -4.7316 H       1  UNL11       0.2358
@<TRIPOS>BOND
     1     1     2    1
     2     1    22    1
     3     2     3   ar
     4     3     4   ar
     5     3    23    1
     6     4     5   ar
     7     4    24    1
     8     5     6    1
     9     5    18   ar
    10     6     7   ar
    11     7     8   ar
    12     7    25    1
    13     8     9   ar
    14     9    10   ar
    15     9    26    1
    16    10    11    1
    17    10     6   ar
    18    11    12   ar
    19    12    13   ar
    20    12    27    1
    21    13    14   ar
    22    13    28    1
    23    14    15    1
    24    14    16   ar
    25    16    17   ar
    26    16    29    1
    27    17    11   ar
    28    17    30    1
    29    18    19    1
    30    18    20   ar
    31    19    31    1
    32    20    21    1
    33    20     2   ar
    34    21    32    1
    35     8    33    1
@<TRIPOS>MOLECULE
*****
 33 35 0 0 0
SMALL
GASTEIGER

@<TRIPOS>ATOM
      1 O          -3.6359   -0.0128    2.8298 O.3     1  UNL11      -0.5032
      2 C          -2.8631   -0.1169    1.6782 C.ar    1  UNL11       0.1620
      3 C          -3.2840   -0.7811    0.5459 C.ar    1  UNL11      -0.0155
      4 C          -2.4459   -0.8424   -0.5760 C.ar    1  UNL11      -0.0410
      5 C          -1.2044   -0.2525   -0.5758 C.ar    1  UNL11       0.0942
      6 C          -0.2978   -0.2905   -1.7171 C.ar    1  UNL11       0.2491
      7 N          -0.6746   -0.3589   -3.0333 N.ar    1  UNL11      -0.1233
      8 N           0.4097   -0.3654   -3.7482 N.ar    1  UNL11      -0.1713
      9 C           1.5054   -0.3046   -2.9758 C.ar    1  UNL11       0.0743
     10 C           1.0667   -0.2548   -1.6393 C.ar    1  UNL11       0.0773
     11 C           1.9732   -0.1897   -0.5058 C.ar    1  UNL11      -0.0098
     12 C           3.1900    0.3956   -0.5899 C.ar    1  UNL11      -0.0511
     13 C           4.0588    0.4658    0.4785 C.ar    1  UNL11      -0.0259
     14 C           3.6863   -0.0779    1.6881 C.ar    1  UNL11       0.1234
     15 F           4.5562    0.0036    2.7206 F       1  UNL11      -0.2055
     16 C           2.4469   -0.6809    1.7966 C.ar    1  UNL11      -0.0259
     17 C           1.5856   -0.7375    0.6940 C.ar    1  UNL11      -0.0511
     18 C          -0.7819    0.4178    0.5693 C.ar    1  UNL11       0.1757
     19 O           0.4585    1.0289    0.6220 O.3     1  UNL11      -0.5027
     20 C          -1.6058    0.4741    1.6622 C.ar    1  UNL11       0.2014
     21 O          -1.1877    1.1331    2.7859 O.3     1  UNL11      -0.5009
     22 H          -4.5494   -0.4130    2.9131 H       1  UNL11       0.2923
     23 H          -4.2540   -1.2308    0.5776 H       1  UNL11       0.0655
     24 H          -2.8337   -1.3721   -1.4384 H       1  UNL11       0.0628
     25 H          -1.6798   -0.3958   -3.3070 H       1  UNL11       0.4872
     26 H           2.5513   -0.2905   -3.2645 H       1  UNL11       0.0870
     27 H           3.5118    0.8372   -1.5115 H       1  UNL11       0.0625
     28 H           5.0197    0.9335    0.3939 H       1  UNL11       0.0646
     29 H           2.1728   -1.1043    2.7614 H       1  UNL11       0.0646
     30 H           0.6371   -1.2218    0.8512 H       1  UNL11       0.0625
     31 H           0.7482    1.5139    1.4588 H       1  UNL11       0.2923
     32 H          -1.7035    1.2428    3.6454 H       1  UNL11       0.2924
     33 H           0.4257   -0.4093   -4.7316 H       1  UNL11       0.2358
@<TRIPOS>BOND
     1     1     2    1
     2     1    22    1
     3     2     3   ar
     4     3     4   ar
     5     3    23    1
     6     4     5   ar
     7     4    24    1
     8     5     6    1
     9     5    18   ar
    10     6     7   ar
    11     7     8   ar
    12     7    25    1
    13     8     9   ar
    14     9    10   ar
    15     9    26    1
    16    10    11    1
    17    10     6   ar
    18    11    12   ar
    19    12    13   ar
    20    12    27    1
    21    13    14   ar
    22    13    28    1
    23    14    15    1
    24    14    16   ar
    25    16    17   ar
    26    16    29    1
    27    17    11   ar
    28    17    30    1
    29    18    19    1
    30    18    20   ar
    31    19    31    1
    32    20    21    1
    33    20     2   ar
    34    21    32    1
    35     8    33    1
@<TRIPOS>MOLECULE
*****
 33 35 0 0 0
SMALL
GASTEIGER

@<TRIPOS>ATOM
      1 O          -3.6359   -0.0128    2.8298 O.3     1  UNL11      -0.5032
      2 C          -2.8631   -0.1169    1.6782 C.ar    1  UNL11       0.1620
      3 C          -3.2840   -0.7811    0.5459 C.ar    1  UNL11      -0.0155
      4 C          -2.4459   -0.8424   -0.5760 C.ar    1  UNL11      -0.0410
      5 C          -1.2044   -0.2525   -0.5758 C.ar    1  UNL11       0.0942
      6 C          -0.2978   -0.2905   -1.7171 C.ar    1  UNL11       0.2491
      7 N          -0.6746   -0.3589   -3.0333 N.ar    1  UNL11      -0.1233
      8 N           0.4097   -0.3654   -3.7482 N.ar    1  UNL11      -0.1713
      9 C           1.5054   -0.3046   -2.9758 C.ar    1  UNL11       0.0743
     10 C           1.0667   -0.2548   -1.6393 C.ar    1  UNL11       0.0773
     11 C           1.9732   -0.1897   -0.5058 C.ar    1  UNL11      -0.0098
     12 C           3.3172   -0.1723   -0.6590 C.ar    1  UNL11      -0.0511
     13 C           4.1883   -0.1088    0.4079 C.ar    1  UNL11      -0.0259
     14 C           3.6841   -0.0602    1.6889 C.ar    1  UNL11       0.1234
     15 F           4.5591    0.0015    2.7184 F       1  UNL11      -0.2055
     16 C           2.3133   -0.0767    1.8687 C.ar    1  UNL11      -0.0259
     17 C           1.4530   -0.1420    0.7659 C.ar    1  UNL11      -0.0511
     18 C          -0.7819    0.4178    0.5693 C.ar    1  UNL11       0.1757
     19 O           0.4585    1.0289    0.6220 O.3     1  UNL11      -0.5027
     20 C          -1.6058    0.4741    1.6622 C.ar    1  UNL11       0.2014
     21 O          -1.1877    1.1331    2.7859 O.3     1  UNL11      -0.5009
     22 H          -4.5494   -0.4130    2.9131 H       1  UNL11       0.2923
     23 H          -4.2540   -1.2308    0.5776 H       1  UNL11       0.0655
     24 H          -2.8337   -1.3721   -1.4384 H       1  UNL11       0.0628
     25 H          -1.6798   -0.3958   -3.3070 H       1  UNL11       0.4872
     26 H           2.5513   -0.2905   -3.2645 H       1  UNL11       0.0870
     27 H           3.7471   -0.2001   -1.6401 H       1  UNL11       0.0625
     28 H           5.2512   -0.0960    0.2680 H       1  UNL11       0.0646
     29 H           1.9363   -0.0378    2.8893 H       1  UNL11       0.0646
     30 H           0.3983   -0.1512    0.9807 H       1  UNL11       0.0625
     31 H           0.7482    1.5139    1.4588 H       1  UNL11       0.2923
     32 H          -1.7035    1.2428    3.6454 H       1  UNL11       0.2924
     33 H           0.4257   -0.4093   -4.7316 H       1  UNL11       0.2358
@<TRIPOS>BOND
     1     1     2    1
     2     1    22    1
     3     2     3   ar
     4     3     4   ar
     5     3    23    1
     6     4     5   ar
     7     4    24    1
     8     5     6    1
     9     5    18   ar
    10     6     7   ar
    11     7     8   ar
    12     7    25    1
    13     8     9   ar
    14     9    10   ar
    15     9    26    1
    16    10    11    1
    17    10     6   ar
    18    11    12   ar
    19    12    13   ar
    20    12    27    1
    21    13    14   ar
    22    13    28    1
    23    14    15    1
    24    14    16   ar
    25    16    17   ar
    26    16    29    1
    27    17    11   ar
    28    17    30    1
    29    18    19    1
    30    18    20   ar
    31    19    31    1
    32    20    21    1
    33    20     2   ar
    34    21    32    1
    35     8    33    1
@<TRIPOS>MOLECULE
*****
 33 35 0 0 0
SMALL
GASTEIGER

@<TRIPOS>ATOM
      1 O          -3.6341   -0.2609    2.8395 O.3     1  UNL11      -0.5032
      2 C          -2.8624   -0.2362    1.6827 C.ar    1  UNL11       0.1620
      3 C          -3.3036    0.3050    0.4941 C.ar    1  UNL11      -0.0155
      4 C          -2.4655    0.2916   -0.6293 C.ar    1  UNL11      -0.0410
      5 C          -1.2044   -0.2525   -0.5758 C.ar    1  UNL11       0.0942
      6 C          -0.2978   -0.2905   -1.7171 C.ar    1  UNL11       0.2491
      7 N          -0.6746   -0.3589   -3.0333 N.ar    1  UNL11      -0.1233
      8 N           0.4097   -0.3654   -3.7482 N.ar    1  UNL11      -0.1713
      9 C           1.5054   -0.3046   -2.9758 C.ar    1  UNL11       0.0743
     10 C           1.0667   -0.2548   -1.6393 C.ar    1  UNL11       0.0773
     11 C           1.9732   -0.1897   -0.5058 C.ar    1  UNL11      -0.0098
     12 C           3.3172   -0.1723   -0.6590 C.ar    1  UNL11      -0.0511
     13 C           4.1883   -0.1088    0.4079 C.ar    1  UNL11      -0.0259
     14 C           3.6841   -0.0602    1.6889 C.ar    1  UNL11       0.1234
     15 F           4.5591    0.0015    2.7184 F       1  UNL11      -0.2055
     16 C           2.3133   -0.0767    1.8687 C.ar    1  UNL11      -0.0259
     17 C           1.4530   -0.1420    0.7659 C.ar    1  UNL11      -0.0511
     18 C          -0.7614   -0.7985    0.6262 C.ar    1  UNL11       0.1757
     19 O           0.4994   -1.3585    0.7340 O.3     1  UNL11      -0.5027
     20 C          -1.5853   -0.7820    1.7204 C.ar    1  UNL11       0.2014
     21 O          -1.1471   -1.3195    2.8997 O.3     1  UNL11      -0.5009
     22 H          -4.5613    0.1128    2.8862 H       1  UNL11       0.2923
     23 H          -4.2898    0.7191    0.4843 H       1  UNL11       0.0655
     24 H          -2.8645    0.7375   -1.5331 H       1  UNL11       0.0628
     25 H          -1.6798   -0.3958   -3.3070 H       1  UNL11       0.4872
     26 H           2.5513   -0.2905   -3.2645 H       1  UNL11       0.0870
     27 H           3.7471   -0.2001   -1.6401 H       1  UNL11       0.0625
     28 H           5.2512   -0.0960    0.2680 H       1  UNL11       0.0646
     29 H           1.9363   -0.0378    2.8893 H       1  UNL11       0.0646
     30 H           0.3983   -0.1512    0.9807 H       1  UNL11       0.0625
     31 H           0.8067   -1.7469    1.6138 H       1  UNL11       0.2923
     32 H          -1.6592   -1.3632    3.7674 H       1  UNL11       0.2924
     33 H           0.4257   -0.4093   -4.7316 H       1  UNL11       0.2358
@<TRIPOS>BOND
     1     1     2    1
     2     1    22    1
     3     2     3   ar
     4     3     4   ar
     5     3    23    1
     6     4     5   ar
     7     4    24    1
     8     5     6    1
     9     5    18   ar
    10     6     7   ar
    11     7     8   ar
    12     7    25    1
    13     8     9   ar
    14     9    10   ar
    15     9    26    1
    16    10    11    1
    17    10     6   ar
    18    11    12   ar
    19    12    13   ar
    20    12    27    1
    21    13    14   ar
    22    13    28    1
    23    14    15    1
    24    14    16   ar
    25    16    17   ar
    26    16    29    1
    27    17    11   ar
    28    17    30    1
    29    18    19    1
    30    18    20   ar
    31    19    31    1
    32    20    21    1
    33    20     2   ar
    34    21    32    1
    35     8    33    1
@<TRIPOS>MOLECULE
*****
 33 35 0 0 0
SMALL
GASTEIGER

@<TRIPOS>ATOM
      1 O          -3.6341   -0.2609    2.8395 O.3     1  UNL11      -0.5032
      2 C          -2.8624   -0.2362    1.6827 C.ar    1  UNL11       0.1620
      3 C          -3.3036    0.3050    0.4941 C.ar    1  UNL11      -0.0155
      4 C          -2.4655    0.2916   -0.6293 C.ar    1  UNL11      -0.0410
      5 C          -1.2044   -0.2525   -0.5758 C.ar    1  UNL11       0.0942
      6 C          -0.2978   -0.2905   -1.7171 C.ar    1  UNL11       0.2491
      7 N          -0.6746   -0.3589   -3.0333 N.ar    1  UNL11      -0.1233
      8 N           0.4097   -0.3654   -3.7482 N.ar    1  UNL11      -0.1713
      9 C           1.5054   -0.3046   -2.9758 C.ar    1  UNL11       0.0743
     10 C           1.0667   -0.2548   -1.6393 C.ar    1  UNL11       0.0773
     11 C           1.9732   -0.1897   -0.5058 C.ar    1  UNL11      -0.0098
     12 C           3.2102   -0.7363   -0.5410 C.ar    1  UNL11      -0.0511
     13 C           4.0807   -0.6800    0.5268 C.ar    1  UNL11      -0.0259
     14 C           3.6890   -0.0437    1.6840 C.ar    1  UNL11       0.1234
     15 F           4.5609   -0.0021    2.7172 F       1  UNL11      -0.2055
     16 C           2.4289    0.5223    1.7419 C.ar    1  UNL11      -0.0259
     17 C           1.5661    0.4489    0.6415 C.ar    1  UNL11      -0.0511
     18 C          -0.7614   -0.7985    0.6262 C.ar    1  UNL11       0.1757
     19 O           0.4994   -1.3585    0.7340 O.3     1  UNL11      -0.5027
     20 C          -1.5853   -0.7820    1.7204 C.ar    1  UNL11       0.2014
     21 O          -1.1471   -1.3195    2.8997 O.3     1  UNL11      -0.5009
     22 H          -4.5613    0.1128    2.8862 H       1  UNL11       0.2923
     23 H          -4.2898    0.7191    0.4843 H       1  UNL11       0.0655
     24 H          -2.8645    0.7375   -1.5331 H       1  UNL11       0.0628
     25 H          -1.6798   -0.3958   -3.3070 H       1  UNL11       0.4872
     26 H           2.5513   -0.2905   -3.2645 H       1  UNL11       0.0870
     27 H           3.5541   -1.2321   -1.4265 H       1  UNL11       0.0625
     28 H           5.0578   -1.1189    0.4814 H       1  UNL11       0.0646
     29 H           2.1395    1.0199    2.6660 H       1  UNL11       0.0646
     30 H           0.6010    0.9114    0.7576 H       1  UNL11       0.0625
     31 H           0.8067   -1.7469    1.6138 H       1  UNL11       0.2923
     32 H          -1.6592   -1.3632    3.7674 H       1  UNL11       0.2924
     33 H           0.4257   -0.4093   -4.7316 H       1  UNL11       0.2358
@<TRIPOS>BOND
     1     1     2    1
     2     1    22    1
     3     2     3   ar
     4     3     4   ar
     5     3    23    1
     6     4     5   ar
     7     4    24    1
     8     5     6    1
     9     5    18   ar
    10     6     7   ar
    11     7     8   ar
    12     7    25    1
    13     8     9   ar
    14     9    10   ar
    15     9    26    1
    16    10    11    1
    17    10     6   ar
    18    11    12   ar
    19    12    13   ar
    20    12    27    1
    21    13    14   ar
    22    13    28    1
    23    14    15    1
    24    14    16   ar
    25    16    17   ar
    26    16    29    1
    27    17    11   ar
    28    17    30    1
    29    18    19    1
    30    18    20   ar
    31    19    31    1
    32    20    21    1
    33    20     2   ar
    34    21    32    1
    35     8    33    1
@<TRIPOS>MOLECULE
*****
 33 35 0 0 0
SMALL
GASTEIGER

@<TRIPOS>ATOM
      1 O          -3.9765   -0.0233    2.5596 O.3     1  UNL11      -0.5032
      2 C          -3.0268   -0.1216    1.5482 C.ar    1  UNL11       0.1620
      3 C          -1.7930   -0.7096    1.7279 C.ar    1  UNL11      -0.0155
      4 C          -0.8893   -0.7697    0.6581 C.ar    1  UNL11      -0.0410
      5 C          -1.2044   -0.2525   -0.5758 C.ar    1  UNL11       0.0942
      6 C          -0.2978   -0.2905   -1.7171 C.ar    1  UNL11       0.2491
      7 N          -0.6746   -0.3589   -3.0333 N.ar    1  UNL11      -0.1233
      8 N           0.4097   -0.3654   -3.7482 N.ar    1  UNL11      -0.1713
      9 C           1.5054   -0.3046   -2.9758 C.ar    1  UNL11       0.0743
     10 C           1.0667   -0.2548   -1.6393 C.ar    1  UNL11       0.0773
     11 C           1.9732   -0.1897   -0.5058 C.ar    1  UNL11      -0.0098
     12 C           3.1900    0.3956   -0.5899 C.ar    1  UNL11      -0.0511
     13 C           4.0588    0.4658    0.4785 C.ar    1  UNL11      -0.0259
     14 C           3.6863   -0.0779    1.6881 C.ar    1  UNL11       0.1234
     15 F           4.5562    0.0036    2.7206 F       1  UNL11      -0.2055
     16 C           2.4469   -0.6809    1.7966 C.ar    1  UNL11      -0.0259
     17 C           1.5856   -0.7375    0.6940 C.ar    1  UNL11      -0.0511
     18 C          -2.4515    0.3408   -0.7543 C.ar    1  UNL11       0.1757
     19 O          -2.8187    0.8766   -1.9762 O.3     1  UNL11      -0.5027
     20 C          -3.3301    0.3962    0.2951 C.ar    1  UNL11       0.2014
     21 O          -4.5544    0.9801    0.1166 O.3     1  UNL11      -0.5009
     22 H          -3.8274   -0.3731    3.4854 H       1  UNL11       0.2923
     23 H          -1.5772   -1.1011    2.6996 H       1  UNL11       0.0655
     24 H           0.0619   -1.2496    0.8576 H       1  UNL11       0.0628
     25 H          -1.6798   -0.3958   -3.3070 H       1  UNL11       0.4872
     26 H           2.5513   -0.2905   -3.2645 H       1  UNL11       0.0870
     27 H           3.5118    0.8372   -1.5115 H       1  UNL11       0.0625
     28 H           5.0197    0.9335    0.3939 H       1  UNL11       0.0646
     29 H           2.1728   -1.1043    2.7614 H       1  UNL11       0.0646
     30 H           0.6371   -1.2218    0.8512 H       1  UNL11       0.0625
     31 H          -3.7281    1.3001   -2.0899 H       1  UNL11       0.2923
     32 H          -5.2808    1.0774    0.8093 H       1  UNL11       0.2924
     33 H           0.4257   -0.4093   -4.7316 H       1  UNL11       0.2358
@<TRIPOS>BOND
     1     1     2    1
     2     1    22    1
     3     2     3   ar
     4     3     4   ar
     5     3    23    1
     6     4     5   ar
     7     4    24    1
     8     5     6    1
     9     5    18   ar
    10     6     7   ar
    11     7     8   ar
    12     7    25    1
    13     8     9   ar
    14     9    10   ar
    15     9    26    1
    16    10    11    1
    17    10     6   ar
    18    11    12   ar
    19    12    13   ar
    20    12    27    1
    21    13    14   ar
    22    13    28    1
    23    14    15    1
    24    14    16   ar
    25    16    17   ar
    26    16    29    1
    27    17    11   ar
    28    17    30    1
    29    18    19    1
    30    18    20   ar
    31    19    31    1
    32    20    21    1
    33    20     2   ar
    34    21    32    1
    35     8    33    1
@<TRIPOS>MOLECULE
*****
 33 35 0 0 0
SMALL
GASTEIGER

@<TRIPOS>ATOM
      1 O          -3.9746   -0.2768    2.5696 O.3     1  UNL11      -0.5032
      2 C          -3.0261   -0.2435    1.5529 C.ar    1  UNL11       0.1620
      3 C          -1.8131    0.4000    1.6750 C.ar    1  UNL11      -0.0155
      4 C          -0.9093    0.3887    0.6036 C.ar    1  UNL11      -0.0410
      5 C          -1.2044   -0.2525   -0.5758 C.ar    1  UNL11       0.0942
      6 C          -0.2978   -0.2905   -1.7171 C.ar    1  UNL11       0.2491
      7 N          -0.6746   -0.3589   -3.0333 N.ar    1  UNL11      -0.1233
      8 N           0.4097   -0.3654   -3.7482 N.ar    1  UNL11      -0.1713
      9 C           1.5054   -0.3046   -2.9758 C.ar    1  UNL11       0.0743
     10 C           1.0667   -0.2548   -1.6393 C.ar    1  UNL11       0.0773
     11 C           1.9732   -0.1897   -0.5058 C.ar    1  UNL11      -0.0098
     12 C           3.2102   -0.7363   -0.5410 C.ar    1  UNL11      -0.0511
     13 C           4.0807   -0.6800    0.5268 C.ar    1  UNL11      -0.0259
     14 C           3.6890   -0.0437    1.6840 C.ar    1  UNL11       0.1234
     15 F           4.5609   -0.0021    2.7172 F       1  UNL11      -0.2055
     16 C           2.4289    0.5223    1.7419 C.ar    1  UNL11      -0.0259
     17 C           1.5661    0.4489    0.6415 C.ar    1  UNL11      -0.0511
     18 C          -2.4305   -0.9016   -0.6962 C.ar    1  UNL11       0.1757
     19 O          -2.7769   -1.5623   -1.8618 O.3     1  UNL11      -0.5027
     20 C          -3.3091   -0.8870    0.3545 C.ar    1  UNL11       0.2014
     21 O          -4.5130   -1.5254    0.2329 O.3     1  UNL11      -0.5009
     22 H          -3.8395    0.1641    3.4578 H       1  UNL11       0.2923
     23 H          -1.6138    0.8908    2.6043 H       1  UNL11       0.0655
     24 H           0.0304    0.9055    0.7609 H       1  UNL11       0.0628
     25 H          -1.6798   -0.3958   -3.3070 H       1  UNL11       0.4872
     26 H           2.5513   -0.2905   -3.2645 H       1  UNL11       0.0870
     27 H           3.5541   -1.2321   -1.4265 H       1  UNL11       0.0625
     28 H           5.0578   -1.1189    0.4814 H       1  UNL11       0.0646
     29 H           2.1395    1.0199    2.6660 H       1  UNL11       0.0646
     30 H           0.6010    0.9114    0.7576 H       1  UNL11       0.0625
     31 H          -3.6683   -2.0310   -1.9315 H       1  UNL11       0.2923
     32 H          -5.2355   -1.5848    0.9339 H       1  UNL11       0.2924
     33 H           0.4257   -0.4093   -4.7316 H       1  UNL11       0.2358
@<TRIPOS>BOND
     1     1     2    1
     2     1    22    1
     3     2     3   ar
     4     3     4   ar
     5     3    23    1
     6     4     5   ar
     7     4    24    1
     8     5     6    1
     9     5    18   ar
    10     6     7   ar
    11     7     8   ar
    12     7    25    1
    13     8     9   ar
    14     9    10   ar
    15     9    26    1
    16    10    11    1
    17    10     6   ar
    18    11    12   ar
    19    12    13   ar
    20    12    27    1
    21    13    14   ar
    22    13    28    1
    23    14    15    1
    24    14    16   ar
    25    16    17   ar
    26    16    29    1
    27    17    11   ar
    28    17    30    1
    29    18    19    1
    30    18    20   ar
    31    19    31    1
    32    20    21    1
    33    20     2   ar
    34    21    32    1
    35     8    33    1
@<TRIPOS>MOLECULE
*****
 33 35 0 0 0
SMALL
GASTEIGER

@<TRIPOS>ATOM
      1 O          -3.9746   -0.2768    2.5696 O.3     1  UNL11      -0.5032
      2 C          -3.0261   -0.2435    1.5529 C.ar    1  UNL11       0.1620
      3 C          -1.8131    0.4000    1.6750 C.ar    1  UNL11      -0.0155
      4 C          -0.9093    0.3887    0.6036 C.ar    1  UNL11      -0.0410
      5 C          -1.2044   -0.2525   -0.5758 C.ar    1  UNL11       0.0942
      6 C          -0.2978   -0.2905   -1.7171 C.ar    1  UNL11       0.2491
      7 N          -0.6746   -0.3589   -3.0333 N.ar    1  UNL11      -0.1233
      8 N           0.4097   -0.3654   -3.7482 N.ar    1  UNL11      -0.1713
      9 C           1.5054   -0.3046   -2.9758 C.ar    1  UNL11       0.0743
     10 C           1.0667   -0.2548   -1.6393 C.ar    1  UNL11       0.0773
     11 C           1.9732   -0.1897   -0.5058 C.ar    1  UNL11      -0.0098
     12 C           3.3172   -0.1723   -0.6590 C.ar    1  UNL11      -0.0511
     13 C           4.1883   -0.1088    0.4079 C.ar    1  UNL11      -0.0259
     14 C           3.6841   -0.0602    1.6889 C.ar    1  UNL11       0.1234
     15 F           4.5591    0.0015    2.7184 F       1  UNL11      -0.2055
     16 C           2.3133   -0.0767    1.8687 C.ar    1  UNL11      -0.0259
     17 C           1.4530   -0.1420    0.7659 C.ar    1  UNL11      -0.0511
     18 C          -2.4305   -0.9016   -0.6962 C.ar    1  UNL11       0.1757
     19 O          -2.7769   -1.5623   -1.8618 O.3     1  UNL11      -0.5027
     20 C          -3.3091   -0.8870    0.3545 C.ar    1  UNL11       0.2014
     21 O          -4.5130   -1.5254    0.2329 O.3     1  UNL11      -0.5009
     22 H          -3.8395    0.1641    3.4578 H       1  UNL11       0.2923
     23 H          -1.6138    0.8908    2.6043 H       1  UNL11       0.0655
     24 H           0.0304    0.9055    0.7609 H       1  UNL11       0.0628
     25 H          -1.6798   -0.3958   -3.3070 H       1  UNL11       0.4872
     26 H           2.5513   -0.2905   -3.2645 H       1  UNL11       0.0870
     27 H           3.7471   -0.2001   -1.6401 H       1  UNL11       0.0625
     28 H           5.2512   -0.0960    0.2680 H       1  UNL11       0.0646
     29 H           1.9363   -0.0378    2.8893 H       1  UNL11       0.0646
     30 H           0.3983   -0.1512    0.9807 H       1  UNL11       0.0625
     31 H          -3.6683   -2.0310   -1.9315 H       1  UNL11       0.2923
     32 H          -5.2355   -1.5848    0.9339 H       1  UNL11       0.2924
     33 H           0.4257   -0.4093   -4.7316 H       1  UNL11       0.2358
@<TRIPOS>BOND
     1     1     2    1
     2     1    22    1
     3     2     3   ar
     4     3     4   ar
     5     3    23    1
     6     4     5   ar
     7     4    24    1
     8     5     6    1
     9     5    18   ar
    10     6     7   ar
    11     7     8   ar
    12     7    25    1
    13     8     9   ar
    14     9    10   ar
    15     9    26    1
    16    10    11    1
    17    10     6   ar
    18    11    12   ar
    19    12    13   ar
    20    12    27    1
    21    13    14   ar
    22    13    28    1
    23    14    15    1
    24    14    16   ar
    25    16    17   ar
    26    16    29    1
    27    17    11   ar
    28    17    30    1
    29    18    19    1
    30    18    20   ar
    31    19    31    1
    32    20    21    1
    33    20     2   ar
    34    21    32    1
    35     8    33    1
@<TRIPOS>MOLECULE
*****
 33 35 0 0 0
SMALL
GASTEIGER

@<TRIPOS>ATOM
      1 O          -3.9746   -0.2768    2.5696 O.3     1  UNL11      -0.5032
      2 C          -3.0261   -0.2435    1.5529 C.ar    1  UNL11       0.1620
      3 C          -1.8131    0.4000    1.6750 C.ar    1  UNL11      -0.0155
      4 C          -0.9093    0.3887    0.6036 C.ar    1  UNL11      -0.0410
      5 C          -1.2044   -0.2525   -0.5758 C.ar    1  UNL11       0.0942
      6 C          -0.2978   -0.2905   -1.7171 C.ar    1  UNL11       0.2491
      7 N          -0.6746   -0.3589   -3.0333 N.ar    1  UNL11      -0.1233
      8 N           0.4097   -0.3654   -3.7482 N.ar    1  UNL11      -0.1713
      9 C           1.5054   -0.3046   -2.9758 C.ar    1  UNL11       0.0743
     10 C           1.0667   -0.2548   -1.6393 C.ar    1  UNL11       0.0773
     11 C           1.9732   -0.1897   -0.5058 C.ar    1  UNL11      -0.0098
     12 C           3.1900    0.3956   -0.5899 C.ar    1  UNL11      -0.0511
     13 C           4.0588    0.4658    0.4785 C.ar    1  UNL11      -0.0259
     14 C           3.6863   -0.0779    1.6881 C.ar    1  UNL11       0.1234
     15 F           4.5562    0.0036    2.7206 F       1  UNL11      -0.2055
     16 C           2.4469   -0.6809    1.7966 C.ar    1  UNL11      -0.0259
     17 C           1.5856   -0.7375    0.6940 C.ar    1  UNL11      -0.0511
     18 C          -2.4305   -0.9016   -0.6962 C.ar    1  UNL11       0.1757
     19 O          -2.7769   -1.5623   -1.8618 O.3     1  UNL11      -0.5027
     20 C          -3.3091   -0.8870    0.3545 C.ar    1  UNL11       0.2014
     21 O          -4.5130   -1.5254    0.2329 O.3     1  UNL11      -0.5009
     22 H          -3.8395    0.1641    3.4578 H       1  UNL11       0.2923
     23 H          -1.6138    0.8908    2.6043 H       1  UNL11       0.0655
     24 H           0.0304    0.9055    0.7609 H       1  UNL11       0.0628
     25 H          -1.6798   -0.3958   -3.3070 H       1  UNL11       0.4872
     26 H           2.5513   -0.2905   -3.2645 H       1  UNL11       0.0870
     27 H           3.5118    0.8372   -1.5115 H       1  UNL11       0.0625
     28 H           5.0197    0.9335    0.3939 H       1  UNL11       0.0646
     29 H           2.1728   -1.1043    2.7614 H       1  UNL11       0.0646
     30 H           0.6371   -1.2218    0.8512 H       1  UNL11       0.0625
     31 H          -3.6683   -2.0310   -1.9315 H       1  UNL11       0.2923
     32 H          -5.2355   -1.5848    0.9339 H       1  UNL11       0.2924
     33 H           0.4257   -0.4093   -4.7316 H       1  UNL11       0.2358
@<TRIPOS>BOND
     1     1     2    1
     2     1    22    1
     3     2     3   ar
     4     3     4   ar
     5     3    23    1
     6     4     5   ar
     7     4    24    1
     8     5     6    1
     9     5    18   ar
    10     6     7   ar
    11     7     8   ar
    12     7    25    1
    13     8     9   ar
    14     9    10   ar
    15     9    26    1
    16    10    11    1
    17    10     6   ar
    18    11    12   ar
    19    12    13   ar
    20    12    27    1
    21    13    14   ar
    22    13    28    1
    23    14    15    1
    24    14    16   ar
    25    16    17   ar
    26    16    29    1
    27    17    11   ar
    28    17    30    1
    29    18    19    1
    30    18    20   ar
    31    19    31    1
    32    20    21    1
    33    20     2   ar
    34    21    32    1
    35     8    33    1
@<TRIPOS>MOLECULE
*****
 33 35 0 0 0
SMALL
GASTEIGER

@<TRIPOS>ATOM
      1 O          -3.9765   -0.0233    2.5596 O.3     1  UNL11      -0.5032
      2 C          -3.0268   -0.1216    1.5482 C.ar    1  UNL11       0.1620
      3 C          -1.7930   -0.7096    1.7279 C.ar    1  UNL11      -0.0155
      4 C          -0.8893   -0.7697    0.6581 C.ar    1  UNL11      -0.0410
      5 C          -1.2044   -0.2525   -0.5758 C.ar    1  UNL11       0.0942
      6 C          -0.2978   -0.2905   -1.7171 C.ar    1  UNL11       0.2491
      7 N          -0.6746   -0.3589   -3.0333 N.ar    1  UNL11      -0.1233
      8 N           0.4097   -0.3654   -3.7482 N.ar    1  UNL11      -0.1713
      9 C           1.5054   -0.3046   -2.9758 C.ar    1  UNL11       0.0743
     10 C           1.0667   -0.2548   -1.6393 C.ar    1  UNL11       0.0773
     11 C           1.9732   -0.1897   -0.5058 C.ar    1  UNL11      -0.0098
     12 C           3.3172   -0.1723   -0.6590 C.ar    1  UNL11      -0.0511
     13 C           4.1883   -0.1088    0.4079 C.ar    1  UNL11      -0.0259
     14 C           3.6841   -0.0602    1.6889 C.ar    1  UNL11       0.1234
     15 F           4.5591    0.0015    2.7184 F       1  UNL11      -0.2055
     16 C           2.3133   -0.0767    1.8687 C.ar    1  UNL11      -0.0259
     17 C           1.4530   -0.1420    0.7659 C.ar    1  UNL11      -0.0511
     18 C          -2.4515    0.3408   -0.7543 C.ar    1  UNL11       0.1757
     19 O          -2.8187    0.8766   -1.9762 O.3     1  UNL11      -0.5027
     20 C          -3.3301    0.3962    0.2951 C.ar    1  UNL11       0.2014
     21 O          -4.5544    0.9801    0.1166 O.3     1  UNL11      -0.5009
     22 H          -3.8274   -0.3731    3.4854 H       1  UNL11       0.2923
     23 H          -1.5772   -1.1011    2.6996 H       1  UNL11       0.0655
     24 H           0.0619   -1.2496    0.8576 H       1  UNL11       0.0628
     25 H          -1.6798   -0.3958   -3.3070 H       1  UNL11       0.4872
     26 H           2.5513   -0.2905   -3.2645 H       1  UNL11       0.0870
     27 H           3.7471   -0.2001   -1.6401 H       1  UNL11       0.0625
     28 H           5.2512   -0.0960    0.2680 H       1  UNL11       0.0646
     29 H           1.9363   -0.0378    2.8893 H       1  UNL11       0.0646
     30 H           0.3983   -0.1512    0.9807 H       1  UNL11       0.0625
     31 H          -3.7281    1.3001   -2.0899 H       1  UNL11       0.2923
     32 H          -5.2808    1.0774    0.8093 H       1  UNL11       0.2924
     33 H           0.4257   -0.4093   -4.7316 H       1  UNL11       0.2358
@<TRIPOS>BOND
     1     1     2    1
     2     1    22    1
     3     2     3   ar
     4     3     4   ar
     5     3    23    1
     6     4     5   ar
     7     4    24    1
     8     5     6    1
     9     5    18   ar
    10     6     7   ar
    11     7     8   ar
    12     7    25    1
    13     8     9   ar
    14     9    10   ar
    15     9    26    1
    16    10    11    1
    17    10     6   ar
    18    11    12   ar
    19    12    13   ar
    20    12    27    1
    21    13    14   ar
    22    13    28    1
    23    14    15    1
    24    14    16   ar
    25    16    17   ar
    26    16    29    1
    27    17    11   ar
    28    17    30    1
    29    18    19    1
    30    18    20   ar
    31    19    31    1
    32    20    21    1
    33    20     2   ar
    34    21    32    1
    35     8    33    1
@<TRIPOS>MOLECULE
*****
 33 35 0 0 0
SMALL
GASTEIGER

@<TRIPOS>ATOM
      1 O          -3.9765   -0.0233    2.5596 O.3     1  UNL11      -0.5032
      2 C          -3.0268   -0.1216    1.5482 C.ar    1  UNL11       0.1620
      3 C          -1.7930   -0.7096    1.7279 C.ar    1  UNL11      -0.0155
      4 C          -0.8893   -0.7697    0.6581 C.ar    1  UNL11      -0.0410
      5 C          -1.2044   -0.2525   -0.5758 C.ar    1  UNL11       0.0942
      6 C          -0.2978   -0.2905   -1.7171 C.ar    1  UNL11       0.2491
      7 N          -0.6746   -0.3589   -3.0333 N.ar    1  UNL11      -0.1233
      8 N           0.4097   -0.3654   -3.7482 N.ar    1  UNL11      -0.1713
      9 C           1.5054   -0.3046   -2.9758 C.ar    1  UNL11       0.0743
     10 C           1.0667   -0.2548   -1.6393 C.ar    1  UNL11       0.0773
     11 C           1.9732   -0.1897   -0.5058 C.ar    1  UNL11      -0.0098
     12 C           3.2102   -0.7363   -0.5410 C.ar    1  UNL11      -0.0511
     13 C           4.0807   -0.6800    0.5268 C.ar    1  UNL11      -0.0259
     14 C           3.6890   -0.0437    1.6840 C.ar    1  UNL11       0.1234
     15 F           4.5609   -0.0021    2.7172 F       1  UNL11      -0.2055
     16 C           2.4289    0.5223    1.7419 C.ar    1  UNL11      -0.0259
     17 C           1.5661    0.4489    0.6415 C.ar    1  UNL11      -0.0511
     18 C          -2.4515    0.3408   -0.7543 C.ar    1  UNL11       0.1757
     19 O          -2.8187    0.8766   -1.9762 O.3     1  UNL11      -0.5027
     20 C          -3.3301    0.3962    0.2951 C.ar    1  UNL11       0.2014
     21 O          -4.5544    0.9801    0.1166 O.3     1  UNL11      -0.5009
     22 H          -3.8274   -0.3731    3.4854 H       1  UNL11       0.2923
     23 H          -1.5772   -1.1011    2.6996 H       1  UNL11       0.0655
     24 H           0.0619   -1.2496    0.8576 H       1  UNL11       0.0628
     25 H          -1.6798   -0.3958   -3.3070 H       1  UNL11       0.4872
     26 H           2.5513   -0.2905   -3.2645 H       1  UNL11       0.0870
     27 H           3.5541   -1.2321   -1.4265 H       1  UNL11       0.0625
     28 H           5.0578   -1.1189    0.4814 H       1  UNL11       0.0646
     29 H           2.1395    1.0199    2.6660 H       1  UNL11       0.0646
     30 H           0.6010    0.9114    0.7576 H       1  UNL11       0.0625
     31 H          -3.7281    1.3001   -2.0899 H       1  UNL11       0.2923
     32 H          -5.2808    1.0774    0.8093 H       1  UNL11       0.2924
     33 H           0.4257   -0.4093   -4.7316 H       1  UNL11       0.2358
@<TRIPOS>BOND
     1     1     2    1
     2     1    22    1
     3     2     3   ar
     4     3     4   ar
     5     3    23    1
     6     4     5   ar
     7     4    24    1
     8     5     6    1
     9     5    18   ar
    10     6     7   ar
    11     7     8   ar
    12     7    25    1
    13     8     9   ar
    14     9    10   ar
    15     9    26    1
    16    10    11    1
    17    10     6   ar
    18    11    12   ar
    19    12    13   ar
    20    12    27    1
    21    13    14   ar
    22    13    28    1
    23    14    15    1
    24    14    16   ar
    25    16    17   ar
    26    16    29    1
    27    17    11   ar
    28    17    30    1
    29    18    19    1
    30    18    20   ar
    31    19    31    1
    32    20    21    1
    33    20     2   ar
    34    21    32    1
    35     8    33    1
@<TRIPOS>MOLECULE
*****
 33 35 0 0 0
SMALL
GASTEIGER

@<TRIPOS>ATOM
      1 O          -4.0024   -0.1541    2.5433 O.3     1  UNL11      -0.5032
      2 C          -3.0394   -0.1845    1.5403 C.ar    1  UNL11       0.1620
      3 C          -1.6853   -0.1347    1.7942 C.ar    1  UNL11      -0.0155
      4 C          -0.7764   -0.1697    0.7278 C.ar    1  UNL11      -0.0410
      5 C          -1.2044   -0.2525   -0.5758 C.ar    1  UNL11       0.0942
      6 C          -0.2978   -0.2905   -1.7171 C.ar    1  UNL11       0.2491
      7 N          -0.6746   -0.3589   -3.0333 N.ar    1  UNL11      -0.1233
      8 N           0.4097   -0.3654   -3.7482 N.ar    1  UNL11      -0.1713
      9 C           1.5054   -0.3046   -2.9758 C.ar    1  UNL11       0.0743
     10 C           1.0667   -0.2548   -1.6393 C.ar    1  UNL11       0.0773
     11 C           1.9732   -0.1897   -0.5058 C.ar    1  UNL11      -0.0098
     12 C           3.1900    0.3956   -0.5899 C.ar    1  UNL11      -0.0511
     13 C           4.0588    0.4658    0.4785 C.ar    1  UNL11      -0.0259
     14 C           3.6863   -0.0779    1.6881 C.ar    1  UNL11       0.1234
     15 F           4.5562    0.0036    2.7206 F       1  UNL11      -0.2055
     16 C           2.4469   -0.6809    1.7966 C.ar    1  UNL11      -0.0259
     17 C           1.5856   -0.7375    0.6940 C.ar    1  UNL11      -0.0511
     18 C          -2.5727   -0.3027   -0.8292 C.ar    1  UNL11       0.1757
     19 O          -3.0564   -0.3866   -2.1230 O.3     1  UNL11      -0.5027
     20 C          -3.4557   -0.2683    0.2175 C.ar    1  UNL11       0.2014
     21 O          -4.7994   -0.3174   -0.0349 O.3     1  UNL11      -0.5009
     22 H          -3.7765   -0.0944    3.5165 H       1  UNL11       0.2923
     23 H          -1.3843   -0.0689    2.8185 H       1  UNL11       0.0655
     24 H           0.2748   -0.1343    0.9896 H       1  UNL11       0.0628
     25 H          -1.6798   -0.3958   -3.3070 H       1  UNL11       0.4872
     26 H           2.5513   -0.2905   -3.2645 H       1  UNL11       0.0870
     27 H           3.5118    0.8372   -1.5115 H       1  UNL11       0.0625
     28 H           5.0197    0.9335    0.3939 H       1  UNL11       0.0646
     29 H           2.1728   -1.1043    2.7614 H       1  UNL11       0.0646
     30 H           0.6371   -1.2218    0.8512 H       1  UNL11       0.0625
     31 H          -4.0515   -0.4258   -2.2893 H       1  UNL11       0.2923
     32 H          -5.5405   -0.3015    0.6489 H       1  UNL11       0.2924
     33 H           0.4257   -0.4093   -4.7316 H       1  UNL11       0.2358
@<TRIPOS>BOND
     1     1     2    1
     2     1    22    1
     3     2     3   ar
     4     3     4   ar
     5     3    23    1
     6     4     5   ar
     7     4    24    1
     8     5     6    1
     9     5    18   ar
    10     6     7   ar
    11     7     8   ar
    12     7    25    1
    13     8     9   ar
    14     9    10   ar
    15     9    26    1
    16    10    11    1
    17    10     6   ar
    18    11    12   ar
    19    12    13   ar
    20    12    27    1
    21    13    14   ar
    22    13    28    1
    23    14    15    1
    24    14    16   ar
    25    16    17   ar
    26    16    29    1
    27    17    11   ar
    28    17    30    1
    29    18    19    1
    30    18    20   ar
    31    19    31    1
    32    20    21    1
    33    20     2   ar
    34    21    32    1
    35     8    33    1
@<TRIPOS>MOLECULE
*****
 33 35 0 0 0
SMALL
GASTEIGER

@<TRIPOS>ATOM
      1 O          -4.0024   -0.1541    2.5433 O.3     1  UNL11      -0.5032
      2 C          -3.0394   -0.1845    1.5403 C.ar    1  UNL11       0.1620
      3 C          -1.6853   -0.1347    1.7942 C.ar    1  UNL11      -0.0155
      4 C          -0.7764   -0.1697    0.7278 C.ar    1  UNL11      -0.0410
      5 C          -1.2044   -0.2525   -0.5758 C.ar    1  UNL11       0.0942
      6 C          -0.2978   -0.2905   -1.7171 C.ar    1  UNL11       0.2491
      7 N          -0.6746   -0.3589   -3.0333 N.ar    1  UNL11      -0.1233
      8 N           0.4097   -0.3654   -3.7482 N.ar    1  UNL11      -0.1713
      9 C           1.5054   -0.3046   -2.9758 C.ar    1  UNL11       0.0743
     10 C           1.0667   -0.2548   -1.6393 C.ar    1  UNL11       0.0773
     11 C           1.9732   -0.1897   -0.5058 C.ar    1  UNL11      -0.0098
     12 C           3.3172   -0.1723   -0.6590 C.ar    1  UNL11      -0.0511
     13 C           4.1883   -0.1088    0.4079 C.ar    1  UNL11      -0.0259
     14 C           3.6841   -0.0602    1.6889 C.ar    1  UNL11       0.1234
     15 F           4.5591    0.0015    2.7184 F       1  UNL11      -0.2055
     16 C           2.3133   -0.0767    1.8687 C.ar    1  UNL11      -0.0259
     17 C           1.4530   -0.1420    0.7659 C.ar    1  UNL11      -0.0511
     18 C          -2.5727   -0.3027   -0.8292 C.ar    1  UNL11       0.1757
     19 O          -3.0564   -0.3866   -2.1230 O.3     1  UNL11      -0.5027
     20 C          -3.4557   -0.2683    0.2175 C.ar    1  UNL11       0.2014
     21 O          -4.7994   -0.3174   -0.0349 O.3     1  UNL11      -0.5009
     22 H          -3.7765   -0.0944    3.5165 H       1  UNL11       0.2923
     23 H          -1.3843   -0.0689    2.8185 H       1  UNL11       0.0655
     24 H           0.2748   -0.1343    0.9896 H       1  UNL11       0.0628
     25 H          -1.6798   -0.3958   -3.3070 H       1  UNL11       0.4872
     26 H           2.5513   -0.2905   -3.2645 H       1  UNL11       0.0870
     27 H           3.7471   -0.2001   -1.6401 H       1  UNL11       0.0625
     28 H           5.2512   -0.0960    0.2680 H       1  UNL11       0.0646
     29 H           1.9363   -0.0378    2.8893 H       1  UNL11       0.0646
     30 H           0.3983   -0.1512    0.9807 H       1  UNL11       0.0625
     31 H          -4.0515   -0.4258   -2.2893 H       1  UNL11       0.2923
     32 H          -5.5405   -0.3015    0.6489 H       1  UNL11       0.2924
     33 H           0.4257   -0.4093   -4.7316 H       1  UNL11       0.2358
@<TRIPOS>BOND
     1     1     2    1
     2     1    22    1
     3     2     3   ar
     4     3     4   ar
     5     3    23    1
     6     4     5   ar
     7     4    24    1
     8     5     6    1
     9     5    18   ar
    10     6     7   ar
    11     7     8   ar
    12     7    25    1
    13     8     9   ar
    14     9    10   ar
    15     9    26    1
    16    10    11    1
    17    10     6   ar
    18    11    12   ar
    19    12    13   ar
    20    12    27    1
    21    13    14   ar
    22    13    28    1
    23    14    15    1
    24    14    16   ar
    25    16    17   ar
    26    16    29    1
    27    17    11   ar
    28    17    30    1
    29    18    19    1
    30    18    20   ar
    31    19    31    1
    32    20    21    1
    33    20     2   ar
    34    21    32    1
    35     8    33    1
@<TRIPOS>MOLECULE
*****
 33 35 0 0 0
SMALL
GASTEIGER

@<TRIPOS>ATOM
      1 O          -4.0024   -0.1541    2.5433 O.3     1  UNL11      -0.5032
      2 C          -3.0394   -0.1845    1.5403 C.ar    1  UNL11       0.1620
      3 C          -1.6853   -0.1347    1.7942 C.ar    1  UNL11      -0.0155
      4 C          -0.7764   -0.1697    0.7278 C.ar    1  UNL11      -0.0410
      5 C          -1.2044   -0.2525   -0.5758 C.ar    1  UNL11       0.0942
      6 C          -0.2978   -0.2905   -1.7171 C.ar    1  UNL11       0.2491
      7 N          -0.6746   -0.3589   -3.0333 N.ar    1  UNL11      -0.1233
      8 N           0.4097   -0.3654   -3.7482 N.ar    1  UNL11      -0.1713
      9 C           1.5054   -0.3046   -2.9758 C.ar    1  UNL11       0.0743
     10 C           1.0667   -0.2548   -1.6393 C.ar    1  UNL11       0.0773
     11 C           1.9732   -0.1897   -0.5058 C.ar    1  UNL11      -0.0098
     12 C           3.2102   -0.7363   -0.5410 C.ar    1  UNL11      -0.0511
     13 C           4.0807   -0.6800    0.5268 C.ar    1  UNL11      -0.0259
     14 C           3.6890   -0.0437    1.6840 C.ar    1  UNL11       0.1234
     15 F           4.5609   -0.0021    2.7172 F       1  UNL11      -0.2055
     16 C           2.4289    0.5223    1.7419 C.ar    1  UNL11      -0.0259
     17 C           1.5661    0.4489    0.6415 C.ar    1  UNL11      -0.0511
     18 C          -2.5727   -0.3027   -0.8292 C.ar    1  UNL11       0.1757
     19 O          -3.0564   -0.3866   -2.1230 O.3     1  UNL11      -0.5027
     20 C          -3.4557   -0.2683    0.2175 C.ar    1  UNL11       0.2014
     21 O          -4.7994   -0.3174   -0.0349 O.3     1  UNL11      -0.5009
     22 H          -3.7765   -0.0944    3.5165 H       1  UNL11       0.2923
     23 H          -1.3843   -0.0689    2.8185 H       1  UNL11       0.0655
     24 H           0.2748   -0.1343    0.9896 H       1  UNL11       0.0628
     25 H          -1.6798   -0.3958   -3.3070 H       1  UNL11       0.4872
     26 H           2.5513   -0.2905   -3.2645 H       1  UNL11       0.0870
     27 H           3.5541   -1.2321   -1.4265 H       1  UNL11       0.0625
     28 H           5.0578   -1.1189    0.4814 H       1  UNL11       0.0646
     29 H           2.1395    1.0199    2.6660 H       1  UNL11       0.0646
     30 H           0.6010    0.9114    0.7576 H       1  UNL11       0.0625
     31 H          -4.0515   -0.4258   -2.2893 H       1  UNL11       0.2923
     32 H          -5.5405   -0.3015    0.6489 H       1  UNL11       0.2924
     33 H           0.4257   -0.4093   -4.7316 H       1  UNL11       0.2358
@<TRIPOS>BOND
     1     1     2    1
     2     1    22    1
     3     2     3   ar
     4     3     4   ar
     5     3    23    1
     6     4     5   ar
     7     4    24    1
     8     5     6    1
     9     5    18   ar
    10     6     7   ar
    11     7     8   ar
    12     7    25    1
    13     8     9   ar
    14     9    10   ar
    15     9    26    1
    16    10    11    1
    17    10     6   ar
    18    11    12   ar
    19    12    13   ar
    20    12    27    1
    21    13    14   ar
    22    13    28    1
    23    14    15    1
    24    14    16   ar
    25    16    17   ar
    26    16    29    1
    27    17    11   ar
    28    17    30    1
    29    18    19    1
    30    18    20   ar
    31    19    31    1
    32    20    21    1
    33    20     2   ar
    34    21    32    1
    35     8    33    1
@<TRIPOS>MOLECULE
*****
 33 35 0 0 0
SMALL
GASTEIGER

@<TRIPOS>ATOM
      1 O          -3.9765   -0.0233    2.5596 O.3     1  UNL11      -0.5032
      2 C          -3.0268   -0.1216    1.5482 C.ar    1  UNL11       0.1620
      3 C          -1.7930   -0.7096    1.7279 C.ar    1  UNL11      -0.0155
      4 C          -0.8893   -0.7697    0.6581 C.ar    1  UNL11      -0.0410
      5 C          -1.2044   -0.2525   -0.5758 C.ar    1  UNL11       0.0942
      6 C          -0.2978   -0.2905   -1.7171 C.ar    1  UNL11       0.2491
      7 N          -0.6746   -0.3589   -3.0333 N.ar    1  UNL11      -0.1233
      8 N           0.4097   -0.3654   -3.7482 N.ar    1  UNL11      -0.1713
      9 C           1.5054   -0.3046   -2.9758 C.ar    1  UNL11       0.0743
     10 C           1.0667   -0.2548   -1.6393 C.ar    1  UNL11       0.0773
     11 C           1.9732   -0.1897   -0.5058 C.ar    1  UNL11      -0.0098
     12 C           1.5278   -0.1567    0.7712 C.ar    1  UNL11      -0.0511
     13 C           2.3772   -0.0968    1.8556 C.ar    1  UNL11      -0.0259
     14 C           3.7384   -0.0692    1.6460 C.ar    1  UNL11       0.1234
     15 F           4.5504   -0.0102    2.7260 F       1  UNL11      -0.2055
     16 C           4.2157   -0.1022    0.3488 C.ar    1  UNL11      -0.0259
     17 C           3.3288   -0.1626   -0.7330 C.ar    1  UNL11      -0.0511
     18 C          -2.4515    0.3408   -0.7543 C.ar    1  UNL11       0.1757
     19 O          -2.8187    0.8766   -1.9762 O.3     1  UNL11      -0.5027
     20 C          -3.3301    0.3962    0.2951 C.ar    1  UNL11       0.2014
     21 O          -4.5544    0.9801    0.1166 O.3     1  UNL11      -0.5009
     22 H          -3.8274   -0.3731    3.4854 H       1  UNL11       0.2923
     23 H          -1.5772   -1.1011    2.6996 H       1  UNL11       0.0655
     24 H           0.0619   -1.2496    0.8576 H       1  UNL11       0.0628
     25 H          -1.6798   -0.3958   -3.3070 H       1  UNL11       0.4872
     26 H           2.5513   -0.2905   -3.2645 H       1  UNL11       0.0870
     27 H           0.4762   -0.1852    0.9749 H       1  UNL11       0.0625
     28 H           2.0067   -0.0712    2.8613 H       1  UNL11       0.0646
     29 H           5.2947   -0.0792    0.2058 H       1  UNL11       0.0646
     30 H           3.7707   -0.1856   -1.7144 H       1  UNL11       0.0625
     31 H          -3.7281    1.3001   -2.0899 H       1  UNL11       0.2923
     32 H          -5.2808    1.0774    0.8093 H       1  UNL11       0.2924
     33 H           0.4257   -0.4093   -4.7316 H       1  UNL11       0.2358
@<TRIPOS>BOND
     1     1     2    1
     2     1    22    1
     3     2     3   ar
     4     3     4   ar
     5     3    23    1
     6     4     5   ar
     7     4    24    1
     8     5     6    1
     9     5    18   ar
    10     6     7   ar
    11     7     8   ar
    12     7    25    1
    13     8     9   ar
    14     9    10   ar
    15     9    26    1
    16    10    11    1
    17    10     6   ar
    18    11    12   ar
    19    12    13   ar
    20    12    27    1
    21    13    14   ar
    22    13    28    1
    23    14    15    1
    24    14    16   ar
    25    16    17   ar
    26    16    29    1
    27    17    11   ar
    28    17    30    1
    29    18    19    1
    30    18    20   ar
    31    19    31    1
    32    20    21    1
    33    20     2   ar
    34    21    32    1
    35     8    33    1
@<TRIPOS>MOLECULE
*****
 33 35 0 0 0
SMALL
GASTEIGER

@<TRIPOS>ATOM
      1 O          -3.9765   -0.0233    2.5596 O.3     1  UNL11      -0.5032
      2 C          -3.0268   -0.1216    1.5482 C.ar    1  UNL11       0.1620
      3 C          -1.7930   -0.7096    1.7279 C.ar    1  UNL11      -0.0155
      4 C          -0.8893   -0.7697    0.6581 C.ar    1  UNL11      -0.0410
      5 C          -1.2044   -0.2525   -0.5758 C.ar    1  UNL11       0.0942
      6 C          -0.2978   -0.2905   -1.7171 C.ar    1  UNL11       0.2491
      7 N          -0.6746   -0.3589   -3.0333 N.ar    1  UNL11      -0.1233
      8 N           0.4097   -0.3654   -3.7482 N.ar    1  UNL11      -0.1713
      9 C           1.5054   -0.3046   -2.9758 C.ar    1  UNL11       0.0743
     10 C           1.0667   -0.2548   -1.6393 C.ar    1  UNL11       0.0773
     11 C           1.9732   -0.1897   -0.5058 C.ar    1  UNL11      -0.0098
     12 C           1.6604   -0.7228    0.6976 C.ar    1  UNL11      -0.0511
     13 C           2.5122   -0.6695    1.7806 C.ar    1  UNL11      -0.0259
     14 C           3.7360   -0.0515    1.6469 C.ar    1  UNL11       0.1234
     15 F           4.5533   -0.0122    2.7238 F       1  UNL11      -0.2055
     16 C           4.0764    0.5001    0.4256 C.ar    1  UNL11      -0.0259
     17 C           3.1905    0.4311   -0.6566 C.ar    1  UNL11      -0.0511
     18 C          -2.4515    0.3408   -0.7543 C.ar    1  UNL11       0.1757
     19 O          -2.8187    0.8766   -1.9762 O.3     1  UNL11      -0.5027
     20 C          -3.3301    0.3962    0.2951 C.ar    1  UNL11       0.2014
     21 O          -4.5544    0.9801    0.1166 O.3     1  UNL11      -0.5009
     22 H          -3.8274   -0.3731    3.4854 H       1  UNL11       0.2923
     23 H          -1.5772   -1.1011    2.6996 H       1  UNL11       0.0655
     24 H           0.0619   -1.2496    0.8576 H       1  UNL11       0.0628
     25 H          -1.6798   -0.3958   -3.3070 H       1  UNL11       0.4872
     26 H           2.5513   -0.2905   -3.2645 H       1  UNL11       0.0870
     27 H           0.7214   -1.2192    0.8382 H       1  UNL11       0.0625
     28 H           2.2479   -1.0975    2.7273 H       1  UNL11       0.0646
     29 H           5.0481    0.9840    0.3420 H       1  UNL11       0.0646
     30 H           3.5216    0.8816   -1.5765 H       1  UNL11       0.0625
     31 H          -3.7281    1.3001   -2.0899 H       1  UNL11       0.2923
     32 H          -5.2808    1.0774    0.8093 H       1  UNL11       0.2924
     33 H           0.4257   -0.4093   -4.7316 H       1  UNL11       0.2358
@<TRIPOS>BOND
     1     1     2    1
     2     1    22    1
     3     2     3   ar
     4     3     4   ar
     5     3    23    1
     6     4     5   ar
     7     4    24    1
     8     5     6    1
     9     5    18   ar
    10     6     7   ar
    11     7     8   ar
    12     7    25    1
    13     8     9   ar
    14     9    10   ar
    15     9    26    1
    16    10    11    1
    17    10     6   ar
    18    11    12   ar
    19    12    13   ar
    20    12    27    1
    21    13    14   ar
    22    13    28    1
    23    14    15    1
    24    14    16   ar
    25    16    17   ar
    26    16    29    1
    27    17    11   ar
    28    17    30    1
    29    18    19    1
    30    18    20   ar
    31    19    31    1
    32    20    21    1
    33    20     2   ar
    34    21    32    1
    35     8    33    1
@<TRIPOS>MOLECULE
*****
 33 35 0 0 0
SMALL
GASTEIGER

@<TRIPOS>ATOM
      1 O          -3.9746   -0.2768    2.5696 O.3     1  UNL11      -0.5032
      2 C          -3.0261   -0.2435    1.5529 C.ar    1  UNL11       0.1620
      3 C          -1.8131    0.4000    1.6750 C.ar    1  UNL11      -0.0155
      4 C          -0.9093    0.3887    0.6036 C.ar    1  UNL11      -0.0410
      5 C          -1.2044   -0.2525   -0.5758 C.ar    1  UNL11       0.0942
      6 C          -0.2978   -0.2905   -1.7171 C.ar    1  UNL11       0.2491
      7 N          -0.6746   -0.3589   -3.0333 N.ar    1  UNL11      -0.1233
      8 N           0.4097   -0.3654   -3.7482 N.ar    1  UNL11      -0.1713
      9 C           1.5054   -0.3046   -2.9758 C.ar    1  UNL11       0.0743
     10 C           1.0667   -0.2548   -1.6393 C.ar    1  UNL11       0.0773
     11 C           1.9732   -0.1897   -0.5058 C.ar    1  UNL11      -0.0098
     12 C           1.5278   -0.1567    0.7712 C.ar    1  UNL11      -0.0511
     13 C           2.3772   -0.0968    1.8556 C.ar    1  UNL11      -0.0259
     14 C           3.7384   -0.0692    1.6460 C.ar    1  UNL11       0.1234
     15 F           4.5504   -0.0102    2.7260 F       1  UNL11      -0.2055
     16 C           4.2157   -0.1022    0.3488 C.ar    1  UNL11      -0.0259
     17 C           3.3288   -0.1626   -0.7330 C.ar    1  UNL11      -0.0511
     18 C          -2.4305   -0.9016   -0.6962 C.ar    1  UNL11       0.1757
     19 O          -2.7769   -1.5623   -1.8618 O.3     1  UNL11      -0.5027
     20 C          -3.3091   -0.8870    0.3545 C.ar    1  UNL11       0.2014
     21 O          -4.5130   -1.5254    0.2329 O.3     1  UNL11      -0.5009
     22 H          -3.8395    0.1641    3.4578 H       1  UNL11       0.2923
     23 H          -1.6138    0.8908    2.6043 H       1  UNL11       0.0655
     24 H           0.0304    0.9055    0.7609 H       1  UNL11       0.0628
     25 H          -1.6798   -0.3958   -3.3070 H       1  UNL11       0.4872
     26 H           2.5513   -0.2905   -3.2645 H       1  UNL11       0.0870
     27 H           0.4762   -0.1852    0.9749 H       1  UNL11       0.0625
     28 H           2.0067   -0.0712    2.8613 H       1  UNL11       0.0646
     29 H           5.2947   -0.0792    0.2058 H       1  UNL11       0.0646
     30 H           3.7707   -0.1856   -1.7144 H       1  UNL11       0.0625
     31 H          -3.6683   -2.0310   -1.9315 H       1  UNL11       0.2923
     32 H          -5.2355   -1.5848    0.9339 H       1  UNL11       0.2924
     33 H           0.4257   -0.4093   -4.7316 H       1  UNL11       0.2358
@<TRIPOS>BOND
     1     1     2    1
     2     1    22    1
     3     2     3   ar
     4     3     4   ar
     5     3    23    1
     6     4     5   ar
     7     4    24    1
     8     5     6    1
     9     5    18   ar
    10     6     7   ar
    11     7     8   ar
    12     7    25    1
    13     8     9   ar
    14     9    10   ar
    15     9    26    1
    16    10    11    1
    17    10     6   ar
    18    11    12   ar
    19    12    13   ar
    20    12    27    1
    21    13    14   ar
    22    13    28    1
    23    14    15    1
    24    14    16   ar
    25    16    17   ar
    26    16    29    1
    27    17    11   ar
    28    17    30    1
    29    18    19    1
    30    18    20   ar
    31    19    31    1
    32    20    21    1
    33    20     2   ar
    34    21    32    1
    35     8    33    1
@<TRIPOS>MOLECULE
*****
 33 35 0 0 0
SMALL
GASTEIGER

@<TRIPOS>ATOM
      1 O          -3.9746   -0.2768    2.5696 O.3     1  UNL11      -0.5032
      2 C          -3.0261   -0.2435    1.5529 C.ar    1  UNL11       0.1620
      3 C          -1.8131    0.4000    1.6750 C.ar    1  UNL11      -0.0155
      4 C          -0.9093    0.3887    0.6036 C.ar    1  UNL11      -0.0410
      5 C          -1.2044   -0.2525   -0.5758 C.ar    1  UNL11       0.0942
      6 C          -0.2978   -0.2905   -1.7171 C.ar    1  UNL11       0.2491
      7 N          -0.6746   -0.3589   -3.0333 N.ar    1  UNL11      -0.1233
      8 N           0.4097   -0.3654   -3.7482 N.ar    1  UNL11      -0.1713
      9 C           1.5054   -0.3046   -2.9758 C.ar    1  UNL11       0.0743
     10 C           1.0667   -0.2548   -1.6393 C.ar    1  UNL11       0.0773
     11 C           1.9732   -0.1897   -0.5058 C.ar    1  UNL11      -0.0098
     12 C           1.6604   -0.7228    0.6976 C.ar    1  UNL11      -0.0511
     13 C           2.5122   -0.6695    1.7806 C.ar    1  UNL11      -0.0259
     14 C           3.7360   -0.0515    1.6469 C.ar    1  UNL11       0.1234
     15 F           4.5533   -0.0122    2.7238 F       1  UNL11      -0.2055
     16 C           4.0764    0.5001    0.4256 C.ar    1  UNL11      -0.0259
     17 C           3.1905    0.4311   -0.6566 C.ar    1  UNL11      -0.0511
     18 C          -2.4305   -0.9016   -0.6962 C.ar    1  UNL11       0.1757
     19 O          -2.7769   -1.5623   -1.8618 O.3     1  UNL11      -0.5027
     20 C          -3.3091   -0.8870    0.3545 C.ar    1  UNL11       0.2014
     21 O          -4.5130   -1.5254    0.2329 O.3     1  UNL11      -0.5009
     22 H          -3.8395    0.1641    3.4578 H       1  UNL11       0.2923
     23 H          -1.6138    0.8908    2.6043 H       1  UNL11       0.0655
     24 H           0.0304    0.9055    0.7609 H       1  UNL11       0.0628
     25 H          -1.6798   -0.3958   -3.3070 H       1  UNL11       0.4872
     26 H           2.5513   -0.2905   -3.2645 H       1  UNL11       0.0870
     27 H           0.7214   -1.2192    0.8382 H       1  UNL11       0.0625
     28 H           2.2479   -1.0975    2.7273 H       1  UNL11       0.0646
     29 H           5.0481    0.9840    0.3420 H       1  UNL11       0.0646
     30 H           3.5216    0.8816   -1.5765 H       1  UNL11       0.0625
     31 H          -3.6683   -2.0310   -1.9315 H       1  UNL11       0.2923
     32 H          -5.2355   -1.5848    0.9339 H       1  UNL11       0.2924
     33 H           0.4257   -0.4093   -4.7316 H       1  UNL11       0.2358
@<TRIPOS>BOND
     1     1     2    1
     2     1    22    1
     3     2     3   ar
     4     3     4   ar
     5     3    23    1
     6     4     5   ar
     7     4    24    1
     8     5     6    1
     9     5    18   ar
    10     6     7   ar
    11     7     8   ar
    12     7    25    1
    13     8     9   ar
    14     9    10   ar
    15     9    26    1
    16    10    11    1
    17    10     6   ar
    18    11    12   ar
    19    12    13   ar
    20    12    27    1
    21    13    14   ar
    22    13    28    1
    23    14    15    1
    24    14    16   ar
    25    16    17   ar
    26    16    29    1
    27    17    11   ar
    28    17    30    1
    29    18    19    1
    30    18    20   ar
    31    19    31    1
    32    20    21    1
    33    20     2   ar
    34    21    32    1
    35     8    33    1
@<TRIPOS>MOLECULE
*****
 33 35 0 0 0
SMALL
GASTEIGER

@<TRIPOS>ATOM
      1 O          -3.6359   -0.0128    2.8298 O.3     1  UNL11      -0.5032
      2 C          -2.8631   -0.1169    1.6782 C.ar    1  UNL11       0.1620
      3 C          -3.2840   -0.7811    0.5459 C.ar    1  UNL11      -0.0155
      4 C          -2.4459   -0.8424   -0.5760 C.ar    1  UNL11      -0.0410
      5 C          -1.2044   -0.2525   -0.5758 C.ar    1  UNL11       0.0942
      6 C          -0.2978   -0.2905   -1.7171 C.ar    1  UNL11       0.2491
      7 N          -0.6746   -0.3589   -3.0333 N.ar    1  UNL11      -0.1233
      8 N           0.4097   -0.3654   -3.7482 N.ar    1  UNL11      -0.1713
      9 C           1.5054   -0.3046   -2.9758 C.ar    1  UNL11       0.0743
     10 C           1.0667   -0.2548   -1.6393 C.ar    1  UNL11       0.0773
     11 C           1.9732   -0.1897   -0.5058 C.ar    1  UNL11      -0.0098
     12 C           1.6604   -0.7228    0.6976 C.ar    1  UNL11      -0.0511
     13 C           2.5122   -0.6695    1.7806 C.ar    1  UNL11      -0.0259
     14 C           3.7360   -0.0515    1.6469 C.ar    1  UNL11       0.1234
     15 F           4.5533   -0.0122    2.7238 F       1  UNL11      -0.2055
     16 C           4.0764    0.5001    0.4256 C.ar    1  UNL11      -0.0259
     17 C           3.1905    0.4311   -0.6566 C.ar    1  UNL11      -0.0511
     18 C          -0.7819    0.4178    0.5693 C.ar    1  UNL11       0.1757
     19 O           0.4585    1.0289    0.6220 O.3     1  UNL11      -0.5027
     20 C          -1.6058    0.4741    1.6622 C.ar    1  UNL11       0.2014
     21 O          -1.1877    1.1331    2.7859 O.3     1  UNL11      -0.5009
     22 H          -4.5494   -0.4130    2.9131 H       1  UNL11       0.2923
     23 H          -4.2540   -1.2308    0.5776 H       1  UNL11       0.0655
     24 H          -2.8337   -1.3721   -1.4384 H       1  UNL11       0.0628
     25 H          -1.6798   -0.3958   -3.3070 H       1  UNL11       0.4872
     26 H           2.5513   -0.2905   -3.2645 H       1  UNL11       0.0870
     27 H           0.7214   -1.2192    0.8382 H       1  UNL11       0.0625
     28 H           2.2479   -1.0975    2.7273 H       1  UNL11       0.0646
     29 H           5.0481    0.9840    0.3420 H       1  UNL11       0.0646
     30 H           3.5216    0.8816   -1.5765 H       1  UNL11       0.0625
     31 H           0.7482    1.5139    1.4588 H       1  UNL11       0.2923
     32 H          -1.7035    1.2428    3.6454 H       1  UNL11       0.2924
     33 H           0.4257   -0.4093   -4.7316 H       1  UNL11       0.2358
@<TRIPOS>BOND
     1     1     2    1
     2     1    22    1
     3     2     3   ar
     4     3     4   ar
     5     3    23    1
     6     4     5   ar
     7     4    24    1
     8     5     6    1
     9     5    18   ar
    10     6     7   ar
    11     7     8   ar
    12     7    25    1
    13     8     9   ar
    14     9    10   ar
    15     9    26    1
    16    10    11    1
    17    10     6   ar
    18    11    12   ar
    19    12    13   ar
    20    12    27    1
    21    13    14   ar
    22    13    28    1
    23    14    15    1
    24    14    16   ar
    25    16    17   ar
    26    16    29    1
    27    17    11   ar
    28    17    30    1
    29    18    19    1
    30    18    20   ar
    31    19    31    1
    32    20    21    1
    33    20     2   ar
    34    21    32    1
    35     8    33    1
@<TRIPOS>MOLECULE
*****
 33 35 0 0 0
SMALL
GASTEIGER

@<TRIPOS>ATOM
      1 O          -3.6359   -0.0128    2.8298 O.3     1  UNL11      -0.5032
      2 C          -2.8631   -0.1169    1.6782 C.ar    1  UNL11       0.1620
      3 C          -3.2840   -0.7811    0.5459 C.ar    1  UNL11      -0.0155
      4 C          -2.4459   -0.8424   -0.5760 C.ar    1  UNL11      -0.0410
      5 C          -1.2044   -0.2525   -0.5758 C.ar    1  UNL11       0.0942
      6 C          -0.2978   -0.2905   -1.7171 C.ar    1  UNL11       0.2491
      7 N          -0.6746   -0.3589   -3.0333 N.ar    1  UNL11      -0.1233
      8 N           0.4097   -0.3654   -3.7482 N.ar    1  UNL11      -0.1713
      9 C           1.5054   -0.3046   -2.9758 C.ar    1  UNL11       0.0743
     10 C           1.0667   -0.2548   -1.6393 C.ar    1  UNL11       0.0773
     11 C           1.9732   -0.1897   -0.5058 C.ar    1  UNL11      -0.0098
     12 C           1.5278   -0.1567    0.7712 C.ar    1  UNL11      -0.0511
     13 C           2.3772   -0.0968    1.8556 C.ar    1  UNL11      -0.0259
     14 C           3.7384   -0.0692    1.6460 C.ar    1  UNL11       0.1234
     15 F           4.5504   -0.0102    2.7260 F       1  UNL11      -0.2055
     16 C           4.2157   -0.1022    0.3488 C.ar    1  UNL11      -0.0259
     17 C           3.3288   -0.1626   -0.7330 C.ar    1  UNL11      -0.0511
     18 C          -0.7819    0.4178    0.5693 C.ar    1  UNL11       0.1757
     19 O           0.4585    1.0289    0.6220 O.3     1  UNL11      -0.5027
     20 C          -1.6058    0.4741    1.6622 C.ar    1  UNL11       0.2014
     21 O          -1.1877    1.1331    2.7859 O.3     1  UNL11      -0.5009
     22 H          -4.5494   -0.4130    2.9131 H       1  UNL11       0.2923
     23 H          -4.2540   -1.2308    0.5776 H       1  UNL11       0.0655
     24 H          -2.8337   -1.3721   -1.4384 H       1  UNL11       0.0628
     25 H          -1.6798   -0.3958   -3.3070 H       1  UNL11       0.4872
     26 H           2.5513   -0.2905   -3.2645 H       1  UNL11       0.0870
     27 H           0.4762   -0.1852    0.9749 H       1  UNL11       0.0625
     28 H           2.0067   -0.0712    2.8613 H       1  UNL11       0.0646
     29 H           5.2947   -0.0792    0.2058 H       1  UNL11       0.0646
     30 H           3.7707   -0.1856   -1.7144 H       1  UNL11       0.0625
     31 H           0.7482    1.5139    1.4588 H       1  UNL11       0.2923
     32 H          -1.7035    1.2428    3.6454 H       1  UNL11       0.2924
     33 H           0.4257   -0.4093   -4.7316 H       1  UNL11       0.2358
@<TRIPOS>BOND
     1     1     2    1
     2     1    22    1
     3     2     3   ar
     4     3     4   ar
     5     3    23    1
     6     4     5   ar
     7     4    24    1
     8     5     6    1
     9     5    18   ar
    10     6     7   ar
    11     7     8   ar
    12     7    25    1
    13     8     9   ar
    14     9    10   ar
    15     9    26    1
    16    10    11    1
    17    10     6   ar
    18    11    12   ar
    19    12    13   ar
    20    12    27    1
    21    13    14   ar
    22    13    28    1
    23    14    15    1
    24    14    16   ar
    25    16    17   ar
    26    16    29    1
    27    17    11   ar
    28    17    30    1
    29    18    19    1
    30    18    20   ar
    31    19    31    1
    32    20    21    1
    33    20     2   ar
    34    21    32    1
    35     8    33    1
