@<TRIPOS>MOLECULE
*****
 37 39 0 0 0
SMALL
GASTEIGER

@<TRIPOS>ATOM
      1 O           1.1247    0.5929    0.9092 O.2     1  UNL11      -0.2751
      2 C           0.4102    1.3002    0.1630 C.2     1  UNL11       0.2235
      3 C          -0.8729    1.8950    0.6014 C.3     1  UNL11       0.0728
      4 C          -2.0682    1.5123   -0.1348 C.2     1  UNL11       0.1237
      5 N          -3.2846    2.0073    0.1742 N.2     1  UNL11      -0.0071
      6 N          -4.3888    1.7388   -0.4917 N.am    1  UNL11      -0.0356
      7 C          -4.3825    0.9285   -1.5560 C.2     1  UNL11       0.4383
      8 O          -5.4656    0.7104   -2.1598 O.2     1  UNL11      -0.2116
      9 C          -3.1696    0.3859   -1.9254 C.ar    1  UNL11       0.1004
     10 C          -3.1178   -0.4929   -3.0138 C.ar    1  UNL11      -0.0441
     11 C          -1.9130   -1.0708   -3.3815 C.ar    1  UNL11      -0.0608
     12 C          -0.7638   -0.8023   -2.7006 C.ar    1  UNL11      -0.0611
     13 C          -0.8429    0.0857   -1.6091 C.ar    1  UNL11      -0.0518
     14 C          -2.0089    0.6757   -1.2175 C.ar    1  UNL11       0.0194
     15 N           0.8673    1.5276   -1.1491 N.am    1  UNL11      -0.2772
     16 C           0.1702    2.3240   -2.1100 C.2     1  UNL11       0.1498
     17 C          -0.7556    1.7997   -2.9722 C.2     1  UNL11      -0.0131
     18 C          -1.5330    2.6061   -3.7975 C.2     1  UNL11       0.1195
     19 C          -2.5973    2.0108   -4.6909 C.3     1  UNL11       0.4229
     20 F          -2.5513    0.6024   -4.4527 F       1  UNL11      -0.1657
     21 F          -3.8086    2.4951   -4.3165 F       1  UNL11      -0.1657
     22 F          -2.2306    2.2381   -5.9852 F       1  UNL11      -0.1657
     23 C          -1.3523    3.9588   -3.7346 C.2     1  UNL11       0.1777
     24 N          -0.4298    4.4868   -2.8776 N.am    1  UNL11      -0.1491
     25 C           0.3226    3.7010   -2.0771 C.2     1  UNL11       0.4277
     26 O           1.1840    4.2234   -1.2806 O.2     1  UNL11      -0.2127
     27 H          -0.7704    3.0330    0.4882 H       1  UNL11       0.0425
     28 H          -1.0226    1.7765    1.7312 H       1  UNL11       0.0425
     29 H          -5.3040    2.1904   -0.1615 H       1  UNL11       0.4829
     30 H          -4.0458   -0.6876   -3.5446 H       1  UNL11       0.0627
     31 H          -1.9330   -1.7650   -4.2433 H       1  UNL11       0.0618
     32 H           0.1883   -1.2546   -2.9932 H       1  UNL11       0.0618
     33 H           0.0667    0.2456   -1.0835 H       1  UNL11       0.0624
     34 H           1.7866    1.0926   -1.4819 H       1  UNL11       0.1551
     35 H          -0.9667    0.7398   -3.0748 H       1  UNL11       0.0647
     36 H          -1.9447    4.6109   -4.3695 H       1  UNL11       0.1375
     37 H          -0.3694    5.5068   -2.8881 H       1  UNL11       0.4469
@<TRIPOS>BOND
     1     1     2    2
     2     2     3    1
     3     2    15   am
     4     3     4    1
     5     3    27    1
     6     3    28    1
     7     4     5    2
     8     5     6    1
     9     6     7   am
    10     6    29    1
    11     7     8    2
    12     7     9    1
    13     9    10   ar
    14    10    11   ar
    15    10    30    1
    16    11    12   ar
    17    11    31    1
    18    12    13   ar
    19    12    32    1
    20    13    14   ar
    21    13    33    1
    22    14     4    1
    23    14     9   ar
    24    15    16    1
    25    15    34    1
    26    16    17    2
    27    17    18    1
    28    17    35    1
    29    18    19    1
    30    18    23    2
    31    19    20    1
    32    19    21    1
    33    19    22    1
    34    23    24    1
    35    23    36    1
    36    24    25   am
    37    24    37    1
    38    25    26    2
    39    25    16    1
@<TRIPOS>MOLECULE
*****
 37 39 0 0 0
SMALL
GASTEIGER

@<TRIPOS>ATOM
      1 O           1.1247    0.5929    0.9092 O.2     1  UNL11      -0.2751
      2 C           0.4102    1.3002    0.1630 C.2     1  UNL11       0.2235
      3 C          -0.8729    1.8950    0.6014 C.3     1  UNL11       0.0728
      4 C          -2.0682    1.5123   -0.1348 C.2     1  UNL11       0.1237
      5 N          -2.0238    1.1752   -1.4404 N.2     1  UNL11      -0.0071
      6 N          -3.0629    0.7686   -2.1402 N.am    1  UNL11      -0.0356
      7 C          -4.2764    0.6588   -1.5881 C.2     1  UNL11       0.4383
      8 O          -5.2341    0.2595   -2.3011 O.2     1  UNL11      -0.2116
      9 C          -4.3922    0.9902   -0.2544 C.ar    1  UNL11       0.1004
     10 C          -5.6483    0.9213    0.3597 C.ar    1  UNL11      -0.0441
     11 C          -5.7896    1.2785    1.6912 C.ar    1  UNL11      -0.0608
     12 C          -4.7231    1.7017    2.4261 C.ar    1  UNL11      -0.0611
     13 C          -3.4697    1.7619    1.7844 C.ar    1  UNL11      -0.0518
     14 C          -3.2899    1.4173    0.4769 C.ar    1  UNL11       0.0194
     15 N           0.8673    1.5276   -1.1491 N.am    1  UNL11      -0.2772
     16 C           0.1702    2.3240   -2.1100 C.2     1  UNL11       0.1498
     17 C           0.3856    3.6691   -2.2507 C.2     1  UNL11      -0.0131
     18 C          -0.1869    4.4023   -3.2853 C.2     1  UNL11       0.1195
     19 C           0.1200    5.8720   -3.4619 C.3     1  UNL11       0.4229
     20 F           1.0273    6.2015   -2.4080 F       1  UNL11      -0.1657
     21 F           0.7310    6.0538   -4.6601 F       1  UNL11      -0.1657
     22 F          -1.0372    6.5667   -3.2633 F       1  UNL11      -0.1657
     23 C          -0.9870    3.7453   -4.1766 C.2     1  UNL11       0.1777
     24 N          -1.2061    2.4044   -4.0403 N.am    1  UNL11      -0.1491
     25 C          -0.6479    1.6955   -3.0352 C.2     1  UNL11       0.4277
     26 O          -0.8711    0.4352   -2.9295 O.2     1  UNL11      -0.2127
     27 H          -0.7704    3.0330    0.4882 H       1  UNL11       0.0425
     28 H          -1.0226    1.7765    1.7312 H       1  UNL11       0.0425
     29 H          -2.9147    0.5217   -3.1734 H       1  UNL11       0.4829
     30 H          -6.4828    0.5760   -0.2447 H       1  UNL11       0.0627
     31 H          -6.8071    1.2139    2.1218 H       1  UNL11       0.0618
     32 H          -4.8330    1.9795    3.4784 H       1  UNL11       0.0618
     33 H          -2.6688    2.1266    2.3800 H       1  UNL11       0.0624
     34 H           1.7866    1.0926   -1.4819 H       1  UNL11       0.1551
     35 H           1.0143    4.2614   -1.5932 H       1  UNL11       0.0647
     36 H          -1.4479    4.2943   -4.9924 H       1  UNL11       0.1375
     37 H          -1.8072    1.9934   -4.7571 H       1  UNL11       0.4469
@<TRIPOS>BOND
     1     1     2    2
     2     2     3    1
     3     2    15   am
     4     3     4    1
     5     3    27    1
     6     3    28    1
     7     4     5    2
     8     5     6    1
     9     6     7   am
    10     6    29    1
    11     7     8    2
    12     7     9    1
    13     9    10   ar
    14    10    11   ar
    15    10    30    1
    16    11    12   ar
    17    11    31    1
    18    12    13   ar
    19    12    32    1
    20    13    14   ar
    21    13    33    1
    22    14     4    1
    23    14     9   ar
    24    15    16    1
    25    15    34    1
    26    16    17    2
    27    17    18    1
    28    17    35    1
    29    18    19    1
    30    18    23    2
    31    19    20    1
    32    19    21    1
    33    19    22    1
    34    23    24    1
    35    23    36    1
    36    24    25   am
    37    24    37    1
    38    25    26    2
    39    25    16    1
@<TRIPOS>MOLECULE
*****
 37 39 0 0 0
SMALL
GASTEIGER

@<TRIPOS>ATOM
      1 O           1.1247    0.5929    0.9092 O.2     1  UNL11      -0.2751
      2 C           0.4102    1.3002    0.1630 C.2     1  UNL11       0.2235
      3 C          -0.8729    1.8950    0.6014 C.3     1  UNL11       0.0728
      4 C          -2.0682    1.5123   -0.1348 C.2     1  UNL11       0.1237
      5 N          -2.4848    0.2308   -0.2010 N.2     1  UNL11      -0.0071
      6 N          -3.5866   -0.1637   -0.8052 N.am    1  UNL11      -0.0356
      7 C          -4.3969    0.7070   -1.4175 C.2     1  UNL11       0.4383
      8 O          -5.4407    0.2768   -1.9747 O.2     1  UNL11      -0.2116
      9 C          -4.0281    2.0355   -1.3890 C.ar    1  UNL11       0.1004
     10 C          -4.8277    2.9803   -2.0429 C.ar    1  UNL11      -0.0441
     11 C          -4.4578    4.3158   -2.0500 C.ar    1  UNL11      -0.0608
     12 C          -3.3201    4.7370   -1.4297 C.ar    1  UNL11      -0.0611
     13 C          -2.5328    3.7661   -0.7786 C.ar    1  UNL11      -0.0518
     14 C          -2.8640    2.4432   -0.7479 C.ar    1  UNL11       0.0194
     15 N           0.8673    1.5276   -1.1491 N.am    1  UNL11      -0.2772
     16 C           0.1702    2.3240   -2.1100 C.2     1  UNL11       0.1498
     17 C           0.3856    3.6691   -2.2507 C.2     1  UNL11      -0.0131
     18 C          -0.1869    4.4023   -3.2853 C.2     1  UNL11       0.1195
     19 C           0.1200    5.8720   -3.4619 C.3     1  UNL11       0.4229
     20 F           1.0273    6.2015   -2.4080 F       1  UNL11      -0.1657
     21 F           0.7310    6.0538   -4.6601 F       1  UNL11      -0.1657
     22 F          -1.0372    6.5667   -3.2633 F       1  UNL11      -0.1657
     23 C          -0.9870    3.7453   -4.1766 C.2     1  UNL11       0.1777
     24 N          -1.2061    2.4044   -4.0403 N.am    1  UNL11      -0.1491
     25 C          -0.6479    1.6955   -3.0352 C.2     1  UNL11       0.4277
     26 O          -0.8711    0.4352   -2.9295 O.2     1  UNL11      -0.2127
     27 H          -0.7704    3.0330    0.4882 H       1  UNL11       0.0425
     28 H          -1.0226    1.7765    1.7312 H       1  UNL11       0.0425
     29 H          -3.8258   -1.2093   -0.7943 H       1  UNL11       0.4829
     30 H          -5.7327    2.6217   -2.5259 H       1  UNL11       0.0627
     31 H          -5.1223    5.0167   -2.5904 H       1  UNL11       0.0618
     32 H          -3.0298    5.7916   -1.4311 H       1  UNL11       0.0618
     33 H          -1.6377    4.1272   -0.3341 H       1  UNL11       0.0624
     34 H           1.7866    1.0926   -1.4819 H       1  UNL11       0.1551
     35 H           1.0143    4.2614   -1.5932 H       1  UNL11       0.0647
     36 H          -1.4479    4.2943   -4.9924 H       1  UNL11       0.1375
     37 H          -1.8072    1.9934   -4.7571 H       1  UNL11       0.4469
@<TRIPOS>BOND
     1     1     2    2
     2     2     3    1
     3     2    15   am
     4     3     4    1
     5     3    27    1
     6     3    28    1
     7     4     5    2
     8     5     6    1
     9     6     7   am
    10     6    29    1
    11     7     8    2
    12     7     9    1
    13     9    10   ar
    14    10    11   ar
    15    10    30    1
    16    11    12   ar
    17    11    31    1
    18    12    13   ar
    19    12    32    1
    20    13    14   ar
    21    13    33    1
    22    14     4    1
    23    14     9   ar
    24    15    16    1
    25    15    34    1
    26    16    17    2
    27    17    18    1
    28    17    35    1
    29    18    19    1
    30    18    23    2
    31    19    20    1
    32    19    21    1
    33    19    22    1
    34    23    24    1
    35    23    36    1
    36    24    25   am
    37    24    37    1
    38    25    26    2
    39    25    16    1
@<TRIPOS>MOLECULE
*****
 37 39 0 0 0
SMALL
GASTEIGER

@<TRIPOS>ATOM
      1 O           1.1247    0.5929    0.9092 O.2     1  UNL11      -0.2751
      2 C           0.4102    1.3002    0.1630 C.2     1  UNL11       0.2235
      3 C          -0.8729    1.8950    0.6014 C.3     1  UNL11       0.0728
      4 C          -2.0682    1.5123   -0.1348 C.2     1  UNL11       0.1237
      5 N          -2.4848    0.2308   -0.2010 N.2     1  UNL11      -0.0071
      6 N          -3.5866   -0.1637   -0.8052 N.am    1  UNL11      -0.0356
      7 C          -4.3969    0.7070   -1.4175 C.2     1  UNL11       0.4383
      8 O          -5.4407    0.2768   -1.9747 O.2     1  UNL11      -0.2116
      9 C          -4.0281    2.0355   -1.3890 C.ar    1  UNL11       0.1004
     10 C          -4.8277    2.9803   -2.0429 C.ar    1  UNL11      -0.0441
     11 C          -4.4578    4.3158   -2.0500 C.ar    1  UNL11      -0.0608
     12 C          -3.3201    4.7370   -1.4297 C.ar    1  UNL11      -0.0611
     13 C          -2.5328    3.7661   -0.7786 C.ar    1  UNL11      -0.0518
     14 C          -2.8640    2.4432   -0.7479 C.ar    1  UNL11       0.0194
     15 N           0.8673    1.5276   -1.1491 N.am    1  UNL11      -0.2772
     16 C           0.1702    2.3240   -2.1100 C.2     1  UNL11       0.1498
     17 C           0.6321    2.5165   -3.3848 C.2     1  UNL11      -0.0131
     18 C          -0.1265    3.1677   -4.3524 C.2     1  UNL11       0.1195
     19 C           0.3745    3.3078   -5.7718 C.3     1  UNL11       0.4229
     20 F           1.6521    2.6676   -5.7903 F       1  UNL11      -0.1657
     21 F          -0.4733    2.6530   -6.6052 F       1  UNL11      -0.1657
     22 F           0.5580    4.6367   -6.0202 F       1  UNL11      -0.1657
     23 C          -1.3656    3.6243   -4.0023 C.2     1  UNL11       0.1777
     24 N          -1.8305    3.4360   -2.7323 N.am    1  UNL11      -0.1491
     25 C          -1.0918    2.8026   -1.7956 C.2     1  UNL11       0.4277
     26 O          -1.5527    2.6395   -0.6081 O.2     1  UNL11      -0.2127
     27 H          -0.7704    3.0330    0.4882 H       1  UNL11       0.0425
     28 H          -1.0226    1.7765    1.7312 H       1  UNL11       0.0425
     29 H          -3.8258   -1.2093   -0.7943 H       1  UNL11       0.4829
     30 H          -5.7327    2.6217   -2.5259 H       1  UNL11       0.0627
     31 H          -5.1223    5.0167   -2.5904 H       1  UNL11       0.0618
     32 H          -3.0298    5.7916   -1.4311 H       1  UNL11       0.0618
     33 H          -1.6377    4.1272   -0.3341 H       1  UNL11       0.0624
     34 H           1.7866    1.0926   -1.4819 H       1  UNL11       0.1551
     35 H           1.5980    2.1762   -3.7448 H       1  UNL11       0.0647
     36 H          -1.9776    4.1377   -4.7379 H       1  UNL11       0.1375
     37 H          -2.7703    3.7991   -2.5618 H       1  UNL11       0.4469
@<TRIPOS>BOND
     1     1     2    2
     2     2     3    1
     3     2    15   am
     4     3     4    1
     5     3    27    1
     6     3    28    1
     7     4     5    2
     8     5     6    1
     9     6     7   am
    10     6    29    1
    11     7     8    2
    12     7     9    1
    13     9    10   ar
    14    10    11   ar
    15    10    30    1
    16    11    12   ar
    17    11    31    1
    18    12    13   ar
    19    12    32    1
    20    13    14   ar
    21    13    33    1
    22    14     4    1
    23    14     9   ar
    24    15    16    1
    25    15    34    1
    26    16    17    2
    27    17    18    1
    28    17    35    1
    29    18    19    1
    30    18    23    2
    31    19    20    1
    32    19    21    1
    33    19    22    1
    34    23    24    1
    35    23    36    1
    36    24    25   am
    37    24    37    1
    38    25    26    2
    39    25    16    1
@<TRIPOS>MOLECULE
*****
 37 39 0 0 0
SMALL
GASTEIGER

@<TRIPOS>ATOM
      1 O           1.1247    0.5929    0.9092 O.2     1  UNL11      -0.2751
      2 C           0.4102    1.3002    0.1630 C.2     1  UNL11       0.2235
      3 C          -0.8729    1.8950    0.6014 C.3     1  UNL11       0.0728
      4 C          -2.0682    1.5123   -0.1348 C.2     1  UNL11       0.1237
      5 N          -3.2814    1.4610    0.4530 N.2     1  UNL11      -0.0071
      6 N          -4.4024    1.1754   -0.1767 N.am    1  UNL11      -0.0356
      7 C          -4.4178    0.9058   -1.4869 C.2     1  UNL11       0.4383
      8 O          -5.5182    0.6449   -2.0404 O.2     1  UNL11      -0.2116
      9 C          -3.2087    0.9393   -2.1494 C.ar    1  UNL11       0.1004
     10 C          -3.1697    0.6335   -3.5149 C.ar    1  UNL11      -0.0441
     11 C          -1.9600    0.6333   -4.1911 C.ar    1  UNL11      -0.0608
     12 C          -0.7931    0.9259   -3.5514 C.ar    1  UNL11      -0.0611
     13 C          -0.8597    1.2306   -2.1769 C.ar    1  UNL11      -0.0518
     14 C          -2.0306    1.2429   -1.4771 C.ar    1  UNL11       0.0194
     15 N           0.8673    1.5276   -1.1491 N.am    1  UNL11      -0.2772
     16 C           0.1702    2.3240   -2.1100 C.2     1  UNL11       0.1498
     17 C           0.6321    2.5165   -3.3848 C.2     1  UNL11      -0.0131
     18 C          -0.1265    3.1677   -4.3524 C.2     1  UNL11       0.1195
     19 C           0.3745    3.3078   -5.7718 C.3     1  UNL11       0.4229
     20 F           1.6521    2.6676   -5.7903 F       1  UNL11      -0.1657
     21 F          -0.4733    2.6530   -6.6052 F       1  UNL11      -0.1657
     22 F           0.5580    4.6367   -6.0202 F       1  UNL11      -0.1657
     23 C          -1.3656    3.6243   -4.0023 C.2     1  UNL11       0.1777
     24 N          -1.8305    3.4360   -2.7323 N.am    1  UNL11      -0.1491
     25 C          -1.0918    2.8026   -1.7956 C.2     1  UNL11       0.4277
     26 O          -1.5527    2.6395   -0.6081 O.2     1  UNL11      -0.2127
     27 H          -0.7704    3.0330    0.4882 H       1  UNL11       0.0425
     28 H          -1.0226    1.7765    1.7312 H       1  UNL11       0.0425
     29 H          -5.3144    1.1658    0.3879 H       1  UNL11       0.4829
     30 H          -4.1133    0.4085   -4.0047 H       1  UNL11       0.0627
     31 H          -1.9876    0.3747   -5.2668 H       1  UNL11       0.0618
     32 H           0.1615    0.9305   -4.0855 H       1  UNL11       0.0618
     33 H           0.0733    1.4220   -1.7058 H       1  UNL11       0.0624
     34 H           1.7866    1.0926   -1.4819 H       1  UNL11       0.1551
     35 H           1.5980    2.1762   -3.7448 H       1  UNL11       0.0647
     36 H          -1.9776    4.1377   -4.7379 H       1  UNL11       0.1375
     37 H          -2.7703    3.7991   -2.5618 H       1  UNL11       0.4469
@<TRIPOS>BOND
     1     1     2    2
     2     2     3    1
     3     2    15   am
     4     3     4    1
     5     3    27    1
     6     3    28    1
     7     4     5    2
     8     5     6    1
     9     6     7   am
    10     6    29    1
    11     7     8    2
    12     7     9    1
    13     9    10   ar
    14    10    11   ar
    15    10    30    1
    16    11    12   ar
    17    11    31    1
    18    12    13   ar
    19    12    32    1
    20    13    14   ar
    21    13    33    1
    22    14     4    1
    23    14     9   ar
    24    15    16    1
    25    15    34    1
    26    16    17    2
    27    17    18    1
    28    17    35    1
    29    18    19    1
    30    18    23    2
    31    19    20    1
    32    19    21    1
    33    19    22    1
    34    23    24    1
    35    23    36    1
    36    24    25   am
    37    24    37    1
    38    25    26    2
    39    25    16    1
@<TRIPOS>MOLECULE
*****
 37 39 0 0 0
SMALL
GASTEIGER

@<TRIPOS>ATOM
      1 O           1.3809    1.9859   -0.2309 O.2     1  UNL11      -0.2751
      2 C           0.4102    1.3002    0.1630 C.2     1  UNL11       0.2235
      3 C          -0.8729    1.8950    0.6014 C.3     1  UNL11       0.0728
      4 C          -2.0682    1.5123   -0.1348 C.2     1  UNL11       0.1237
      5 N          -3.2814    1.4610    0.4530 N.2     1  UNL11      -0.0071
      6 N          -4.4024    1.1754   -0.1767 N.am    1  UNL11      -0.0356
      7 C          -4.4178    0.9058   -1.4869 C.2     1  UNL11       0.4383
      8 O          -5.5182    0.6449   -2.0404 O.2     1  UNL11      -0.2116
      9 C          -3.2087    0.9393   -2.1494 C.ar    1  UNL11       0.1004
     10 C          -3.1697    0.6335   -3.5149 C.ar    1  UNL11      -0.0441
     11 C          -1.9600    0.6333   -4.1911 C.ar    1  UNL11      -0.0608
     12 C          -0.7931    0.9259   -3.5514 C.ar    1  UNL11      -0.0611
     13 C          -0.8597    1.2306   -2.1769 C.ar    1  UNL11      -0.0518
     14 C          -2.0306    1.2429   -1.4771 C.ar    1  UNL11       0.0194
     15 N           0.5680   -0.0987    0.1815 N.am    1  UNL11      -0.2772
     16 C          -0.4532   -1.0114    0.5908 C.2     1  UNL11       0.1498
     17 C          -1.6630   -1.1002   -0.0449 C.2     1  UNL11      -0.0131
     18 C          -2.5879   -2.0917    0.2672 C.2     1  UNL11       0.1195
     19 C          -3.8877   -2.2130   -0.4951 C.3     1  UNL11       0.4229
     20 F          -3.8599   -1.1647   -1.4659 F       1  UNL11      -0.1657
     21 F          -3.9186   -3.4146   -1.1254 F       1  UNL11      -0.1657
     22 F          -4.9072   -1.9626    0.3762 F       1  UNL11      -0.1657
     23 C          -2.2640   -2.9935    1.2410 C.2     1  UNL11       0.1777
     24 N          -1.0596   -2.9089    1.8788 N.am    1  UNL11      -0.1491
     25 C          -0.1637   -1.9455    1.5727 C.2     1  UNL11       0.4277
     26 O           0.9617   -1.8880    2.1886 O.2     1  UNL11      -0.2127
     27 H          -0.7704    3.0330    0.4882 H       1  UNL11       0.0425
     28 H          -1.0226    1.7765    1.7312 H       1  UNL11       0.0425
     29 H          -5.3144    1.1658    0.3879 H       1  UNL11       0.4829
     30 H          -4.1133    0.4085   -4.0047 H       1  UNL11       0.0627
     31 H          -1.9876    0.3747   -5.2668 H       1  UNL11       0.0618
     32 H           0.1615    0.9305   -4.0855 H       1  UNL11       0.0618
     33 H           0.0733    1.4220   -1.7058 H       1  UNL11       0.0624
     34 H           1.4949   -0.5400   -0.1207 H       1  UNL11       0.1551
     35 H          -1.9913   -0.4313   -0.8343 H       1  UNL11       0.0647
     36 H          -2.9687   -3.7763    1.5054 H       1  UNL11       0.1375
     37 H          -0.8966   -3.6300    2.5841 H       1  UNL11       0.4469
@<TRIPOS>BOND
     1     1     2    2
     2     2     3    1
     3     2    15   am
     4     3     4    1
     5     3    27    1
     6     3    28    1
     7     4     5    2
     8     5     6    1
     9     6     7   am
    10     6    29    1
    11     7     8    2
    12     7     9    1
    13     9    10   ar
    14    10    11   ar
    15    10    30    1
    16    11    12   ar
    17    11    31    1
    18    12    13   ar
    19    12    32    1
    20    13    14   ar
    21    13    33    1
    22    14     4    1
    23    14     9   ar
    24    15    16    1
    25    15    34    1
    26    16    17    2
    27    17    18    1
    28    17    35    1
    29    18    19    1
    30    18    23    2
    31    19    20    1
    32    19    21    1
    33    19    22    1
    34    23    24    1
    35    23    36    1
    36    24    25   am
    37    24    37    1
    38    25    26    2
    39    25    16    1
@<TRIPOS>MOLECULE
*****
 37 39 0 0 0
SMALL
GASTEIGER

@<TRIPOS>ATOM
      1 O           0.4916    0.1706   -0.3708 O.2     1  UNL11      -0.2751
      2 C           0.4102    1.3002    0.1630 C.2     1  UNL11       0.2235
      3 C          -0.8729    1.8950    0.6014 C.3     1  UNL11       0.0728
      4 C          -2.0682    1.5123   -0.1348 C.2     1  UNL11       0.1237
      5 N          -2.4848    0.2308   -0.2010 N.2     1  UNL11      -0.0071
      6 N          -3.5866   -0.1637   -0.8052 N.am    1  UNL11      -0.0356
      7 C          -4.3969    0.7070   -1.4175 C.2     1  UNL11       0.4383
      8 O          -5.4407    0.2768   -1.9747 O.2     1  UNL11      -0.2116
      9 C          -4.0281    2.0355   -1.3890 C.ar    1  UNL11       0.1004
     10 C          -4.8277    2.9803   -2.0429 C.ar    1  UNL11      -0.0441
     11 C          -4.4578    4.3158   -2.0500 C.ar    1  UNL11      -0.0608
     12 C          -3.3201    4.7370   -1.4297 C.ar    1  UNL11      -0.0611
     13 C          -2.5328    3.7661   -0.7786 C.ar    1  UNL11      -0.0518
     14 C          -2.8640    2.4432   -0.7479 C.ar    1  UNL11       0.0194
     15 N           1.6062    2.0203    0.3452 N.am    1  UNL11      -0.2772
     16 C           1.6747    3.3129    0.9517 C.2     1  UNL11       0.1498
     17 C           1.8561    3.4889    2.2977 C.2     1  UNL11      -0.0131
     18 C           2.0700    4.7462    2.8538 C.2     1  UNL11       0.1195
     19 C           2.3370    4.9093    4.3328 C.3     1  UNL11       0.4229
     20 F           2.3036    3.5872    4.8745 F       1  UNL11      -0.1657
     21 F           3.5757    5.4378    4.5015 F       1  UNL11      -0.1657
     22 F           1.3010    5.6174    4.8681 F       1  UNL11      -0.1657
     23 C           2.0942    5.8264    2.0178 C.2     1  UNL11       0.1777
     24 N           1.9127    5.6568    0.6751 N.am    1  UNL11      -0.1491
     25 C           1.7062    4.4346    0.1385 C.2     1  UNL11       0.4277
     26 O           1.5375    4.3030   -1.1277 O.2     1  UNL11      -0.2127
     27 H          -0.7704    3.0330    0.4882 H       1  UNL11       0.0425
     28 H          -1.0226    1.7765    1.7312 H       1  UNL11       0.0425
     29 H          -3.8258   -1.2093   -0.7943 H       1  UNL11       0.4829
     30 H          -5.7327    2.6217   -2.5259 H       1  UNL11       0.0627
     31 H          -5.1223    5.0167   -2.5904 H       1  UNL11       0.0618
     32 H          -3.0298    5.7916   -1.4311 H       1  UNL11       0.0618
     33 H          -1.6377    4.1272   -0.3341 H       1  UNL11       0.0624
     34 H           2.5384    1.6067    0.0208 H       1  UNL11       0.1551
     35 H           1.8613    2.6839    3.0260 H       1  UNL11       0.0647
     36 H           2.2573    6.8193    2.4262 H       1  UNL11       0.1375
     37 H           1.9575    6.5165    0.1247 H       1  UNL11       0.4469
@<TRIPOS>BOND
     1     1     2    2
     2     2     3    1
     3     2    15   am
     4     3     4    1
     5     3    27    1
     6     3    28    1
     7     4     5    2
     8     5     6    1
     9     6     7   am
    10     6    29    1
    11     7     8    2
    12     7     9    1
    13     9    10   ar
    14    10    11   ar
    15    10    30    1
    16    11    12   ar
    17    11    31    1
    18    12    13   ar
    19    12    32    1
    20    13    14   ar
    21    13    33    1
    22    14     4    1
    23    14     9   ar
    24    15    16    1
    25    15    34    1
    26    16    17    2
    27    17    18    1
    28    17    35    1
    29    18    19    1
    30    18    23    2
    31    19    20    1
    32    19    21    1
    33    19    22    1
    34    23    24    1
    35    23    36    1
    36    24    25   am
    37    24    37    1
    38    25    26    2
    39    25    16    1
@<TRIPOS>MOLECULE
*****
 37 39 0 0 0
SMALL
GASTEIGER

@<TRIPOS>ATOM
      1 O           0.8846    1.4698   -0.9832 O.2     1  UNL11      -0.2751
      2 C           0.4102    1.3002    0.1630 C.2     1  UNL11       0.2235
      3 C          -0.8729    1.8950    0.6014 C.3     1  UNL11       0.0728
      4 C          -2.0682    1.5123   -0.1348 C.2     1  UNL11       0.1237
      5 N          -2.0208    0.6531   -1.1739 N.2     1  UNL11      -0.0071
      6 N          -3.0759    0.2302   -1.8392 N.am    1  UNL11      -0.0356
      7 C          -4.3102    0.6371   -1.5220 C.2     1  UNL11       0.4383
      8 O          -5.2844    0.1969   -2.1870 O.2     1  UNL11      -0.2116
      9 C          -4.4297    1.5191   -0.4685 C.ar    1  UNL11       0.1004
     10 C          -5.6979    1.9976   -0.1192 C.ar    1  UNL11      -0.0441
     11 C          -5.8345    2.9069    0.9176 C.ar    1  UNL11      -0.0608
     12 C          -4.7511    3.3532    1.6131 C.ar    1  UNL11      -0.0611
     13 C          -3.4858    2.8559    1.2418 C.ar    1  UNL11      -0.0518
     14 C          -3.3107    1.9593    0.2289 C.ar    1  UNL11       0.0194
     15 N           1.1473    0.5036    1.0598 N.am    1  UNL11      -0.2772
     16 C           2.3945   -0.1158    0.7369 C.2     1  UNL11       0.1498
     17 C           3.0832   -0.8977    1.6257 C.2     1  UNL11      -0.0131
     18 C           4.2163   -1.6138    1.2524 C.2     1  UNL11       0.1195
     19 C           4.9202   -2.5250    2.2319 C.3     1  UNL11       0.4229
     20 F           4.1749   -2.4273    3.4473 F       1  UNL11      -0.1657
     21 F           4.8651   -3.7989    1.7668 F       1  UNL11      -0.1657
     22 F           6.1670   -2.0169    2.4524 F       1  UNL11      -0.1657
     23 C           4.6418   -1.5204   -0.0424 C.2     1  UNL11       0.1777
     24 N           3.9595   -0.7413   -0.9323 N.am    1  UNL11      -0.1491
     25 C           2.8594   -0.0482   -0.5669 C.2     1  UNL11       0.4277
     26 O           2.2368    0.6780   -1.4237 O.2     1  UNL11      -0.2127
     27 H          -0.7704    3.0330    0.4882 H       1  UNL11       0.0425
     28 H          -1.0226    1.7765    1.7312 H       1  UNL11       0.0425
     29 H          -2.9246   -0.4574   -2.6484 H       1  UNL11       0.4829
     30 H          -6.5473    1.6235   -0.6844 H       1  UNL11       0.0627
     31 H          -6.8593    3.2585    1.1437 H       1  UNL11       0.0618
     32 H          -4.8587    4.0675    2.4346 H       1  UNL11       0.0618
     33 H          -2.6625    3.2508    1.7854 H       1  UNL11       0.0624
     34 H           0.7815    0.3284    2.0501 H       1  UNL11       0.1551
     35 H           2.8056   -1.0332    2.6663 H       1  UNL11       0.0647
     36 H           5.5246   -2.0675   -0.3595 H       1  UNL11       0.1375
     37 H           4.3410   -0.7390   -1.8803 H       1  UNL11       0.4469
@<TRIPOS>BOND
     1     1     2    2
     2     2     3    1
     3     2    15   am
     4     3     4    1
     5     3    27    1
     6     3    28    1
     7     4     5    2
     8     5     6    1
     9     6     7   am
    10     6    29    1
    11     7     8    2
    12     7     9    1
    13     9    10   ar
    14    10    11   ar
    15    10    30    1
    16    11    12   ar
    17    11    31    1
    18    12    13   ar
    19    12    32    1
    20    13    14   ar
    21    13    33    1
    22    14     4    1
    23    14     9   ar
    24    15    16    1
    25    15    34    1
    26    16    17    2
    27    17    18    1
    28    17    35    1
    29    18    19    1
    30    18    23    2
    31    19    20    1
    32    19    21    1
    33    19    22    1
    34    23    24    1
    35    23    36    1
    36    24    25   am
    37    24    37    1
    38    25    26    2
    39    25    16    1
@<TRIPOS>MOLECULE
*****
 37 39 0 0 0
SMALL
GASTEIGER

@<TRIPOS>ATOM
      1 O           1.1247    0.5929    0.9092 O.2     1  UNL11      -0.2751
      2 C           0.4102    1.3002    0.1630 C.2     1  UNL11       0.2235
      3 C          -0.8729    1.8950    0.6014 C.3     1  UNL11       0.0728
      4 C          -2.0682    1.5123   -0.1348 C.2     1  UNL11       0.1237
      5 N          -3.1183    2.3479   -0.2729 N.2     1  UNL11      -0.0071
      6 N          -4.1999    2.0752   -0.9732 N.am    1  UNL11      -0.0356
      7 C          -4.3390    0.9111   -1.6176 C.2     1  UNL11       0.4383
      8 O          -5.3911    0.7042   -2.2775 O.2     1  UNL11      -0.2116
      9 C          -3.3009    0.0089   -1.5161 C.ar    1  UNL11       0.1004
     10 C          -3.4137   -1.2356   -2.1472 C.ar    1  UNL11      -0.0441
     11 C          -2.3934   -2.1663   -2.0321 C.ar    1  UNL11      -0.0608
     12 C          -1.2699   -1.8972   -1.3098 C.ar    1  UNL11      -0.0611
     13 C          -1.1809   -0.6372   -0.6846 C.ar    1  UNL11      -0.0518
     14 C          -2.1625    0.3056   -0.7757 C.ar    1  UNL11       0.0194
     15 N           0.8673    1.5276   -1.1491 N.am    1  UNL11      -0.2772
     16 C           0.1702    2.3240   -2.1100 C.2     1  UNL11       0.1498
     17 C           0.6321    2.5165   -3.3848 C.2     1  UNL11      -0.0131
     18 C          -0.1265    3.1677   -4.3524 C.2     1  UNL11       0.1195
     19 C           0.3745    3.3078   -5.7718 C.3     1  UNL11       0.4229
     20 F           1.6521    2.6676   -5.7903 F       1  UNL11      -0.1657
     21 F          -0.4733    2.6530   -6.6052 F       1  UNL11      -0.1657
     22 F           0.5580    4.6367   -6.0202 F       1  UNL11      -0.1657
     23 C          -1.3656    3.6243   -4.0023 C.2     1  UNL11       0.1777
     24 N          -1.8305    3.4360   -2.7323 N.am    1  UNL11      -0.1491
     25 C          -1.0918    2.8026   -1.7956 C.2     1  UNL11       0.4277
     26 O          -1.5527    2.6395   -0.6081 O.2     1  UNL11      -0.2127
     27 H          -0.7704    3.0330    0.4882 H       1  UNL11       0.0425
     28 H          -1.0226    1.7765    1.7312 H       1  UNL11       0.0425
     29 H          -4.9754    2.8148   -1.0197 H       1  UNL11       0.4829
     30 H          -4.3163   -1.4255   -2.7217 H       1  UNL11       0.0627
     31 H          -2.5407   -3.1367   -2.5435 H       1  UNL11       0.0618
     32 H          -0.4621   -2.6296   -1.2223 H       1  UNL11       0.0618
     33 H          -0.3052   -0.4761   -0.1045 H       1  UNL11       0.0624
     34 H           1.7866    1.0926   -1.4819 H       1  UNL11       0.1551
     35 H           1.5980    2.1762   -3.7448 H       1  UNL11       0.0647
     36 H          -1.9776    4.1377   -4.7379 H       1  UNL11       0.1375
     37 H          -2.7703    3.7991   -2.5618 H       1  UNL11       0.4469
@<TRIPOS>BOND
     1     1     2    2
     2     2     3    1
     3     2    15   am
     4     3     4    1
     5     3    27    1
     6     3    28    1
     7     4     5    2
     8     5     6    1
     9     6     7   am
    10     6    29    1
    11     7     8    2
    12     7     9    1
    13     9    10   ar
    14    10    11   ar
    15    10    30    1
    16    11    12   ar
    17    11    31    1
    18    12    13   ar
    19    12    32    1
    20    13    14   ar
    21    13    33    1
    22    14     4    1
    23    14     9   ar
    24    15    16    1
    25    15    34    1
    26    16    17    2
    27    17    18    1
    28    17    35    1
    29    18    19    1
    30    18    23    2
    31    19    20    1
    32    19    21    1
    33    19    22    1
    34    23    24    1
    35    23    36    1
    36    24    25   am
    37    24    37    1
    38    25    26    2
    39    25    16    1
@<TRIPOS>MOLECULE
*****
 37 39 0 0 0
SMALL
GASTEIGER

@<TRIPOS>ATOM
      1 O           0.6177    0.0657    0.1407 O.2     1  UNL11      -0.2751
      2 C           0.4102    1.3002    0.1630 C.2     1  UNL11       0.2235
      3 C          -0.8729    1.8950    0.6014 C.3     1  UNL11       0.0728
      4 C          -2.0682    1.5123   -0.1348 C.2     1  UNL11       0.1237
      5 N          -3.2814    1.4610    0.4530 N.2     1  UNL11      -0.0071
      6 N          -4.4024    1.1754   -0.1767 N.am    1  UNL11      -0.0356
      7 C          -4.4178    0.9058   -1.4869 C.2     1  UNL11       0.4383
      8 O          -5.5182    0.6449   -2.0404 O.2     1  UNL11      -0.2116
      9 C          -3.2087    0.9393   -2.1494 C.ar    1  UNL11       0.1004
     10 C          -3.1697    0.6335   -3.5149 C.ar    1  UNL11      -0.0441
     11 C          -1.9600    0.6333   -4.1911 C.ar    1  UNL11      -0.0608
     12 C          -0.7931    0.9259   -3.5514 C.ar    1  UNL11      -0.0611
     13 C          -0.8597    1.2306   -2.1769 C.ar    1  UNL11      -0.0518
     14 C          -2.0306    1.2429   -1.4771 C.ar    1  UNL11       0.0194
     15 N           1.4590    2.1428   -0.2518 N.am    1  UNL11      -0.2772
     16 C           1.3773    3.5699   -0.2676 C.2     1  UNL11       0.1498
     17 C           1.7412    4.3428    0.8028 C.2     1  UNL11      -0.0131
     18 C           1.7985    5.7307    0.7234 C.2     1  UNL11       0.1195
     19 C           2.2696    6.5598    1.8963 C.3     1  UNL11       0.4229
     20 F           2.5807    5.6202    2.9272 F       1  UNL11      -0.1657
     21 F           3.3943    7.2302    1.5388 F       1  UNL11      -0.1657
     22 F           1.2199    7.3235    2.3158 F       1  UNL11      -0.1657
     23 C           1.4764    6.3234   -0.4646 C.2     1  UNL11       0.1777
     24 N           1.1117    5.5576   -1.5347 N.am    1  UNL11      -0.1491
     25 C           1.0580    4.2103   -1.4544 C.2     1  UNL11       0.4277
     26 O           0.7109    3.5137   -2.4759 O.2     1  UNL11      -0.2127
     27 H          -0.7704    3.0330    0.4882 H       1  UNL11       0.0425
     28 H          -1.0226    1.7765    1.7312 H       1  UNL11       0.0425
     29 H          -5.3144    1.1658    0.3879 H       1  UNL11       0.4829
     30 H          -4.1133    0.4085   -4.0047 H       1  UNL11       0.0627
     31 H          -1.9876    0.3747   -5.2668 H       1  UNL11       0.0618
     32 H           0.1615    0.9305   -4.0855 H       1  UNL11       0.0618
     33 H           0.0733    1.4220   -1.7058 H       1  UNL11       0.0624
     34 H           2.3867    1.7246   -0.5832 H       1  UNL11       0.1551
     35 H           2.0211    3.9503    1.7754 H       1  UNL11       0.0647
     36 H           1.5109    7.4051   -0.5531 H       1  UNL11       0.1375
     37 H           0.8990    6.0829   -2.3850 H       1  UNL11       0.4469
@<TRIPOS>BOND
     1     1     2    2
     2     2     3    1
     3     2    15   am
     4     3     4    1
     5     3    27    1
     6     3    28    1
     7     4     5    2
     8     5     6    1
     9     6     7   am
    10     6    29    1
    11     7     8    2
    12     7     9    1
    13     9    10   ar
    14    10    11   ar
    15    10    30    1
    16    11    12   ar
    17    11    31    1
    18    12    13   ar
    19    12    32    1
    20    13    14   ar
    21    13    33    1
    22    14     4    1
    23    14     9   ar
    24    15    16    1
    25    15    34    1
    26    16    17    2
    27    17    18    1
    28    17    35    1
    29    18    19    1
    30    18    23    2
    31    19    20    1
    32    19    21    1
    33    19    22    1
    34    23    24    1
    35    23    36    1
    36    24    25   am
    37    24    37    1
    38    25    26    2
    39    25    16    1
@<TRIPOS>MOLECULE
*****
 37 39 0 0 0
SMALL
GASTEIGER

@<TRIPOS>ATOM
      1 O           0.4916    0.1706   -0.3708 O.2     1  UNL11      -0.2751
      2 C           0.4102    1.3002    0.1630 C.2     1  UNL11       0.2235
      3 C          -0.8729    1.8950    0.6014 C.3     1  UNL11       0.0728
      4 C          -2.0682    1.5123   -0.1348 C.2     1  UNL11       0.1237
      5 N          -2.4962    2.2066   -1.2095 N.2     1  UNL11      -0.0071
      6 N          -3.5373    1.8739   -1.9445 N.am    1  UNL11      -0.0356
      7 C          -4.2691    0.7889   -1.6676 C.2     1  UNL11       0.4383
      8 O          -5.2506    0.5135   -2.4065 O.2     1  UNL11      -0.2116
      9 C          -3.8863    0.0340   -0.5787 C.ar    1  UNL11       0.1004
     10 C          -4.6398   -1.0932   -0.2305 C.ar    1  UNL11      -0.0441
     11 C          -4.2878   -1.8472    0.8777 C.ar    1  UNL11      -0.0608
     12 C          -3.2139   -1.5134    1.6470 C.ar    1  UNL11      -0.0611
     13 C          -2.4719   -0.3744    1.2750 C.ar    1  UNL11      -0.0518
     14 C          -2.7854    0.3919    0.1908 C.ar    1  UNL11       0.0194
     15 N           1.6062    2.0203    0.3452 N.am    1  UNL11      -0.2772
     16 C           1.6747    3.3129    0.9517 C.2     1  UNL11       0.1498
     17 C           0.6478    4.2164    0.8838 C.2     1  UNL11      -0.0131
     18 C           0.6668    5.4083    1.6014 C.2     1  UNL11       0.1195
     19 C          -0.5083    6.3585    1.5656 C.3     1  UNL11       0.4229
     20 F          -1.4711    5.7424    0.7079 F       1  UNL11      -0.1657
     21 F          -1.0218    6.4720    2.8168 F       1  UNL11      -0.1657
     22 F          -0.0905    7.5167    0.9778 F       1  UNL11      -0.1657
     23 C           1.7512    5.6699    2.3902 C.2     1  UNL11       0.1777
     24 N           2.7784    4.7730    2.4606 N.am    1  UNL11      -0.1491
     25 C           2.7562    3.6165    1.7633 C.2     1  UNL11       0.4277
     26 O           3.7361    2.7906    1.8470 O.2     1  UNL11      -0.2127
     27 H          -0.7704    3.0330    0.4882 H       1  UNL11       0.0425
     28 H          -1.0226    1.7765    1.7312 H       1  UNL11       0.0425
     29 H          -3.7883    2.4962   -2.7814 H       1  UNL11       0.4829
     30 H          -5.4884   -1.3427   -0.8618 H       1  UNL11       0.0627
     31 H          -4.9247   -2.7216    1.1114 H       1  UNL11       0.0618
     32 H          -2.9327   -2.1107    2.5192 H       1  UNL11       0.0618
     33 H          -1.6617   -0.1275    1.9166 H       1  UNL11       0.0624
     34 H           2.5384    1.6067    0.0208 H       1  UNL11       0.1551
     35 H          -0.2510    4.0794    0.2907 H       1  UNL11       0.0647
     36 H           1.7923    6.5939    2.9592 H       1  UNL11       0.1375
     37 H           3.5423    5.0444    3.0828 H       1  UNL11       0.4469
@<TRIPOS>BOND
     1     1     2    2
     2     2     3    1
     3     2    15   am
     4     3     4    1
     5     3    27    1
     6     3    28    1
     7     4     5    2
     8     5     6    1
     9     6     7   am
    10     6    29    1
    11     7     8    2
    12     7     9    1
    13     9    10   ar
    14    10    11   ar
    15    10    30    1
    16    11    12   ar
    17    11    31    1
    18    12    13   ar
    19    12    32    1
    20    13    14   ar
    21    13    33    1
    22    14     4    1
    23    14     9   ar
    24    15    16    1
    25    15    34    1
    26    16    17    2
    27    17    18    1
    28    17    35    1
    29    18    19    1
    30    18    23    2
    31    19    20    1
    32    19    21    1
    33    19    22    1
    34    23    24    1
    35    23    36    1
    36    24    25   am
    37    24    37    1
    38    25    26    2
    39    25    16    1
@<TRIPOS>MOLECULE
*****
 37 39 0 0 0
SMALL
GASTEIGER

@<TRIPOS>ATOM
      1 O           1.3809    1.9859   -0.2309 O.2     1  UNL11      -0.2751
      2 C           0.4102    1.3002    0.1630 C.2     1  UNL11       0.2235
      3 C          -0.8729    1.8950    0.6014 C.3     1  UNL11       0.0728
      4 C          -2.0682    1.5123   -0.1348 C.2     1  UNL11       0.1237
      5 N          -3.2814    1.4610    0.4530 N.2     1  UNL11      -0.0071
      6 N          -4.4024    1.1754   -0.1767 N.am    1  UNL11      -0.0356
      7 C          -4.4178    0.9058   -1.4869 C.2     1  UNL11       0.4383
      8 O          -5.5182    0.6449   -2.0404 O.2     1  UNL11      -0.2116
      9 C          -3.2087    0.9393   -2.1494 C.ar    1  UNL11       0.1004
     10 C          -3.1697    0.6335   -3.5149 C.ar    1  UNL11      -0.0441
     11 C          -1.9600    0.6333   -4.1911 C.ar    1  UNL11      -0.0608
     12 C          -0.7931    0.9259   -3.5514 C.ar    1  UNL11      -0.0611
     13 C          -0.8597    1.2306   -2.1769 C.ar    1  UNL11      -0.0518
     14 C          -2.0306    1.2429   -1.4771 C.ar    1  UNL11       0.0194
     15 N           0.5680   -0.0987    0.1815 N.am    1  UNL11      -0.2772
     16 C          -0.4532   -1.0114    0.5908 C.2     1  UNL11       0.1498
     17 C          -0.2666   -2.3680    0.6119 C.2     1  UNL11      -0.0131
     18 C          -1.2131   -3.2332    1.1519 C.2     1  UNL11       0.1195
     19 C          -0.9558   -4.7209    1.2276 C.3     1  UNL11       0.4229
     20 F           0.3436   -4.9125    0.6645 F       1  UNL11      -0.1657
     21 F          -0.9463   -5.1009    2.5306 F       1  UNL11      -0.1657
     22 F          -1.8663   -5.3432    0.4245 F       1  UNL11      -0.1657
     23 C          -2.3577   -2.6964    1.6697 C.2     1  UNL11       0.1777
     24 N          -2.5493   -1.3446    1.6501 N.am    1  UNL11      -0.1491
     25 C          -1.6280   -0.5075    1.1259 C.2     1  UNL11       0.4277
     26 O          -1.8337    0.7601    1.1193 O.2     1  UNL11      -0.2127
     27 H          -0.7704    3.0330    0.4882 H       1  UNL11       0.0425
     28 H          -1.0226    1.7765    1.7312 H       1  UNL11       0.0425
     29 H          -5.3144    1.1658    0.3879 H       1  UNL11       0.4829
     30 H          -4.1133    0.4085   -4.0047 H       1  UNL11       0.0627
     31 H          -1.9876    0.3747   -5.2668 H       1  UNL11       0.0618
     32 H           0.1615    0.9305   -4.0855 H       1  UNL11       0.0618
     33 H           0.0733    1.4220   -1.7058 H       1  UNL11       0.0624
     34 H           1.4949   -0.5400   -0.1207 H       1  UNL11       0.1551
     35 H           0.6167   -2.8713    0.2315 H       1  UNL11       0.0647
     36 H          -3.1136   -3.3495    2.0954 H       1  UNL11       0.1375
     37 H          -3.4271   -1.0302    2.0682 H       1  UNL11       0.4469
@<TRIPOS>BOND
     1     1     2    2
     2     2     3    1
     3     2    15   am
     4     3     4    1
     5     3    27    1
     6     3    28    1
     7     4     5    2
     8     5     6    1
     9     6     7   am
    10     6    29    1
    11     7     8    2
    12     7     9    1
    13     9    10   ar
    14    10    11   ar
    15    10    30    1
    16    11    12   ar
    17    11    31    1
    18    12    13   ar
    19    12    32    1
    20    13    14   ar
    21    13    33    1
    22    14     4    1
    23    14     9   ar
    24    15    16    1
    25    15    34    1
    26    16    17    2
    27    17    18    1
    28    17    35    1
    29    18    19    1
    30    18    23    2
    31    19    20    1
    32    19    21    1
    33    19    22    1
    34    23    24    1
    35    23    36    1
    36    24    25   am
    37    24    37    1
    38    25    26    2
    39    25    16    1
@<TRIPOS>MOLECULE
*****
 37 39 0 0 0
SMALL
GASTEIGER

@<TRIPOS>ATOM
      1 O           1.1247    0.5929    0.9092 O.2     1  UNL11      -0.2751
      2 C           0.4102    1.3002    0.1630 C.2     1  UNL11       0.2235
      3 C          -0.8729    1.8950    0.6014 C.3     1  UNL11       0.0728
      4 C          -2.0682    1.5123   -0.1348 C.2     1  UNL11       0.1237
      5 N          -2.4962    2.2066   -1.2095 N.2     1  UNL11      -0.0071
      6 N          -3.5373    1.8739   -1.9445 N.am    1  UNL11      -0.0356
      7 C          -4.2691    0.7889   -1.6676 C.2     1  UNL11       0.4383
      8 O          -5.2506    0.5135   -2.4065 O.2     1  UNL11      -0.2116
      9 C          -3.8863    0.0340   -0.5787 C.ar    1  UNL11       0.1004
     10 C          -4.6398   -1.0932   -0.2305 C.ar    1  UNL11      -0.0441
     11 C          -4.2878   -1.8472    0.8777 C.ar    1  UNL11      -0.0608
     12 C          -3.2139   -1.5134    1.6470 C.ar    1  UNL11      -0.0611
     13 C          -2.4719   -0.3744    1.2750 C.ar    1  UNL11      -0.0518
     14 C          -2.7854    0.3919    0.1908 C.ar    1  UNL11       0.0194
     15 N           0.8673    1.5276   -1.1491 N.am    1  UNL11      -0.2772
     16 C           0.1702    2.3240   -2.1100 C.2     1  UNL11       0.1498
     17 C          -0.7556    1.7997   -2.9722 C.2     1  UNL11      -0.0131
     18 C          -1.5330    2.6061   -3.7975 C.2     1  UNL11       0.1195
     19 C          -2.5973    2.0108   -4.6909 C.3     1  UNL11       0.4229
     20 F          -2.5513    0.6024   -4.4527 F       1  UNL11      -0.1657
     21 F          -3.8086    2.4951   -4.3165 F       1  UNL11      -0.1657
     22 F          -2.2306    2.2381   -5.9852 F       1  UNL11      -0.1657
     23 C          -1.3523    3.9588   -3.7346 C.2     1  UNL11       0.1777
     24 N          -0.4298    4.4868   -2.8776 N.am    1  UNL11      -0.1491
     25 C           0.3226    3.7010   -2.0771 C.2     1  UNL11       0.4277
     26 O           1.1840    4.2234   -1.2806 O.2     1  UNL11      -0.2127
     27 H          -0.7704    3.0330    0.4882 H       1  UNL11       0.0425
     28 H          -1.0226    1.7765    1.7312 H       1  UNL11       0.0425
     29 H          -3.7883    2.4962   -2.7814 H       1  UNL11       0.4829
     30 H          -5.4884   -1.3427   -0.8618 H       1  UNL11       0.0627
     31 H          -4.9247   -2.7216    1.1114 H       1  UNL11       0.0618
     32 H          -2.9327   -2.1107    2.5192 H       1  UNL11       0.0618
     33 H          -1.6617   -0.1275    1.9166 H       1  UNL11       0.0624
     34 H           1.7866    1.0926   -1.4819 H       1  UNL11       0.1551
     35 H          -0.9667    0.7398   -3.0748 H       1  UNL11       0.0647
     36 H          -1.9447    4.6109   -4.3695 H       1  UNL11       0.1375
     37 H          -0.3694    5.5068   -2.8881 H       1  UNL11       0.4469
@<TRIPOS>BOND
     1     1     2    2
     2     2     3    1
     3     2    15   am
     4     3     4    1
     5     3    27    1
     6     3    28    1
     7     4     5    2
     8     5     6    1
     9     6     7   am
    10     6    29    1
    11     7     8    2
    12     7     9    1
    13     9    10   ar
    14    10    11   ar
    15    10    30    1
    16    11    12   ar
    17    11    31    1
    18    12    13   ar
    19    12    32    1
    20    13    14   ar
    21    13    33    1
    22    14     4    1
    23    14     9   ar
    24    15    16    1
    25    15    34    1
    26    16    17    2
    27    17    18    1
    28    17    35    1
    29    18    19    1
    30    18    23    2
    31    19    20    1
    32    19    21    1
    33    19    22    1
    34    23    24    1
    35    23    36    1
    36    24    25   am
    37    24    37    1
    38    25    26    2
    39    25    16    1
@<TRIPOS>MOLECULE
*****
 37 39 0 0 0
SMALL
GASTEIGER

@<TRIPOS>ATOM
      1 O           0.6379    0.9662   -1.0220 O.2     1  UNL11      -0.2751
      2 C           0.4102    1.3002    0.1630 C.2     1  UNL11       0.2235
      3 C          -0.8729    1.8950    0.6014 C.3     1  UNL11       0.0728
      4 C          -2.0682    1.5123   -0.1348 C.2     1  UNL11       0.1237
      5 N          -2.8304    2.4207   -0.7782 N.2     1  UNL11      -0.0071
      6 N          -3.8889    2.1245   -1.5038 N.am    1  UNL11      -0.0356
      7 C          -4.2976    0.8601   -1.6583 C.2     1  UNL11       0.4383
      8 O          -5.3125    0.6323   -2.3676 O.2     1  UNL11      -0.2116
      9 C          -3.5627   -0.1196   -1.0243 C.ar    1  UNL11       0.1004
     10 C          -3.9696   -1.4548   -1.1307 C.ar    1  UNL11      -0.0441
     11 C          -3.2607   -2.4499   -0.4766 C.ar    1  UNL11      -0.0608
     12 C          -2.1647   -2.1569    0.2780 C.ar    1  UNL11      -0.0611
     13 C          -1.7758   -0.8052    0.3687 C.ar    1  UNL11      -0.0518
     14 C          -2.4461    0.2020   -0.2614 C.ar    1  UNL11       0.0194
     15 N           1.4353    1.0914    1.1052 N.am    1  UNL11      -0.2772
     16 C           1.3187    1.4078    2.4943 C.2     1  UNL11       0.1498
     17 C           1.6711    2.6281    3.0064 C.2     1  UNL11      -0.0131
     18 C           1.4141    2.9736    4.3294 C.2     1  UNL11       0.1195
     19 C           1.7490    4.3510    4.8545 C.3     1  UNL11       0.4229
     20 F           2.3141    5.0547    3.7464 F       1  UNL11      -0.1657
     21 F           0.6031    4.9646    5.2451 F       1  UNL11      -0.1657
     22 F           2.7135    4.2105    5.8091 F       1  UNL11      -0.1657
     23 C           0.7933    2.0552    5.1278 C.2     1  UNL11       0.1777
     24 N           0.4407    0.8365    4.6227 N.am    1  UNL11      -0.1491
     25 C           0.6910    0.5047    3.3375 C.2     1  UNL11       0.4277
     26 O           0.3497   -0.6488    2.8880 O.2     1  UNL11      -0.2127
     27 H          -0.7704    3.0330    0.4882 H       1  UNL11       0.0425
     28 H          -1.0226    1.7765    1.7312 H       1  UNL11       0.0425
     29 H          -4.4218    2.9264   -1.9765 H       1  UNL11       0.4829
     30 H          -4.8432   -1.6647   -1.7420 H       1  UNL11       0.0627
     31 H          -3.6333   -3.4860   -0.5880 H       1  UNL11       0.0618
     32 H          -1.6020   -2.9423    0.7909 H       1  UNL11       0.0618
     33 H          -0.9364   -0.6123    0.9911 H       1  UNL11       0.0624
     34 H           2.3718    0.6742    0.7983 H       1  UNL11       0.1551
     35 H           2.1566    3.4146    2.4373 H       1  UNL11       0.0647
     36 H           0.5827    2.2986    6.1649 H       1  UNL11       0.1375
     37 H          -0.0286    0.2171    5.2862 H       1  UNL11       0.4469
@<TRIPOS>BOND
     1     1     2    2
     2     2     3    1
     3     2    15   am
     4     3     4    1
     5     3    27    1
     6     3    28    1
     7     4     5    2
     8     5     6    1
     9     6     7   am
    10     6    29    1
    11     7     8    2
    12     7     9    1
    13     9    10   ar
    14    10    11   ar
    15    10    30    1
    16    11    12   ar
    17    11    31    1
    18    12    13   ar
    19    12    32    1
    20    13    14   ar
    21    13    33    1
    22    14     4    1
    23    14     9   ar
    24    15    16    1
    25    15    34    1
    26    16    17    2
    27    17    18    1
    28    17    35    1
    29    18    19    1
    30    18    23    2
    31    19    20    1
    32    19    21    1
    33    19    22    1
    34    23    24    1
    35    23    36    1
    36    24    25   am
    37    24    37    1
    38    25    26    2
    39    25    16    1
@<TRIPOS>MOLECULE
*****
 37 39 0 0 0
SMALL
GASTEIGER

@<TRIPOS>ATOM
      1 O           0.8567    0.2251    0.6238 O.2     1  UNL11      -0.2751
      2 C           0.4102    1.3002    0.1630 C.2     1  UNL11       0.2235
      3 C          -0.8729    1.8950    0.6014 C.3     1  UNL11       0.0728
      4 C          -2.0682    1.5123   -0.1348 C.2     1  UNL11       0.1237
      5 N          -3.1183    2.3479   -0.2729 N.2     1  UNL11      -0.0071
      6 N          -4.1999    2.0752   -0.9732 N.am    1  UNL11      -0.0356
      7 C          -4.3390    0.9111   -1.6176 C.2     1  UNL11       0.4383
      8 O          -5.3911    0.7042   -2.2775 O.2     1  UNL11      -0.2116
      9 C          -3.3009    0.0089   -1.5161 C.ar    1  UNL11       0.1004
     10 C          -3.4137   -1.2356   -2.1472 C.ar    1  UNL11      -0.0441
     11 C          -2.3934   -2.1663   -2.0321 C.ar    1  UNL11      -0.0608
     12 C          -1.2699   -1.8972   -1.3098 C.ar    1  UNL11      -0.0611
     13 C          -1.1809   -0.6372   -0.6846 C.ar    1  UNL11      -0.0518
     14 C          -2.1625    0.3056   -0.7757 C.ar    1  UNL11       0.0194
     15 N           1.1801    1.9568   -0.8159 N.am    1  UNL11      -0.2772
     16 C           0.8093    3.1966   -1.4233 C.2     1  UNL11       0.1498
     17 C          -0.3434    3.8620   -1.1007 C.2     1  UNL11      -0.0131
     18 C          -0.6190    5.1361   -1.5870 C.2     1  UNL11       0.1195
     19 C          -1.8647    5.8799   -1.1625 C.3     1  UNL11       0.4229
     20 F          -2.5437    5.0034   -0.2609 F       1  UNL11      -0.1657
     21 F          -1.5008    7.0116   -0.5076 F       1  UNL11      -0.1657
     22 F          -2.6473    6.0475   -2.2673 F       1  UNL11      -0.1657
     23 C           0.2975    5.7248   -2.4115 C.2     1  UNL11       0.1777
     24 N           1.4480    5.0654   -2.7373 N.am    1  UNL11      -0.1491
     25 C           1.7127    3.8289   -2.2628 C.2     1  UNL11       0.4277
     26 O           2.8022    3.2305   -2.5856 O.2     1  UNL11      -0.2127
     27 H          -0.7704    3.0330    0.4882 H       1  UNL11       0.0425
     28 H          -1.0226    1.7765    1.7312 H       1  UNL11       0.0425
     29 H          -4.9754    2.8148   -1.0197 H       1  UNL11       0.4829
     30 H          -4.3163   -1.4255   -2.7217 H       1  UNL11       0.0627
     31 H          -2.5407   -3.1367   -2.5435 H       1  UNL11       0.0618
     32 H          -0.4621   -2.6296   -1.2223 H       1  UNL11       0.0618
     33 H          -0.3052   -0.4761   -0.1045 H       1  UNL11       0.0624
     34 H           2.1029    1.5305   -1.1504 H       1  UNL11       0.1551
     35 H          -1.1150    3.4695   -0.4458 H       1  UNL11       0.0647
     36 H           0.1062    6.7181   -2.8066 H       1  UNL11       0.1375
     37 H           2.0808    5.5844   -3.3492 H       1  UNL11       0.4469
@<TRIPOS>BOND
     1     1     2    2
     2     2     3    1
     3     2    15   am
     4     3     4    1
     5     3    27    1
     6     3    28    1
     7     4     5    2
     8     5     6    1
     9     6     7   am
    10     6    29    1
    11     7     8    2
    12     7     9    1
    13     9    10   ar
    14    10    11   ar
    15    10    30    1
    16    11    12   ar
    17    11    31    1
    18    12    13   ar
    19    12    32    1
    20    13    14   ar
    21    13    33    1
    22    14     4    1
    23    14     9   ar
    24    15    16    1
    25    15    34    1
    26    16    17    2
    27    17    18    1
    28    17    35    1
    29    18    19    1
    30    18    23    2
    31    19    20    1
    32    19    21    1
    33    19    22    1
    34    23    24    1
    35    23    36    1
    36    24    25   am
    37    24    37    1
    38    25    26    2
    39    25    16    1
@<TRIPOS>MOLECULE
*****
 37 39 0 0 0
SMALL
GASTEIGER

@<TRIPOS>ATOM
      1 O           1.3809    1.9859   -0.2309 O.2     1  UNL11      -0.2751
      2 C           0.4102    1.3002    0.1630 C.2     1  UNL11       0.2235
      3 C          -0.8729    1.8950    0.6014 C.3     1  UNL11       0.0728
      4 C          -2.0682    1.5123   -0.1348 C.2     1  UNL11       0.1237
      5 N          -2.0208    0.6531   -1.1739 N.2     1  UNL11      -0.0071
      6 N          -3.0759    0.2302   -1.8392 N.am    1  UNL11      -0.0356
      7 C          -4.3102    0.6371   -1.5220 C.2     1  UNL11       0.4383
      8 O          -5.2844    0.1969   -2.1870 O.2     1  UNL11      -0.2116
      9 C          -4.4297    1.5191   -0.4685 C.ar    1  UNL11       0.1004
     10 C          -5.6979    1.9976   -0.1192 C.ar    1  UNL11      -0.0441
     11 C          -5.8345    2.9069    0.9176 C.ar    1  UNL11      -0.0608
     12 C          -4.7511    3.3532    1.6131 C.ar    1  UNL11      -0.0611
     13 C          -3.4858    2.8559    1.2418 C.ar    1  UNL11      -0.0518
     14 C          -3.3107    1.9593    0.2289 C.ar    1  UNL11       0.0194
     15 N           0.5680   -0.0987    0.1815 N.am    1  UNL11      -0.2772
     16 C          -0.4532   -1.0114    0.5908 C.2     1  UNL11       0.1498
     17 C          -1.3604   -1.5463   -0.2847 C.2     1  UNL11      -0.0131
     18 C          -2.2517   -2.5443    0.0966 C.2     1  UNL11       0.1195
     19 C          -3.1971   -3.1690   -0.9040 C.3     1  UNL11       0.4229
     20 F          -2.9243   -2.5162   -2.1456 F       1  UNL11      -0.1657
     21 F          -2.9116   -4.4913   -1.0141 F       1  UNL11      -0.1657
     22 F          -4.4703   -2.8562   -0.5266 F       1  UNL11      -0.1657
     23 C          -2.2083   -2.9902    1.3872 C.2     1  UNL11       0.1777
     24 N          -1.3066   -2.4595    2.2646 N.am    1  UNL11      -0.1491
     25 C          -0.4421   -1.4913    1.8908 C.2     1  UNL11       0.4277
     26 O           0.3953   -1.0088    2.7363 O.2     1  UNL11      -0.2127
     27 H          -0.7704    3.0330    0.4882 H       1  UNL11       0.0425
     28 H          -1.0226    1.7765    1.7312 H       1  UNL11       0.0425
     29 H          -2.9246   -0.4574   -2.6484 H       1  UNL11       0.4829
     30 H          -6.5473    1.6235   -0.6844 H       1  UNL11       0.0627
     31 H          -6.8593    3.2585    1.1437 H       1  UNL11       0.0618
     32 H          -4.8587    4.0675    2.4346 H       1  UNL11       0.0618
     33 H          -2.6625    3.2508    1.7854 H       1  UNL11       0.0624
     34 H           1.4949   -0.5400   -0.1207 H       1  UNL11       0.1551
     35 H          -1.4520   -1.2554   -1.3265 H       1  UNL11       0.0647
     36 H          -2.8943   -3.7670    1.7115 H       1  UNL11       0.1375
     37 H          -1.3366   -2.8596    3.2044 H       1  UNL11       0.4469
@<TRIPOS>BOND
     1     1     2    2
     2     2     3    1
     3     2    15   am
     4     3     4    1
     5     3    27    1
     6     3    28    1
     7     4     5    2
     8     5     6    1
     9     6     7   am
    10     6    29    1
    11     7     8    2
    12     7     9    1
    13     9    10   ar
    14    10    11   ar
    15    10    30    1
    16    11    12   ar
    17    11    31    1
    18    12    13   ar
    19    12    32    1
    20    13    14   ar
    21    13    33    1
    22    14     4    1
    23    14     9   ar
    24    15    16    1
    25    15    34    1
    26    16    17    2
    27    17    18    1
    28    17    35    1
    29    18    19    1
    30    18    23    2
    31    19    20    1
    32    19    21    1
    33    19    22    1
    34    23    24    1
    35    23    36    1
    36    24    25   am
    37    24    37    1
    38    25    26    2
    39    25    16    1
@<TRIPOS>MOLECULE
*****
 37 39 0 0 0
SMALL
GASTEIGER

@<TRIPOS>ATOM
      1 O           1.3809    1.9859   -0.2309 O.2     1  UNL11      -0.2751
      2 C           0.4102    1.3002    0.1630 C.2     1  UNL11       0.2235
      3 C          -0.8729    1.8950    0.6014 C.3     1  UNL11       0.0728
      4 C          -2.0682    1.5123   -0.1348 C.2     1  UNL11       0.1237
      5 N          -2.0208    0.6531   -1.1739 N.2     1  UNL11      -0.0071
      6 N          -3.0759    0.2302   -1.8392 N.am    1  UNL11      -0.0356
      7 C          -4.3102    0.6371   -1.5220 C.2     1  UNL11       0.4383
      8 O          -5.2844    0.1969   -2.1870 O.2     1  UNL11      -0.2116
      9 C          -4.4297    1.5191   -0.4685 C.ar    1  UNL11       0.1004
     10 C          -5.6979    1.9976   -0.1192 C.ar    1  UNL11      -0.0441
     11 C          -5.8345    2.9069    0.9176 C.ar    1  UNL11      -0.0608
     12 C          -4.7511    3.3532    1.6131 C.ar    1  UNL11      -0.0611
     13 C          -3.4858    2.8559    1.2418 C.ar    1  UNL11      -0.0518
     14 C          -3.3107    1.9593    0.2289 C.ar    1  UNL11       0.0194
     15 N           0.5680   -0.0987    0.1815 N.am    1  UNL11      -0.2772
     16 C          -0.4532   -1.0114    0.5908 C.2     1  UNL11       0.1498
     17 C          -1.7877   -0.7421    0.4423 C.2     1  UNL11      -0.0131
     18 C          -2.7653   -1.6965    0.7057 C.2     1  UNL11       0.1195
     19 C          -4.2285   -1.3996    0.4685 C.3     1  UNL11       0.4229
     20 F          -4.2706   -0.0593   -0.0256 F       1  UNL11      -0.1657
     21 F          -4.7025   -2.2478   -0.4791 F       1  UNL11      -0.1657
     22 F          -4.8616   -1.4305    1.6767 F       1  UNL11      -0.1657
     23 C          -2.3642   -2.9328    1.1264 C.2     1  UNL11       0.1777
     24 N          -1.0349   -3.2063    1.2772 N.am    1  UNL11      -0.1491
     25 C          -0.0884   -2.2777    1.0198 C.2     1  UNL11       0.4277
     26 O           1.1551   -2.5608    1.1707 O.2     1  UNL11      -0.2127
     27 H          -0.7704    3.0330    0.4882 H       1  UNL11       0.0425
     28 H          -1.0226    1.7765    1.7312 H       1  UNL11       0.0425
     29 H          -2.9246   -0.4574   -2.6484 H       1  UNL11       0.4829
     30 H          -6.5473    1.6235   -0.6844 H       1  UNL11       0.0627
     31 H          -6.8593    3.2585    1.1437 H       1  UNL11       0.0618
     32 H          -4.8587    4.0675    2.4346 H       1  UNL11       0.0618
     33 H          -2.6625    3.2508    1.7854 H       1  UNL11       0.0624
     34 H           1.4949   -0.5400   -0.1207 H       1  UNL11       0.1551
     35 H          -2.1873    0.2086    0.1036 H       1  UNL11       0.0647
     36 H          -3.1068   -3.6955    1.3408 H       1  UNL11       0.1375
     37 H          -0.8253   -4.1581    1.5843 H       1  UNL11       0.4469
@<TRIPOS>BOND
     1     1     2    2
     2     2     3    1
     3     2    15   am
     4     3     4    1
     5     3    27    1
     6     3    28    1
     7     4     5    2
     8     5     6    1
     9     6     7   am
    10     6    29    1
    11     7     8    2
    12     7     9    1
    13     9    10   ar
    14    10    11   ar
    15    10    30    1
    16    11    12   ar
    17    11    31    1
    18    12    13   ar
    19    12    32    1
    20    13    14   ar
    21    13    33    1
    22    14     4    1
    23    14     9   ar
    24    15    16    1
    25    15    34    1
    26    16    17    2
    27    17    18    1
    28    17    35    1
    29    18    19    1
    30    18    23    2
    31    19    20    1
    32    19    21    1
    33    19    22    1
    34    23    24    1
    35    23    36    1
    36    24    25   am
    37    24    37    1
    38    25    26    2
    39    25    16    1
@<TRIPOS>MOLECULE
*****
 37 39 0 0 0
SMALL
GASTEIGER

@<TRIPOS>ATOM
      1 O           1.1525    1.8335   -0.6926 O.2     1  UNL11      -0.2751
      2 C           0.4102    1.3002    0.1630 C.2     1  UNL11       0.2235
      3 C          -0.8729    1.8950    0.6014 C.3     1  UNL11       0.0728
      4 C          -2.0682    1.5123   -0.1348 C.2     1  UNL11       0.1237
      5 N          -2.1917    1.7364   -1.4594 N.2     1  UNL11      -0.0071
      6 N          -3.2254    1.3621   -2.1847 N.am    1  UNL11      -0.0356
      7 C          -4.2611    0.7129   -1.6411 C.2     1  UNL11       0.4383
      8 O          -5.2210    0.3728   -2.3814 O.2     1  UNL11      -0.2116
      9 C          -4.1995    0.4530   -0.2881 C.ar    1  UNL11       0.1004
     10 C          -5.2734   -0.1963    0.3320 C.ar    1  UNL11      -0.0441
     11 C          -5.2424   -0.4398    1.6960 C.ar    1  UNL11      -0.0608
     12 C          -4.1796   -0.0569    2.4579 C.ar    1  UNL11      -0.0611
     13 C          -3.1113    0.5947    1.8094 C.ar    1  UNL11      -0.0518
     14 C          -3.1039    0.8506    0.4695 C.ar    1  UNL11       0.0194
     15 N           0.8346    0.0790    0.7205 N.am    1  UNL11      -0.2772
     16 C           0.0895   -0.6547    1.6951 C.2     1  UNL11       0.1498
     17 C          -1.1688   -1.1382    1.4531 C.2     1  UNL11      -0.0131
     18 C          -1.8215   -1.9755    2.3523 C.2     1  UNL11       0.1195
     19 C          -3.1815   -2.5532    2.0332 C.3     1  UNL11       0.4229
     20 F          -3.5163   -2.0485    0.7388 F       1  UNL11      -0.1657
     21 F          -3.0848   -3.9060    1.9817 F       1  UNL11      -0.1657
     22 F          -4.0721   -2.0461    2.9338 F       1  UNL11      -0.1657
     23 C          -1.1743   -2.3131    3.5071 C.2     1  UNL11       0.1777
     24 N           0.0799   -1.8329    3.7540 N.am    1  UNL11      -0.1491
     25 C           0.7111   -1.0209    2.8784 C.2     1  UNL11       0.4277
     26 O           1.8904   -0.5825    3.1356 O.2     1  UNL11      -0.2127
     27 H          -0.7704    3.0330    0.4882 H       1  UNL11       0.0425
     28 H          -1.0226    1.7765    1.7312 H       1  UNL11       0.0425
     29 H          -3.2194    1.5884   -3.2332 H       1  UNL11       0.4829
     30 H          -6.1073   -0.4968   -0.2967 H       1  UNL11       0.0627
     31 H          -6.1227   -0.9475    2.1343 H       1  UNL11       0.0618
     32 H          -4.1524   -0.2529    3.5337 H       1  UNL11       0.0618
     33 H          -2.3156    0.9064    2.4409 H       1  UNL11       0.0624
     34 H           1.7661   -0.3545    0.4214 H       1  UNL11       0.1551
     35 H          -1.7451   -0.9265    0.5579 H       1  UNL11       0.0647
     36 H          -1.6620   -2.9635    4.2270 H       1  UNL11       0.1375
     37 H           0.4925   -2.1451    4.6351 H       1  UNL11       0.4469
@<TRIPOS>BOND
     1     1     2    2
     2     2     3    1
     3     2    15   am
     4     3     4    1
     5     3    27    1
     6     3    28    1
     7     4     5    2
     8     5     6    1
     9     6     7   am
    10     6    29    1
    11     7     8    2
    12     7     9    1
    13     9    10   ar
    14    10    11   ar
    15    10    30    1
    16    11    12   ar
    17    11    31    1
    18    12    13   ar
    19    12    32    1
    20    13    14   ar
    21    13    33    1
    22    14     4    1
    23    14     9   ar
    24    15    16    1
    25    15    34    1
    26    16    17    2
    27    17    18    1
    28    17    35    1
    29    18    19    1
    30    18    23    2
    31    19    20    1
    32    19    21    1
    33    19    22    1
    34    23    24    1
    35    23    36    1
    36    24    25   am
    37    24    37    1
    38    25    26    2
    39    25    16    1
@<TRIPOS>MOLECULE
*****
 37 39 0 0 0
SMALL
GASTEIGER

@<TRIPOS>ATOM
      1 O           0.6379    0.9662   -1.0220 O.2     1  UNL11      -0.2751
      2 C           0.4102    1.3002    0.1630 C.2     1  UNL11       0.2235
      3 C          -0.8729    1.8950    0.6014 C.3     1  UNL11       0.0728
      4 C          -2.0682    1.5123   -0.1348 C.2     1  UNL11       0.1237
      5 N          -2.8304    2.4207   -0.7782 N.2     1  UNL11      -0.0071
      6 N          -3.8889    2.1245   -1.5038 N.am    1  UNL11      -0.0356
      7 C          -4.2976    0.8601   -1.6583 C.2     1  UNL11       0.4383
      8 O          -5.3125    0.6323   -2.3676 O.2     1  UNL11      -0.2116
      9 C          -3.5627   -0.1196   -1.0243 C.ar    1  UNL11       0.1004
     10 C          -3.9696   -1.4548   -1.1307 C.ar    1  UNL11      -0.0441
     11 C          -3.2607   -2.4499   -0.4766 C.ar    1  UNL11      -0.0608
     12 C          -2.1647   -2.1569    0.2780 C.ar    1  UNL11      -0.0611
     13 C          -1.7758   -0.8052    0.3687 C.ar    1  UNL11      -0.0518
     14 C          -2.4461    0.2020   -0.2614 C.ar    1  UNL11       0.0194
     15 N           1.4353    1.0914    1.1052 N.am    1  UNL11      -0.2772
     16 C           1.3187    1.4078    2.4943 C.2     1  UNL11       0.1498
     17 C           2.3383    1.2066    3.3862 C.2     1  UNL11      -0.0131
     18 C           2.2658    1.6553    4.7012 C.2     1  UNL11       0.1195
     19 C           3.4310    1.4836    5.6488 C.3     1  UNL11       0.4229
     20 F           4.4478    0.8279    4.8883 F       1  UNL11      -0.1657
     21 F           3.8707    2.7088    6.0332 F       1  UNL11      -0.1657
     22 F           3.0356    0.6437    6.6485 F       1  UNL11      -0.1657
     23 C           1.1353    2.3118    5.0981 C.2     1  UNL11       0.1777
     24 N           0.1152    2.5140    4.2133 N.am    1  UNL11      -0.1491
     25 C           0.1893    2.0779    2.9371 C.2     1  UNL11       0.4277
     26 O          -0.7851    2.2805    2.1255 O.2     1  UNL11      -0.2127
     27 H          -0.7704    3.0330    0.4882 H       1  UNL11       0.0425
     28 H          -1.0226    1.7765    1.7312 H       1  UNL11       0.0425
     29 H          -4.4218    2.9264   -1.9765 H       1  UNL11       0.4829
     30 H          -4.8432   -1.6647   -1.7420 H       1  UNL11       0.0627
     31 H          -3.6333   -3.4860   -0.5880 H       1  UNL11       0.0618
     32 H          -1.6020   -2.9423    0.7909 H       1  UNL11       0.0618
     33 H          -0.9364   -0.6123    0.9911 H       1  UNL11       0.0624
     34 H           2.3718    0.6742    0.7983 H       1  UNL11       0.1551
     35 H           3.2710    0.7049    3.1480 H       1  UNL11       0.0647
     36 H           1.0521    2.6706    6.1196 H       1  UNL11       0.1375
     37 H          -0.6859    3.0230    4.5919 H       1  UNL11       0.4469
@<TRIPOS>BOND
     1     1     2    2
     2     2     3    1
     3     2    15   am
     4     3     4    1
     5     3    27    1
     6     3    28    1
     7     4     5    2
     8     5     6    1
     9     6     7   am
    10     6    29    1
    11     7     8    2
    12     7     9    1
    13     9    10   ar
    14    10    11   ar
    15    10    30    1
    16    11    12   ar
    17    11    31    1
    18    12    13   ar
    19    12    32    1
    20    13    14   ar
    21    13    33    1
    22    14     4    1
    23    14     9   ar
    24    15    16    1
    25    15    34    1
    26    16    17    2
    27    17    18    1
    28    17    35    1
    29    18    19    1
    30    18    23    2
    31    19    20    1
    32    19    21    1
    33    19    22    1
    34    23    24    1
    35    23    36    1
    36    24    25   am
    37    24    37    1
    38    25    26    2
    39    25    16    1
@<TRIPOS>MOLECULE
*****
 37 39 0 0 0
SMALL
GASTEIGER

@<TRIPOS>ATOM
      1 O           1.3604    1.0741    0.9463 O.2     1  UNL11      -0.2751
      2 C           0.4102    1.3002    0.1630 C.2     1  UNL11       0.2235
      3 C          -0.8729    1.8950    0.6014 C.3     1  UNL11       0.0728
      4 C          -2.0682    1.5123   -0.1348 C.2     1  UNL11       0.1237
      5 N          -2.0208    0.6531   -1.1739 N.2     1  UNL11      -0.0071
      6 N          -3.0759    0.2302   -1.8392 N.am    1  UNL11      -0.0356
      7 C          -4.3102    0.6371   -1.5220 C.2     1  UNL11       0.4383
      8 O          -5.2844    0.1969   -2.1870 O.2     1  UNL11      -0.2116
      9 C          -4.4297    1.5191   -0.4685 C.ar    1  UNL11       0.1004
     10 C          -5.6979    1.9976   -0.1192 C.ar    1  UNL11      -0.0441
     11 C          -5.8345    2.9069    0.9176 C.ar    1  UNL11      -0.0608
     12 C          -4.7511    3.3532    1.6131 C.ar    1  UNL11      -0.0611
     13 C          -3.4858    2.8559    1.2418 C.ar    1  UNL11      -0.0518
     14 C          -3.3107    1.9593    0.2289 C.ar    1  UNL11       0.0194
     15 N           0.5921    0.9659   -1.1925 N.am    1  UNL11      -0.2772
     16 C          -0.3939    1.1777   -2.2057 C.2     1  UNL11       0.1498
     17 C          -1.6399    0.6116   -2.1541 C.2     1  UNL11      -0.0131
     18 C          -2.6377    0.9432   -3.0652 C.2     1  UNL11       0.1195
     19 C          -4.0266    0.3582   -2.9475 C.3     1  UNL11       0.4229
     20 F          -3.9858   -0.4934   -1.8006 F       1  UNL11      -0.1657
     21 F          -4.9122    1.3644   -2.7344 F       1  UNL11      -0.1657
     22 F          -4.2476   -0.4167   -4.0483 F       1  UNL11      -0.1657
     23 C          -2.3477    1.8608   -4.0350 C.2     1  UNL11       0.1777
     24 N          -1.1066    2.4274   -4.0916 N.am    1  UNL11      -0.1491
     25 C          -0.1405    2.1038   -3.2049 C.2     1  UNL11       0.4277
     26 O           1.0187    2.6511   -3.2813 O.2     1  UNL11      -0.2127
     27 H          -0.7704    3.0330    0.4882 H       1  UNL11       0.0425
     28 H          -1.0226    1.7765    1.7312 H       1  UNL11       0.0425
     29 H          -2.9246   -0.4574   -2.6484 H       1  UNL11       0.4829
     30 H          -6.5473    1.6235   -0.6844 H       1  UNL11       0.0627
     31 H          -6.8593    3.2585    1.1437 H       1  UNL11       0.0618
     32 H          -4.8587    4.0675    2.4346 H       1  UNL11       0.0618
     33 H          -2.6625    3.2508    1.7854 H       1  UNL11       0.0624
     34 H           1.5100    0.5235   -1.5194 H       1  UNL11       0.1551
     35 H          -1.9527   -0.1154   -1.4111 H       1  UNL11       0.0647
     36 H          -3.1079    2.1361   -4.7599 H       1  UNL11       0.1375
     37 H          -0.9814    3.1107   -4.8410 H       1  UNL11       0.4469
@<TRIPOS>BOND
     1     1     2    2
     2     2     3    1
     3     2    15   am
     4     3     4    1
     5     3    27    1
     6     3    28    1
     7     4     5    2
     8     5     6    1
     9     6     7   am
    10     6    29    1
    11     7     8    2
    12     7     9    1
    13     9    10   ar
    14    10    11   ar
    15    10    30    1
    16    11    12   ar
    17    11    31    1
    18    12    13   ar
    19    12    32    1
    20    13    14   ar
    21    13    33    1
    22    14     4    1
    23    14     9   ar
    24    15    16    1
    25    15    34    1
    26    16    17    2
    27    17    18    1
    28    17    35    1
    29    18    19    1
    30    18    23    2
    31    19    20    1
    32    19    21    1
    33    19    22    1
    34    23    24    1
    35    23    36    1
    36    24    25   am
    37    24    37    1
    38    25    26    2
    39    25    16    1
@<TRIPOS>MOLECULE
*****
 37 39 0 0 0
SMALL
GASTEIGER

@<TRIPOS>ATOM
      1 O           1.5022    1.5427    0.7254 O.2     1  UNL11      -0.2751
      2 C           0.4102    1.3002    0.1630 C.2     1  UNL11       0.2235
      3 C          -0.8729    1.8950    0.6014 C.3     1  UNL11       0.0728
      4 C          -2.0682    1.5123   -0.1348 C.2     1  UNL11       0.1237
      5 N          -2.1835    0.3070   -0.7298 N.2     1  UNL11      -0.0071
      6 N          -3.2611   -0.1121   -1.3604 N.am    1  UNL11      -0.0356
      7 C          -4.3535    0.6536   -1.4602 C.2     1  UNL11       0.4383
      8 O          -5.3586    0.2015   -2.0690 O.2     1  UNL11      -0.2116
      9 C          -4.3020    1.9011   -0.8744 C.ar    1  UNL11       0.1004
     10 C          -5.4094    2.7508   -0.9792 C.ar    1  UNL11      -0.0441
     11 C          -5.3653    4.0191   -0.4222 C.ar    1  UNL11      -0.0608
     12 C          -4.2564    4.4652    0.2319 C.ar    1  UNL11      -0.0611
     13 C          -3.1553    3.5903    0.3236 C.ar    1  UNL11      -0.0518
     14 C          -3.1608    2.3347   -0.2097 C.ar    1  UNL11       0.0194
     15 N           0.4265    0.4188   -0.9347 N.am    1  UNL11      -0.2772
     16 C          -0.7352    0.0578   -1.6853 C.2     1  UNL11       0.1498
     17 C          -1.5150   -1.0220   -1.3664 C.2     1  UNL11      -0.0131
     18 C          -2.7218   -1.2749   -2.0111 C.2     1  UNL11       0.1195
     19 C          -3.5997   -2.4332   -1.5955 C.3     1  UNL11       0.4229
     20 F          -2.9085   -3.0684   -0.5179 F       1  UNL11      -0.1657
     21 F          -4.7869   -1.9490   -1.1504 F       1  UNL11      -0.1657
     22 F          -3.6589   -3.3080   -2.6408 F       1  UNL11      -0.1657
     23 C          -3.1241   -0.4116   -2.9905 C.2     1  UNL11       0.1777
     24 N          -2.3499    0.6658   -3.3132 N.am    1  UNL11      -0.1491
     25 C          -1.1793    0.9089   -2.6848 C.2     1  UNL11       0.4277
     26 O          -0.4699    1.9293   -3.0084 O.2     1  UNL11      -0.2127
     27 H          -0.7704    3.0330    0.4882 H       1  UNL11       0.0425
     28 H          -1.0226    1.7765    1.7312 H       1  UNL11       0.0425
     29 H          -3.2466   -1.0924   -1.7955 H       1  UNL11       0.4829
     30 H          -6.2841    2.3714   -1.5006 H       1  UNL11       0.0627
     31 H          -6.2657    4.6511   -0.5440 H       1  UNL11       0.0618
     32 H          -4.2226    5.4644    0.6757 H       1  UNL11       0.0618
     33 H          -2.2982    3.9846    0.8125 H       1  UNL11       0.0624
     34 H           1.3455   -0.0276   -1.2531 H       1  UNL11       0.1551
     35 H          -1.2725   -1.7471   -0.5959 H       1  UNL11       0.0647
     36 H          -4.0609   -0.5870   -3.5109 H       1  UNL11       0.1375
     37 H          -2.7327    1.2638   -4.0481 H       1  UNL11       0.4469
@<TRIPOS>BOND
     1     1     2    2
     2     2     3    1
     3     2    15   am
     4     3     4    1
     5     3    27    1
     6     3    28    1
     7     4     5    2
     8     5     6    1
     9     6     7   am
    10     6    29    1
    11     7     8    2
    12     7     9    1
    13     9    10   ar
    14    10    11   ar
    15    10    30    1
    16    11    12   ar
    17    11    31    1
    18    12    13   ar
    19    12    32    1
    20    13    14   ar
    21    13    33    1
    22    14     4    1
    23    14     9   ar
    24    15    16    1
    25    15    34    1
    26    16    17    2
    27    17    18    1
    28    17    35    1
    29    18    19    1
    30    18    23    2
    31    19    20    1
    32    19    21    1
    33    19    22    1
    34    23    24    1
    35    23    36    1
    36    24    25   am
    37    24    37    1
    38    25    26    2
    39    25    16    1
@<TRIPOS>MOLECULE
*****
 37 39 0 0 0
SMALL
GASTEIGER

@<TRIPOS>ATOM
      1 O           0.8846    1.4698   -0.9832 O.2     1  UNL11      -0.2751
      2 C           0.4102    1.3002    0.1630 C.2     1  UNL11       0.2235
      3 C          -0.8729    1.8950    0.6014 C.3     1  UNL11       0.0728
      4 C          -2.0682    1.5123   -0.1348 C.2     1  UNL11       0.1237
      5 N          -2.8190    0.4514    0.2270 N.2     1  UNL11      -0.0071
      6 N          -3.9381    0.0935   -0.3682 N.am    1  UNL11      -0.0356
      7 C          -4.4250    0.7785   -1.4090 C.2     1  UNL11       0.4383
      8 O          -5.5021    0.3963   -1.9372 O.2     1  UNL11      -0.2116
      9 C          -3.7039    1.8753   -1.8320 C.ar    1  UNL11       0.1004
     10 C          -4.1569    2.6054   -2.9371 C.ar    1  UNL11      -0.0441
     11 C          -3.4301    3.6930   -3.3947 C.ar    1  UNL11      -0.0608
     12 C          -2.2705    4.0732   -2.7887 C.ar    1  UNL11      -0.0611
     13 C          -1.8364    3.3218   -1.6782 C.ar    1  UNL11      -0.0518
     14 C          -2.5244    2.2466   -1.1971 C.ar    1  UNL11       0.0194
     15 N           1.1473    0.5036    1.0598 N.am    1  UNL11      -0.2772
     16 C           0.7284    0.2082    2.3942 C.2     1  UNL11       0.1498
     17 C          -0.0334   -0.8869    2.7043 C.2     1  UNL11      -0.0131
     18 C          -0.3082   -1.2441    4.0206 C.2     1  UNL11       0.1195
     19 C          -1.0929   -2.4957    4.3411 C.3     1  UNL11       0.4229
     20 F          -1.4037   -3.0853    3.0769 F       1  UNL11      -0.1657
     21 F          -0.3045   -3.3398    5.0540 F       1  UNL11      -0.1657
     22 F          -2.2609   -2.1154    4.9347 F       1  UNL11      -0.1657
     23 C           0.2031   -0.4665    5.0209 C.2     1  UNL11       0.1777
     24 N           0.9622    0.6271    4.7173 N.am    1  UNL11      -0.1491
     25 C           1.2278    0.9704    3.4382 C.2     1  UNL11       0.4277
     26 O           1.9440    2.0047    3.1804 O.2     1  UNL11      -0.2127
     27 H          -0.7704    3.0330    0.4882 H       1  UNL11       0.0425
     28 H          -1.0226    1.7765    1.7312 H       1  UNL11       0.0425
     29 H          -4.4592   -0.7669    0.0041 H       1  UNL11       0.4829
     30 H          -5.0867    2.2867   -3.4007 H       1  UNL11       0.0627
     31 H          -3.8302    4.2270   -4.2777 H       1  UNL11       0.0618
     32 H          -1.6987    4.9343   -3.1466 H       1  UNL11       0.0618
     33 H          -0.9125    3.6285   -1.2522 H       1  UNL11       0.0624
     34 H           2.0823    0.0787    0.7591 H       1  UNL11       0.1551
     35 H          -0.4665   -1.5599    1.9709 H       1  UNL11       0.0647
     36 H           0.0021   -0.7219    6.0570 H       1  UNL11       0.1375
     37 H           1.3125    1.1436    5.5264 H       1  UNL11       0.4469
@<TRIPOS>BOND
     1     1     2    2
     2     2     3    1
     3     2    15   am
     4     3     4    1
     5     3    27    1
     6     3    28    1
     7     4     5    2
     8     5     6    1
     9     6     7   am
    10     6    29    1
    11     7     8    2
    12     7     9    1
    13     9    10   ar
    14    10    11   ar
    15    10    30    1
    16    11    12   ar
    17    11    31    1
    18    12    13   ar
    19    12    32    1
    20    13    14   ar
    21    13    33    1
    22    14     4    1
    23    14     9   ar
    24    15    16    1
    25    15    34    1
    26    16    17    2
    27    17    18    1
    28    17    35    1
    29    18    19    1
    30    18    23    2
    31    19    20    1
    32    19    21    1
    33    19    22    1
    34    23    24    1
    35    23    36    1
    36    24    25   am
    37    24    37    1
    38    25    26    2
    39    25    16    1
@<TRIPOS>MOLECULE
*****
 37 39 0 0 0
SMALL
GASTEIGER

@<TRIPOS>ATOM
      1 O           1.1525    1.8335   -0.6926 O.2     1  UNL11      -0.2751
      2 C           0.4102    1.3002    0.1630 C.2     1  UNL11       0.2235
      3 C          -0.8729    1.8950    0.6014 C.3     1  UNL11       0.0728
      4 C          -2.0682    1.5123   -0.1348 C.2     1  UNL11       0.1237
      5 N          -3.2814    1.4610    0.4530 N.2     1  UNL11      -0.0071
      6 N          -4.4024    1.1754   -0.1767 N.am    1  UNL11      -0.0356
      7 C          -4.4178    0.9058   -1.4869 C.2     1  UNL11       0.4383
      8 O          -5.5182    0.6449   -2.0404 O.2     1  UNL11      -0.2116
      9 C          -3.2087    0.9393   -2.1494 C.ar    1  UNL11       0.1004
     10 C          -3.1697    0.6335   -3.5149 C.ar    1  UNL11      -0.0441
     11 C          -1.9600    0.6333   -4.1911 C.ar    1  UNL11      -0.0608
     12 C          -0.7931    0.9259   -3.5514 C.ar    1  UNL11      -0.0611
     13 C          -0.8597    1.2306   -2.1769 C.ar    1  UNL11      -0.0518
     14 C          -2.0306    1.2429   -1.4771 C.ar    1  UNL11       0.0194
     15 N           0.8346    0.0790    0.7205 N.am    1  UNL11      -0.2772
     16 C           0.0895   -0.6547    1.6951 C.2     1  UNL11       0.1498
     17 C          -0.7442   -0.0493    2.5974 C.2     1  UNL11      -0.0131
     18 C          -1.5748   -0.7821    3.4394 C.2     1  UNL11       0.1195
     19 C          -2.5372   -0.0918    4.3787 C.3     1  UNL11       0.4229
     20 F          -2.3482    1.3074    4.1581 F       1  UNL11      -0.1657
     21 F          -3.8059   -0.4370    4.0420 F       1  UNL11      -0.1657
     22 F          -2.1526   -0.3796    5.6557 F       1  UNL11      -0.1657
     23 C          -1.5430   -2.1451    3.3517 C.2     1  UNL11       0.1777
     24 N          -0.7129   -2.7538    2.4546 N.am    1  UNL11      -0.1491
     25 C           0.0916   -2.0394    1.6381 C.2     1  UNL11       0.4277
     26 O           0.8636   -2.6371    0.8039 O.2     1  UNL11      -0.2127
     27 H          -0.7704    3.0330    0.4882 H       1  UNL11       0.0425
     28 H          -1.0226    1.7765    1.7312 H       1  UNL11       0.0425
     29 H          -5.3144    1.1658    0.3879 H       1  UNL11       0.4829
     30 H          -4.1133    0.4085   -4.0047 H       1  UNL11       0.0627
     31 H          -1.9876    0.3747   -5.2668 H       1  UNL11       0.0618
     32 H           0.1615    0.9305   -4.0855 H       1  UNL11       0.0618
     33 H           0.0733    1.4220   -1.7058 H       1  UNL11       0.0624
     34 H           1.7661   -0.3545    0.4214 H       1  UNL11       0.1551
     35 H          -0.8362    1.0251    2.7220 H       1  UNL11       0.0647
     36 H          -2.1798   -2.7409    3.9987 H       1  UNL11       0.1375
     37 H          -0.7623   -3.7745    2.4492 H       1  UNL11       0.4469
@<TRIPOS>BOND
     1     1     2    2
     2     2     3    1
     3     2    15   am
     4     3     4    1
     5     3    27    1
     6     3    28    1
     7     4     5    2
     8     5     6    1
     9     6     7   am
    10     6    29    1
    11     7     8    2
    12     7     9    1
    13     9    10   ar
    14    10    11   ar
    15    10    30    1
    16    11    12   ar
    17    11    31    1
    18    12    13   ar
    19    12    32    1
    20    13    14   ar
    21    13    33    1
    22    14     4    1
    23    14     9   ar
    24    15    16    1
    25    15    34    1
    26    16    17    2
    27    17    18    1
    28    17    35    1
    29    18    19    1
    30    18    23    2
    31    19    20    1
    32    19    21    1
    33    19    22    1
    34    23    24    1
    35    23    36    1
    36    24    25   am
    37    24    37    1
    38    25    26    2
    39    25    16    1
@<TRIPOS>MOLECULE
*****
 37 39 0 0 0
SMALL
GASTEIGER

@<TRIPOS>ATOM
      1 O           1.3809    1.9859   -0.2309 O.2     1  UNL11      -0.2751
      2 C           0.4102    1.3002    0.1630 C.2     1  UNL11       0.2235
      3 C          -0.8729    1.8950    0.6014 C.3     1  UNL11       0.0728
      4 C          -2.0682    1.5123   -0.1348 C.2     1  UNL11       0.1237
      5 N          -2.8190    0.4514    0.2270 N.2     1  UNL11      -0.0071
      6 N          -3.9381    0.0935   -0.3682 N.am    1  UNL11      -0.0356
      7 C          -4.4250    0.7785   -1.4090 C.2     1  UNL11       0.4383
      8 O          -5.5021    0.3963   -1.9372 O.2     1  UNL11      -0.2116
      9 C          -3.7039    1.8753   -1.8320 C.ar    1  UNL11       0.1004
     10 C          -4.1569    2.6054   -2.9371 C.ar    1  UNL11      -0.0441
     11 C          -3.4301    3.6930   -3.3947 C.ar    1  UNL11      -0.0608
     12 C          -2.2705    4.0732   -2.7887 C.ar    1  UNL11      -0.0611
     13 C          -1.8364    3.3218   -1.6782 C.ar    1  UNL11      -0.0518
     14 C          -2.5244    2.2466   -1.1971 C.ar    1  UNL11       0.0194
     15 N           0.5680   -0.0987    0.1815 N.am    1  UNL11      -0.2772
     16 C          -0.4532   -1.0114    0.5908 C.2     1  UNL11       0.1498
     17 C          -0.2666   -2.3680    0.6119 C.2     1  UNL11      -0.0131
     18 C          -1.2131   -3.2332    1.1519 C.2     1  UNL11       0.1195
     19 C          -0.9558   -4.7209    1.2276 C.3     1  UNL11       0.4229
     20 F           0.3436   -4.9125    0.6645 F       1  UNL11      -0.1657
     21 F          -0.9463   -5.1009    2.5306 F       1  UNL11      -0.1657
     22 F          -1.8663   -5.3432    0.4245 F       1  UNL11      -0.1657
     23 C          -2.3577   -2.6964    1.6697 C.2     1  UNL11       0.1777
     24 N          -2.5493   -1.3446    1.6501 N.am    1  UNL11      -0.1491
     25 C          -1.6280   -0.5075    1.1259 C.2     1  UNL11       0.4277
     26 O          -1.8337    0.7601    1.1193 O.2     1  UNL11      -0.2127
     27 H          -0.7704    3.0330    0.4882 H       1  UNL11       0.0425
     28 H          -1.0226    1.7765    1.7312 H       1  UNL11       0.0425
     29 H          -4.4592   -0.7669    0.0041 H       1  UNL11       0.4829
     30 H          -5.0867    2.2867   -3.4007 H       1  UNL11       0.0627
     31 H          -3.8302    4.2270   -4.2777 H       1  UNL11       0.0618
     32 H          -1.6987    4.9343   -3.1466 H       1  UNL11       0.0618
     33 H          -0.9125    3.6285   -1.2522 H       1  UNL11       0.0624
     34 H           1.4949   -0.5400   -0.1207 H       1  UNL11       0.1551
     35 H           0.6167   -2.8713    0.2315 H       1  UNL11       0.0647
     36 H          -3.1136   -3.3495    2.0954 H       1  UNL11       0.1375
     37 H          -3.4271   -1.0302    2.0682 H       1  UNL11       0.4469
@<TRIPOS>BOND
     1     1     2    2
     2     2     3    1
     3     2    15   am
     4     3     4    1
     5     3    27    1
     6     3    28    1
     7     4     5    2
     8     5     6    1
     9     6     7   am
    10     6    29    1
    11     7     8    2
    12     7     9    1
    13     9    10   ar
    14    10    11   ar
    15    10    30    1
    16    11    12   ar
    17    11    31    1
    18    12    13   ar
    19    12    32    1
    20    13    14   ar
    21    13    33    1
    22    14     4    1
    23    14     9   ar
    24    15    16    1
    25    15    34    1
    26    16    17    2
    27    17    18    1
    28    17    35    1
    29    18    19    1
    30    18    23    2
    31    19    20    1
    32    19    21    1
    33    19    22    1
    34    23    24    1
    35    23    36    1
    36    24    25   am
    37    24    37    1
    38    25    26    2
    39    25    16    1
@<TRIPOS>MOLECULE
*****
 37 39 0 0 0
SMALL
GASTEIGER

@<TRIPOS>ATOM
      1 O           0.4916    0.1706   -0.3708 O.2     1  UNL11      -0.2751
      2 C           0.4102    1.3002    0.1630 C.2     1  UNL11       0.2235
      3 C          -0.8729    1.8950    0.6014 C.3     1  UNL11       0.0728
      4 C          -2.0682    1.5123   -0.1348 C.2     1  UNL11       0.1237
      5 N          -3.2814    1.4610    0.4530 N.2     1  UNL11      -0.0071
      6 N          -4.4024    1.1754   -0.1767 N.am    1  UNL11      -0.0356
      7 C          -4.4178    0.9058   -1.4869 C.2     1  UNL11       0.4383
      8 O          -5.5182    0.6449   -2.0404 O.2     1  UNL11      -0.2116
      9 C          -3.2087    0.9393   -2.1494 C.ar    1  UNL11       0.1004
     10 C          -3.1697    0.6335   -3.5149 C.ar    1  UNL11      -0.0441
     11 C          -1.9600    0.6333   -4.1911 C.ar    1  UNL11      -0.0608
     12 C          -0.7931    0.9259   -3.5514 C.ar    1  UNL11      -0.0611
     13 C          -0.8597    1.2306   -2.1769 C.ar    1  UNL11      -0.0518
     14 C          -2.0306    1.2429   -1.4771 C.ar    1  UNL11       0.0194
     15 N           1.6062    2.0203    0.3452 N.am    1  UNL11      -0.2772
     16 C           1.6747    3.3129    0.9517 C.2     1  UNL11       0.1498
     17 C           1.5783    4.4734    0.2310 C.2     1  UNL11      -0.0131
     18 C           1.4966    5.7183    0.8470 C.2     1  UNL11       0.1195
     19 C           1.3208    6.9804    0.0338 C.3     1  UNL11       0.4229
     20 F           1.2744    6.5527   -1.3290 F       1  UNL11      -0.1657
     21 F           0.1397    7.5594    0.3683 F       1  UNL11      -0.1657
     22 F           2.4373    7.7456    0.2045 F       1  UNL11      -0.1657
     23 C           1.5172    5.7658    2.2122 C.2     1  UNL11       0.1777
     24 N           1.6144    4.6118    2.9357 N.am    1  UNL11      -0.1491
     25 C           1.6927    3.4049    2.3344 C.2     1  UNL11       0.4277
     26 O           1.7843    2.3349    3.0386 O.2     1  UNL11      -0.2127
     27 H          -0.7704    3.0330    0.4882 H       1  UNL11       0.0425
     28 H          -1.0226    1.7765    1.7312 H       1  UNL11       0.0425
     29 H          -5.3144    1.1658    0.3879 H       1  UNL11       0.4829
     30 H          -4.1133    0.4085   -4.0047 H       1  UNL11       0.0627
     31 H          -1.9876    0.3747   -5.2668 H       1  UNL11       0.0618
     32 H           0.1615    0.9305   -4.0855 H       1  UNL11       0.0618
     33 H           0.0733    1.4220   -1.7058 H       1  UNL11       0.0624
     34 H           2.5384    1.6067    0.0208 H       1  UNL11       0.1551
     35 H           1.5453    4.5209   -0.8530 H       1  UNL11       0.0647
     36 H           1.4568    6.7247    2.7182 H       1  UNL11       0.1375
     37 H           1.6114    4.7401    3.9494 H       1  UNL11       0.4469
@<TRIPOS>BOND
     1     1     2    2
     2     2     3    1
     3     2    15   am
     4     3     4    1
     5     3    27    1
     6     3    28    1
     7     4     5    2
     8     5     6    1
     9     6     7   am
    10     6    29    1
    11     7     8    2
    12     7     9    1
    13     9    10   ar
    14    10    11   ar
    15    10    30    1
    16    11    12   ar
    17    11    31    1
    18    12    13   ar
    19    12    32    1
    20    13    14   ar
    21    13    33    1
    22    14     4    1
    23    14     9   ar
    24    15    16    1
    25    15    34    1
    26    16    17    2
    27    17    18    1
    28    17    35    1
    29    18    19    1
    30    18    23    2
    31    19    20    1
    32    19    21    1
    33    19    22    1
    34    23    24    1
    35    23    36    1
    36    24    25   am
    37    24    37    1
    38    25    26    2
    39    25    16    1
@<TRIPOS>MOLECULE
*****
 37 39 0 0 0
SMALL
GASTEIGER

@<TRIPOS>ATOM
      1 O           0.4916    0.1706   -0.3708 O.2     1  UNL11      -0.2751
      2 C           0.4102    1.3002    0.1630 C.2     1  UNL11       0.2235
      3 C          -0.8729    1.8950    0.6014 C.3     1  UNL11       0.0728
      4 C          -2.0682    1.5123   -0.1348 C.2     1  UNL11       0.1237
      5 N          -2.4848    0.2308   -0.2010 N.2     1  UNL11      -0.0071
      6 N          -3.5866   -0.1637   -0.8052 N.am    1  UNL11      -0.0356
      7 C          -4.3969    0.7070   -1.4175 C.2     1  UNL11       0.4383
      8 O          -5.4407    0.2768   -1.9747 O.2     1  UNL11      -0.2116
      9 C          -4.0281    2.0355   -1.3890 C.ar    1  UNL11       0.1004
     10 C          -4.8277    2.9803   -2.0429 C.ar    1  UNL11      -0.0441
     11 C          -4.4578    4.3158   -2.0500 C.ar    1  UNL11      -0.0608
     12 C          -3.3201    4.7370   -1.4297 C.ar    1  UNL11      -0.0611
     13 C          -2.5328    3.7661   -0.7786 C.ar    1  UNL11      -0.0518
     14 C          -2.8640    2.4432   -0.7479 C.ar    1  UNL11       0.0194
     15 N           1.6062    2.0203    0.3452 N.am    1  UNL11      -0.2772
     16 C           1.6747    3.3129    0.9517 C.2     1  UNL11       0.1498
     17 C           1.5783    4.4734    0.2310 C.2     1  UNL11      -0.0131
     18 C           1.4966    5.7183    0.8470 C.2     1  UNL11       0.1195
     19 C           1.3208    6.9804    0.0338 C.3     1  UNL11       0.4229
     20 F           1.2744    6.5527   -1.3290 F       1  UNL11      -0.1657
     21 F           0.1397    7.5594    0.3683 F       1  UNL11      -0.1657
     22 F           2.4373    7.7456    0.2045 F       1  UNL11      -0.1657
     23 C           1.5172    5.7658    2.2122 C.2     1  UNL11       0.1777
     24 N           1.6144    4.6118    2.9357 N.am    1  UNL11      -0.1491
     25 C           1.6927    3.4049    2.3344 C.2     1  UNL11       0.4277
     26 O           1.7843    2.3349    3.0386 O.2     1  UNL11      -0.2127
     27 H          -0.7704    3.0330    0.4882 H       1  UNL11       0.0425
     28 H          -1.0226    1.7765    1.7312 H       1  UNL11       0.0425
     29 H          -3.8258   -1.2093   -0.7943 H       1  UNL11       0.4829
     30 H          -5.7327    2.6217   -2.5259 H       1  UNL11       0.0627
     31 H          -5.1223    5.0167   -2.5904 H       1  UNL11       0.0618
     32 H          -3.0298    5.7916   -1.4311 H       1  UNL11       0.0618
     33 H          -1.6377    4.1272   -0.3341 H       1  UNL11       0.0624
     34 H           2.5384    1.6067    0.0208 H       1  UNL11       0.1551
     35 H           1.5453    4.5209   -0.8530 H       1  UNL11       0.0647
     36 H           1.4568    6.7247    2.7182 H       1  UNL11       0.1375
     37 H           1.6114    4.7401    3.9494 H       1  UNL11       0.4469
@<TRIPOS>BOND
     1     1     2    2
     2     2     3    1
     3     2    15   am
     4     3     4    1
     5     3    27    1
     6     3    28    1
     7     4     5    2
     8     5     6    1
     9     6     7   am
    10     6    29    1
    11     7     8    2
    12     7     9    1
    13     9    10   ar
    14    10    11   ar
    15    10    30    1
    16    11    12   ar
    17    11    31    1
    18    12    13   ar
    19    12    32    1
    20    13    14   ar
    21    13    33    1
    22    14     4    1
    23    14     9   ar
    24    15    16    1
    25    15    34    1
    26    16    17    2
    27    17    18    1
    28    17    35    1
    29    18    19    1
    30    18    23    2
    31    19    20    1
    32    19    21    1
    33    19    22    1
    34    23    24    1
    35    23    36    1
    36    24    25   am
    37    24    37    1
    38    25    26    2
    39    25    16    1
@<TRIPOS>MOLECULE
*****
 37 39 0 0 0
SMALL
GASTEIGER

@<TRIPOS>ATOM
      1 O           1.3604    1.0741    0.9463 O.2     1  UNL11      -0.2751
      2 C           0.4102    1.3002    0.1630 C.2     1  UNL11       0.2235
      3 C          -0.8729    1.8950    0.6014 C.3     1  UNL11       0.0728
      4 C          -2.0682    1.5123   -0.1348 C.2     1  UNL11       0.1237
      5 N          -2.4962    2.2066   -1.2095 N.2     1  UNL11      -0.0071
      6 N          -3.5373    1.8739   -1.9445 N.am    1  UNL11      -0.0356
      7 C          -4.2691    0.7889   -1.6676 C.2     1  UNL11       0.4383
      8 O          -5.2506    0.5135   -2.4065 O.2     1  UNL11      -0.2116
      9 C          -3.8863    0.0340   -0.5787 C.ar    1  UNL11       0.1004
     10 C          -4.6398   -1.0932   -0.2305 C.ar    1  UNL11      -0.0441
     11 C          -4.2878   -1.8472    0.8777 C.ar    1  UNL11      -0.0608
     12 C          -3.2139   -1.5134    1.6470 C.ar    1  UNL11      -0.0611
     13 C          -2.4719   -0.3744    1.2750 C.ar    1  UNL11      -0.0518
     14 C          -2.7854    0.3919    0.1908 C.ar    1  UNL11       0.0194
     15 N           0.5921    0.9659   -1.1925 N.am    1  UNL11      -0.2772
     16 C          -0.3939    1.1777   -2.2057 C.2     1  UNL11       0.1498
     17 C          -0.4670    2.3343   -2.9353 C.2     1  UNL11      -0.0131
     18 C          -1.3326    2.4697   -4.0162 C.2     1  UNL11       0.1195
     19 C          -1.3470    3.7305   -4.8501 C.3     1  UNL11       0.4229
     20 F          -0.3586    4.5836   -4.2690 F       1  UNL11      -0.1657
     21 F          -0.9887    3.4217   -6.1222 F       1  UNL11      -0.1657
     22 F          -2.5671    4.3204   -4.6934 F       1  UNL11      -0.1657
     23 C          -2.1276    1.4081   -4.3438 C.2     1  UNL11       0.1777
     24 N          -2.0595    0.2529   -3.6190 N.am    1  UNL11      -0.1491
     25 C          -1.2174    0.1246   -2.5707 C.2     1  UNL11       0.4277
     26 O          -1.1739   -0.9729   -1.9052 O.2     1  UNL11      -0.2127
     27 H          -0.7704    3.0330    0.4882 H       1  UNL11       0.0425
     28 H          -1.0226    1.7765    1.7312 H       1  UNL11       0.0425
     29 H          -3.7883    2.4962   -2.7814 H       1  UNL11       0.4829
     30 H          -5.4884   -1.3427   -0.8618 H       1  UNL11       0.0627
     31 H          -4.9247   -2.7216    1.1114 H       1  UNL11       0.0618
     32 H          -2.9327   -2.1107    2.5192 H       1  UNL11       0.0618
     33 H          -1.6617   -0.1275    1.9166 H       1  UNL11       0.0624
     34 H           1.5100    0.5235   -1.5194 H       1  UNL11       0.1551
     35 H           0.1360    3.2171   -2.7470 H       1  UNL11       0.0647
     36 H          -2.8135    1.4879   -5.1818 H       1  UNL11       0.1375
     37 H          -2.6805   -0.4921   -3.9407 H       1  UNL11       0.4469
@<TRIPOS>BOND
     1     1     2    2
     2     2     3    1
     3     2    15   am
     4     3     4    1
     5     3    27    1
     6     3    28    1
     7     4     5    2
     8     5     6    1
     9     6     7   am
    10     6    29    1
    11     7     8    2
    12     7     9    1
    13     9    10   ar
    14    10    11   ar
    15    10    30    1
    16    11    12   ar
    17    11    31    1
    18    12    13   ar
    19    12    32    1
    20    13    14   ar
    21    13    33    1
    22    14     4    1
    23    14     9   ar
    24    15    16    1
    25    15    34    1
    26    16    17    2
    27    17    18    1
    28    17    35    1
    29    18    19    1
    30    18    23    2
    31    19    20    1
    32    19    21    1
    33    19    22    1
    34    23    24    1
    35    23    36    1
    36    24    25   am
    37    24    37    1
    38    25    26    2
    39    25    16    1
@<TRIPOS>MOLECULE
*****
 37 39 0 0 0
SMALL
GASTEIGER

@<TRIPOS>ATOM
      1 O           1.1247    0.5929    0.9092 O.2     1  UNL11      -0.2751
      2 C           0.4102    1.3002    0.1630 C.2     1  UNL11       0.2235
      3 C          -0.8729    1.8950    0.6014 C.3     1  UNL11       0.0728
      4 C          -2.0682    1.5123   -0.1348 C.2     1  UNL11       0.1237
      5 N          -2.4848    0.2308   -0.2010 N.2     1  UNL11      -0.0071
      6 N          -3.5866   -0.1637   -0.8052 N.am    1  UNL11      -0.0356
      7 C          -4.3969    0.7070   -1.4175 C.2     1  UNL11       0.4383
      8 O          -5.4407    0.2768   -1.9747 O.2     1  UNL11      -0.2116
      9 C          -4.0281    2.0355   -1.3890 C.ar    1  UNL11       0.1004
     10 C          -4.8277    2.9803   -2.0429 C.ar    1  UNL11      -0.0441
     11 C          -4.4578    4.3158   -2.0500 C.ar    1  UNL11      -0.0608
     12 C          -3.3201    4.7370   -1.4297 C.ar    1  UNL11      -0.0611
     13 C          -2.5328    3.7661   -0.7786 C.ar    1  UNL11      -0.0518
     14 C          -2.8640    2.4432   -0.7479 C.ar    1  UNL11       0.0194
     15 N           0.8673    1.5276   -1.1491 N.am    1  UNL11      -0.2772
     16 C           2.0895    1.0007   -1.6706 C.2     1  UNL11       0.1498
     17 C           3.2792    1.6742   -1.5883 C.2     1  UNL11      -0.0131
     18 C           4.4842    1.0890   -1.9642 C.2     1  UNL11       0.1195
     19 C           5.7936    1.8263   -1.7998 C.3     1  UNL11       0.4229
     20 F           5.4498    3.0928   -1.2338 F       1  UNL11      -0.1657
     21 F           6.5801    1.1400   -0.9323 F       1  UNL11      -0.1657
     22 F           6.3113    2.0398   -3.0438 F       1  UNL11      -0.1657
     23 C           4.4611   -0.1954   -2.4293 C.2     1  UNL11       0.1777
     24 N           3.2776   -0.8710   -2.5145 N.am    1  UNL11      -0.1491
     25 C           2.1096   -0.3002   -2.1479 C.2     1  UNL11       0.4277
     26 O           1.0103   -0.9578   -2.2389 O.2     1  UNL11      -0.2127
     27 H          -0.7704    3.0330    0.4882 H       1  UNL11       0.0425
     28 H          -1.0226    1.7765    1.7312 H       1  UNL11       0.0425
     29 H          -3.8258   -1.2093   -0.7943 H       1  UNL11       0.4829
     30 H          -5.7327    2.6217   -2.5259 H       1  UNL11       0.0627
     31 H          -5.1223    5.0167   -2.5904 H       1  UNL11       0.0618
     32 H          -3.0298    5.7916   -1.4311 H       1  UNL11       0.0618
     33 H          -1.6377    4.1272   -0.3341 H       1  UNL11       0.0624
     34 H           0.2919    2.1272   -1.8233 H       1  UNL11       0.1551
     35 H           3.3843    2.6903   -1.2211 H       1  UNL11       0.0647
     36 H           5.3873   -0.6751   -2.7313 H       1  UNL11       0.1375
     37 H           3.3550   -1.8289   -2.8619 H       1  UNL11       0.4469
@<TRIPOS>BOND
     1     1     2    2
     2     2     3    1
     3     2    15   am
     4     3     4    1
     5     3    27    1
     6     3    28    1
     7     4     5    2
     8     5     6    1
     9     6     7   am
    10     6    29    1
    11     7     8    2
    12     7     9    1
    13     9    10   ar
    14    10    11   ar
    15    10    30    1
    16    11    12   ar
    17    11    31    1
    18    12    13   ar
    19    12    32    1
    20    13    14   ar
    21    13    33    1
    22    14     4    1
    23    14     9   ar
    24    15    16    1
    25    15    34    1
    26    16    17    2
    27    17    18    1
    28    17    35    1
    29    18    19    1
    30    18    23    2
    31    19    20    1
    32    19    21    1
    33    19    22    1
    34    23    24    1
    35    23    36    1
    36    24    25   am
    37    24    37    1
    38    25    26    2
    39    25    16    1
@<TRIPOS>MOLECULE
*****
 37 39 0 0 0
SMALL
GASTEIGER

@<TRIPOS>ATOM
      1 O           1.1247    0.5929    0.9092 O.2     1  UNL11      -0.2751
      2 C           0.4102    1.3002    0.1630 C.2     1  UNL11       0.2235
      3 C          -0.8729    1.8950    0.6014 C.3     1  UNL11       0.0728
      4 C          -2.0682    1.5123   -0.1348 C.2     1  UNL11       0.1237
      5 N          -2.0238    1.1752   -1.4404 N.2     1  UNL11      -0.0071
      6 N          -3.0629    0.7686   -2.1402 N.am    1  UNL11      -0.0356
      7 C          -4.2764    0.6588   -1.5881 C.2     1  UNL11       0.4383
      8 O          -5.2341    0.2595   -2.3011 O.2     1  UNL11      -0.2116
      9 C          -4.3922    0.9902   -0.2544 C.ar    1  UNL11       0.1004
     10 C          -5.6483    0.9213    0.3597 C.ar    1  UNL11      -0.0441
     11 C          -5.7896    1.2785    1.6912 C.ar    1  UNL11      -0.0608
     12 C          -4.7231    1.7017    2.4261 C.ar    1  UNL11      -0.0611
     13 C          -3.4697    1.7619    1.7844 C.ar    1  UNL11      -0.0518
     14 C          -3.2899    1.4173    0.4769 C.ar    1  UNL11       0.0194
     15 N           0.8673    1.5276   -1.1491 N.am    1  UNL11      -0.2772
     16 C           2.0895    1.0007   -1.6706 C.2     1  UNL11       0.1498
     17 C           3.2792    1.6742   -1.5883 C.2     1  UNL11      -0.0131
     18 C           4.4842    1.0890   -1.9642 C.2     1  UNL11       0.1195
     19 C           5.7936    1.8263   -1.7998 C.3     1  UNL11       0.4229
     20 F           5.4498    3.0928   -1.2338 F       1  UNL11      -0.1657
     21 F           6.5801    1.1400   -0.9323 F       1  UNL11      -0.1657
     22 F           6.3113    2.0398   -3.0438 F       1  UNL11      -0.1657
     23 C           4.4611   -0.1954   -2.4293 C.2     1  UNL11       0.1777
     24 N           3.2776   -0.8710   -2.5145 N.am    1  UNL11      -0.1491
     25 C           2.1096   -0.3002   -2.1479 C.2     1  UNL11       0.4277
     26 O           1.0103   -0.9578   -2.2389 O.2     1  UNL11      -0.2127
     27 H          -0.7704    3.0330    0.4882 H       1  UNL11       0.0425
     28 H          -1.0226    1.7765    1.7312 H       1  UNL11       0.0425
     29 H          -2.9147    0.5217   -3.1734 H       1  UNL11       0.4829
     30 H          -6.4828    0.5760   -0.2447 H       1  UNL11       0.0627
     31 H          -6.8071    1.2139    2.1218 H       1  UNL11       0.0618
     32 H          -4.8330    1.9795    3.4784 H       1  UNL11       0.0618
     33 H          -2.6688    2.1266    2.3800 H       1  UNL11       0.0624
     34 H           0.2919    2.1272   -1.8233 H       1  UNL11       0.1551
     35 H           3.3843    2.6903   -1.2211 H       1  UNL11       0.0647
     36 H           5.3873   -0.6751   -2.7313 H       1  UNL11       0.1375
     37 H           3.3550   -1.8289   -2.8619 H       1  UNL11       0.4469
@<TRIPOS>BOND
     1     1     2    2
     2     2     3    1
     3     2    15   am
     4     3     4    1
     5     3    27    1
     6     3    28    1
     7     4     5    2
     8     5     6    1
     9     6     7   am
    10     6    29    1
    11     7     8    2
    12     7     9    1
    13     9    10   ar
    14    10    11   ar
    15    10    30    1
    16    11    12   ar
    17    11    31    1
    18    12    13   ar
    19    12    32    1
    20    13    14   ar
    21    13    33    1
    22    14     4    1
    23    14     9   ar
    24    15    16    1
    25    15    34    1
    26    16    17    2
    27    17    18    1
    28    17    35    1
    29    18    19    1
    30    18    23    2
    31    19    20    1
    32    19    21    1
    33    19    22    1
    34    23    24    1
    35    23    36    1
    36    24    25   am
    37    24    37    1
    38    25    26    2
    39    25    16    1
@<TRIPOS>MOLECULE
*****
 37 39 0 0 0
SMALL
GASTEIGER

@<TRIPOS>ATOM
      1 O           0.6177    0.0657    0.1407 O.2     1  UNL11      -0.2751
      2 C           0.4102    1.3002    0.1630 C.2     1  UNL11       0.2235
      3 C          -0.8729    1.8950    0.6014 C.3     1  UNL11       0.0728
      4 C          -2.0682    1.5123   -0.1348 C.2     1  UNL11       0.1237
      5 N          -2.0208    0.6531   -1.1739 N.2     1  UNL11      -0.0071
      6 N          -3.0759    0.2302   -1.8392 N.am    1  UNL11      -0.0356
      7 C          -4.3102    0.6371   -1.5220 C.2     1  UNL11       0.4383
      8 O          -5.2844    0.1969   -2.1870 O.2     1  UNL11      -0.2116
      9 C          -4.4297    1.5191   -0.4685 C.ar    1  UNL11       0.1004
     10 C          -5.6979    1.9976   -0.1192 C.ar    1  UNL11      -0.0441
     11 C          -5.8345    2.9069    0.9176 C.ar    1  UNL11      -0.0608
     12 C          -4.7511    3.3532    1.6131 C.ar    1  UNL11      -0.0611
     13 C          -3.4858    2.8559    1.2418 C.ar    1  UNL11      -0.0518
     14 C          -3.3107    1.9593    0.2289 C.ar    1  UNL11       0.0194
     15 N           1.4590    2.1428   -0.2518 N.am    1  UNL11      -0.2772
     16 C           1.3773    3.5699   -0.2676 C.2     1  UNL11       0.1498
     17 C           0.4401    4.2483   -1.0005 C.2     1  UNL11      -0.0131
     18 C           0.2756    5.6255   -0.8914 C.2     1  UNL11       0.1195
     19 C          -0.8113    6.3439   -1.6581 C.3     1  UNL11       0.4229
     20 F          -1.4914    5.3279   -2.3981 F       1  UNL11      -0.1657
     21 F          -1.6701    6.9143   -0.7754 F       1  UNL11      -0.1657
     22 F          -0.2085    7.1879   -2.5444 F       1  UNL11      -0.1657
     23 C           1.0831    6.3057   -0.0244 C.2     1  UNL11       0.1777
     24 N           2.0199    5.6344    0.7079 N.am    1  UNL11      -0.1491
     25 C           2.1764    4.2971    0.6001 C.2     1  UNL11       0.4277
     26 O           3.0658    3.6904    1.3000 O.2     1  UNL11      -0.2127
     27 H          -0.7704    3.0330    0.4882 H       1  UNL11       0.0425
     28 H          -1.0226    1.7765    1.7312 H       1  UNL11       0.0425
     29 H          -2.9246   -0.4574   -2.6484 H       1  UNL11       0.4829
     30 H          -6.5473    1.6235   -0.6844 H       1  UNL11       0.0627
     31 H          -6.8593    3.2585    1.1437 H       1  UNL11       0.0618
     32 H          -4.8587    4.0675    2.4346 H       1  UNL11       0.0618
     33 H          -2.6625    3.2508    1.7854 H       1  UNL11       0.0624
     34 H           2.3867    1.7246   -0.5832 H       1  UNL11       0.1551
     35 H          -0.2452    3.7819   -1.7014 H       1  UNL11       0.0647
     36 H           0.9769    7.3815    0.0785 H       1  UNL11       0.1375
     37 H           2.5712    6.2199    1.3383 H       1  UNL11       0.4469
@<TRIPOS>BOND
     1     1     2    2
     2     2     3    1
     3     2    15   am
     4     3     4    1
     5     3    27    1
     6     3    28    1
     7     4     5    2
     8     5     6    1
     9     6     7   am
    10     6    29    1
    11     7     8    2
    12     7     9    1
    13     9    10   ar
    14    10    11   ar
    15    10    30    1
    16    11    12   ar
    17    11    31    1
    18    12    13   ar
    19    12    32    1
    20    13    14   ar
    21    13    33    1
    22    14     4    1
    23    14     9   ar
    24    15    16    1
    25    15    34    1
    26    16    17    2
    27    17    18    1
    28    17    35    1
    29    18    19    1
    30    18    23    2
    31    19    20    1
    32    19    21    1
    33    19    22    1
    34    23    24    1
    35    23    36    1
    36    24    25   am
    37    24    37    1
    38    25    26    2
    39    25    16    1
