@<TRIPOS>MOLECULE
*****
 47 50 0 0 0
SMALL
GASTEIGER

@<TRIPOS>ATOM
      1 O           1.8573   -0.1762   -1.8378 O.2     1  UNL11      -0.2683
      2 C           1.2926    0.0449   -0.7572 C.2     1  UNL11       0.2690
      3 N           1.7810    1.1267    0.0828 N.am    1  UNL11      -0.3058
      4 C           1.1179    1.3550    1.3418 C.3     1  UNL11       0.0372
      5 C          -0.3134    1.6603    1.2143 C.ar    1  UNL11      -0.0301
      6 C          -1.2622    0.6638    1.2350 C.ar    1  UNL11      -0.0544
      7 C          -2.6177    0.9707    1.1127 C.ar    1  UNL11      -0.0261
      8 C          -2.9793    2.3036    0.9703 C.ar    1  UNL11       0.1234
      9 F          -4.3095    2.6074    0.8503 F       1  UNL11      -0.2055
     10 C          -2.0561    3.3179    0.9462 C.ar    1  UNL11      -0.0261
     11 C          -0.7149    2.9551    1.0724 C.ar    1  UNL11      -0.0544
     12 C           0.1706   -0.7079   -0.2703 C.2     1  UNL11       0.1989
     13 N          -0.7446   -0.0749    0.5291 N.2     1  UNL11       0.0044
     14 N          -1.8101   -0.6478    1.0388 N.am    1  UNL11      -0.0153
     15 C          -2.7230    0.1308    1.8777 C.3     1  UNL11       0.1985
     16 C          -2.3597    0.0715    3.3055 C.ar    1  UNL11       0.0189
     17 C          -2.6172    1.1201    4.1835 C.ar    1  UNL11      -0.0525
     18 C          -2.2656    1.0355    5.5114 C.ar    1  UNL11      -0.0613
     19 C          -1.6471   -0.0846    6.0246 C.ar    1  UNL11      -0.0617
     20 C          -1.3903   -1.1252    5.1576 C.ar    1  UNL11      -0.0613
     21 C          -1.7417   -1.0528    3.8088 C.ar    1  UNL11      -0.0525
     22 C          -2.0048   -1.9396    0.7509 C.2     1  UNL11       0.4405
     23 O          -3.0043   -2.5292    1.2125 O.2     1  UNL11      -0.2116
     24 C          -1.1308   -2.6617   -0.0499 C.ar    1  UNL11       0.1010
     25 C          -1.3265   -3.9837   -0.3420 C.ar    1  UNL11      -0.0441
     26 C          -0.4561   -4.7029   -1.1342 C.ar    1  UNL11      -0.0608
     27 C           0.6603   -4.1070   -1.6690 C.ar    1  UNL11      -0.0611
     28 C           0.8600   -2.7523   -1.3694 C.ar    1  UNL11      -0.0513
     29 C          -0.0103   -2.0338   -0.5778 C.ar    1  UNL11       0.0282
     30 H           2.5829    1.7092   -0.2281 H       1  UNL11       0.1494
     31 H           1.5988    2.2425    1.8333 H       1  UNL11       0.0512
     32 H           1.3345    0.4834    2.0029 H       1  UNL11       0.0512
     33 H          -0.9967   -0.3781    1.3451 H       1  UNL11       0.0622
     34 H          -3.3917    0.2177    1.1243 H       1  UNL11       0.0646
     35 H          -2.3843    4.3300    0.8342 H       1  UNL11       0.0646
     36 H          -0.0015    3.7741    1.0508 H       1  UNL11       0.0622
     37 H          -3.7699   -0.2485    1.7838 H       1  UNL11       0.1103
     38 H          -2.7465    1.1915    1.5707 H       1  UNL11       0.1103
     39 H          -3.0989    1.9816    3.7635 H       1  UNL11       0.0622
     40 H          -2.4707    1.8542    6.1799 H       1  UNL11       0.0618
     41 H          -1.3782   -0.1223    7.0896 H       1  UNL11       0.0618
     42 H          -0.9090   -2.0213    5.5108 H       1  UNL11       0.0618
     43 H          -1.5173   -1.8998    3.1617 H       1  UNL11       0.0622
     44 H          -2.2149   -4.4676    0.0804 H       1  UNL11       0.0627
     45 H          -0.6081   -5.7572   -1.3700 H       1  UNL11       0.0618
     46 H           1.3791   -4.6089   -2.2941 H       1  UNL11       0.0618
     47 H           1.7200   -2.2934   -1.7759 H       1  UNL11       0.0624
@<TRIPOS>BOND
     1     1     2    2
     2     2     3   am
     3     2    12    1
     4     3     4    1
     5     3    30    1
     6     4     5    1
     7     4    31    1
     8     4    32    1
     9     5     6   ar
    10     6     7   ar
    11     6    33    1
    12     7     8   ar
    13     7    34    1
    14     8     9    1
    15     8    10   ar
    16    10    11   ar
    17    10    35    1
    18    11     5   ar
    19    11    36    1
    20    12    13    2
    21    13    14    1
    22    14    15    1
    23    14    22   am
    24    15    16    1
    25    15    37    1
    26    15    38    1
    27    16    17   ar
    28    17    18   ar
    29    17    39    1
    30    18    19   ar
    31    18    40    1
    32    19    20   ar
    33    19    41    1
    34    20    21   ar
    35    20    42    1
    36    21    16   ar
    37    21    43    1
    38    22    23    2
    39    22    24    1
    40    24    25   ar
    41    25    26   ar
    42    25    44    1
    43    26    27   ar
    44    26    45    1
    45    27    28   ar
    46    27    46    1
    47    28    29   ar
    48    28    47    1
    49    29    12    1
    50    29    24   ar
@<TRIPOS>MOLECULE
*****
 47 50 0 0 0
SMALL
GASTEIGER

@<TRIPOS>ATOM
      1 O           1.2653    1.2646   -0.9745 O.2     1  UNL11      -0.2683
      2 C           1.2926    0.0449   -0.7572 C.2     1  UNL11       0.2690
      3 N           2.5252   -0.6858   -1.0046 N.am    1  UNL11      -0.3058
      4 C           2.5283   -2.1059   -0.7590 C.3     1  UNL11       0.0372
      5 C           2.2036   -2.4714    0.6264 C.ar    1  UNL11      -0.0301
      6 C           1.5711   -3.6566    0.9241 C.ar    1  UNL11      -0.0544
      7 C           1.2697   -3.9889    2.2452 C.ar    1  UNL11      -0.0261
      8 C           1.6247   -3.0934    3.2452 C.ar    1  UNL11       0.1234
      9 F           1.3301   -3.4174    4.5430 F       1  UNL11      -0.2055
     10 C           2.2557   -1.9049    2.9785 C.ar    1  UNL11      -0.0261
     11 C           2.5332   -1.6228    1.6407 C.ar    1  UNL11      -0.0544
     12 C           0.1706   -0.7079   -0.2703 C.2     1  UNL11       0.1989
     13 N          -0.7446   -0.0749    0.5291 N.2     1  UNL11       0.0044
     14 N          -1.8101   -0.6478    1.0388 N.am    1  UNL11      -0.0153
     15 C          -2.7230    0.1308    1.8777 C.3     1  UNL11       0.1985
     16 C          -2.3597    0.0715    3.3055 C.ar    1  UNL11       0.0189
     17 C          -3.2242   -0.4308    4.2735 C.ar    1  UNL11      -0.0525
     18 C          -2.8567   -0.4727    5.5992 C.ar    1  UNL11      -0.0613
     19 C          -1.6244   -0.0215    6.0214 C.ar    1  UNL11      -0.0617
     20 C          -0.7656    0.4769    5.0652 C.ar    1  UNL11      -0.0613
     21 C          -1.1252    0.5251    3.7175 C.ar    1  UNL11      -0.0525
     22 C          -2.0048   -1.9396    0.7509 C.2     1  UNL11       0.4405
     23 O          -3.0043   -2.5292    1.2125 O.2     1  UNL11      -0.2116
     24 C          -1.1308   -2.6617   -0.0499 C.ar    1  UNL11       0.1010
     25 C          -1.3265   -3.9837   -0.3420 C.ar    1  UNL11      -0.0441
     26 C          -0.4561   -4.7029   -1.1342 C.ar    1  UNL11      -0.0608
     27 C           0.6603   -4.1070   -1.6690 C.ar    1  UNL11      -0.0611
     28 C           0.8600   -2.7523   -1.3694 C.ar    1  UNL11      -0.0513
     29 C          -0.0103   -2.0338   -0.5778 C.ar    1  UNL11       0.0282
     30 H           3.3696   -0.1866   -1.3465 H       1  UNL11       0.1494
     31 H           3.5616   -2.4932   -0.9655 H       1  UNL11       0.0512
     32 H           1.8645   -2.5833   -1.5173 H       1  UNL11       0.0512
     33 H           1.2884   -4.3638    0.1572 H       1  UNL11       0.0622
     34 H           0.7746   -4.9086    2.5192 H       1  UNL11       0.0646
     35 H           2.5090   -1.2477    3.7838 H       1  UNL11       0.0646
     36 H           3.0331   -0.6768    1.4529 H       1  UNL11       0.0622
     37 H          -3.7699   -0.2485    1.7838 H       1  UNL11       0.1103
     38 H          -2.7465    1.1915    1.5707 H       1  UNL11       0.1103
     39 H          -4.1773   -0.7764    3.9234 H       1  UNL11       0.0622
     40 H          -3.5353   -0.8639    6.3379 H       1  UNL11       0.0618
     41 H          -1.3599   -0.0677    7.0872 H       1  UNL11       0.0618
     42 H           0.2081    0.8413    5.3455 H       1  UNL11       0.0618
     43 H          -0.4137    0.9288    2.9984 H       1  UNL11       0.0622
     44 H          -2.2149   -4.4676    0.0804 H       1  UNL11       0.0627
     45 H          -0.6081   -5.7572   -1.3700 H       1  UNL11       0.0618
     46 H           1.3791   -4.6089   -2.2941 H       1  UNL11       0.0618
     47 H           1.7200   -2.2934   -1.7759 H       1  UNL11       0.0624
@<TRIPOS>BOND
     1     1     2    2
     2     2     3   am
     3     2    12    1
     4     3     4    1
     5     3    30    1
     6     4     5    1
     7     4    31    1
     8     4    32    1
     9     5     6   ar
    10     6     7   ar
    11     6    33    1
    12     7     8   ar
    13     7    34    1
    14     8     9    1
    15     8    10   ar
    16    10    11   ar
    17    10    35    1
    18    11     5   ar
    19    11    36    1
    20    12    13    2
    21    13    14    1
    22    14    15    1
    23    14    22   am
    24    15    16    1
    25    15    37    1
    26    15    38    1
    27    16    17   ar
    28    17    18   ar
    29    17    39    1
    30    18    19   ar
    31    18    40    1
    32    19    20   ar
    33    19    41    1
    34    20    21   ar
    35    20    42    1
    36    21    16   ar
    37    21    43    1
    38    22    23    2
    39    22    24    1
    40    24    25   ar
    41    25    26   ar
    42    25    44    1
    43    26    27   ar
    44    26    45    1
    45    27    28   ar
    46    27    46    1
    47    28    29   ar
    48    28    47    1
    49    29    12    1
    50    29    24   ar
@<TRIPOS>MOLECULE
*****
 47 50 0 0 0
SMALL
GASTEIGER

@<TRIPOS>ATOM
      1 O           1.2653    1.2646   -0.9745 O.2     1  UNL11      -0.2683
      2 C           1.2926    0.0449   -0.7572 C.2     1  UNL11       0.2690
      3 N           2.5252   -0.6858   -1.0046 N.am    1  UNL11      -0.3058
      4 C           2.5283   -2.1059   -0.7590 C.3     1  UNL11       0.0372
      5 C           2.2036   -2.4714    0.6264 C.ar    1  UNL11      -0.0301
      6 C           3.0919   -3.1738    1.4081 C.ar    1  UNL11      -0.0544
      7 C           2.7681   -3.5131    2.7220 C.ar    1  UNL11      -0.0261
      8 C           1.5300   -3.1234    3.2150 C.ar    1  UNL11       0.1234
      9 F           1.2098   -3.4552    4.5048 F       1  UNL11      -0.2055
     10 C           0.6244   -2.4228    2.4594 C.ar    1  UNL11      -0.0261
     11 C           0.9994   -2.1099    1.1526 C.ar    1  UNL11      -0.0544
     12 C           0.1706   -0.7079   -0.2703 C.2     1  UNL11       0.1989
     13 N          -0.7446   -0.0749    0.5291 N.2     1  UNL11       0.0044
     14 N          -1.8101   -0.6478    1.0388 N.am    1  UNL11      -0.0153
     15 C          -2.7230    0.1308    1.8777 C.3     1  UNL11       0.1985
     16 C          -3.3905   -0.6982    2.8982 C.ar    1  UNL11       0.0189
     17 C          -2.6815   -1.3895    3.8760 C.ar    1  UNL11      -0.0525
     18 C          -3.3330   -2.1562    4.8153 C.ar    1  UNL11      -0.0613
     19 C          -4.7067   -2.2710    4.8268 C.ar    1  UNL11      -0.0617
     20 C          -5.4121   -1.5876    3.8595 C.ar    1  UNL11      -0.0613
     21 C          -4.7644   -0.8065    2.9012 C.ar    1  UNL11      -0.0525
     22 C          -2.0048   -1.9396    0.7509 C.2     1  UNL11       0.4405
     23 O          -3.0043   -2.5292    1.2125 O.2     1  UNL11      -0.2116
     24 C          -1.1308   -2.6617   -0.0499 C.ar    1  UNL11       0.1010
     25 C          -1.3265   -3.9837   -0.3420 C.ar    1  UNL11      -0.0441
     26 C          -0.4561   -4.7029   -1.1342 C.ar    1  UNL11      -0.0608
     27 C           0.6603   -4.1070   -1.6690 C.ar    1  UNL11      -0.0611
     28 C           0.8600   -2.7523   -1.3694 C.ar    1  UNL11      -0.0513
     29 C          -0.0103   -2.0338   -0.5778 C.ar    1  UNL11       0.0282
     30 H           3.3696   -0.1866   -1.3465 H       1  UNL11       0.1494
     31 H           3.5616   -2.4932   -0.9655 H       1  UNL11       0.0512
     32 H           1.8645   -2.5833   -1.5173 H       1  UNL11       0.0512
     33 H           4.0591   -3.4842    1.0388 H       1  UNL11       0.0622
     34 H           3.4375   -4.0631    3.3666 H       1  UNL11       0.0646
     35 H          -0.3173   -2.1451    2.8845 H       1  UNL11       0.0646
     36 H           0.2673   -1.5549    0.5728 H       1  UNL11       0.0622
     37 H          -3.5227    0.6066    1.2591 H       1  UNL11       0.1103
     38 H          -2.1950    0.9534    2.3918 H       1  UNL11       0.1103
     39 H          -1.6142   -1.2864    3.8488 H       1  UNL11       0.0622
     40 H          -2.7722   -2.6859    5.5664 H       1  UNL11       0.0618
     41 H          -5.1981   -2.8910    5.5896 H       1  UNL11       0.0618
     42 H          -6.4868   -1.6458    3.8269 H       1  UNL11       0.0618
     43 H          -5.3640   -0.2859    2.1556 H       1  UNL11       0.0622
     44 H          -2.2149   -4.4676    0.0804 H       1  UNL11       0.0627
     45 H          -0.6081   -5.7572   -1.3700 H       1  UNL11       0.0618
     46 H           1.3791   -4.6089   -2.2941 H       1  UNL11       0.0618
     47 H           1.7200   -2.2934   -1.7759 H       1  UNL11       0.0624
@<TRIPOS>BOND
     1     1     2    2
     2     2     3   am
     3     2    12    1
     4     3     4    1
     5     3    30    1
     6     4     5    1
     7     4    31    1
     8     4    32    1
     9     5     6   ar
    10     6     7   ar
    11     6    33    1
    12     7     8   ar
    13     7    34    1
    14     8     9    1
    15     8    10   ar
    16    10    11   ar
    17    10    35    1
    18    11     5   ar
    19    11    36    1
    20    12    13    2
    21    13    14    1
    22    14    15    1
    23    14    22   am
    24    15    16    1
    25    15    37    1
    26    15    38    1
    27    16    17   ar
    28    17    18   ar
    29    17    39    1
    30    18    19   ar
    31    18    40    1
    32    19    20   ar
    33    19    41    1
    34    20    21   ar
    35    20    42    1
    36    21    16   ar
    37    21    43    1
    38    22    23    2
    39    22    24    1
    40    24    25   ar
    41    25    26   ar
    42    25    44    1
    43    26    27   ar
    44    26    45    1
    45    27    28   ar
    46    27    46    1
    47    28    29   ar
    48    28    47    1
    49    29    12    1
    50    29    24   ar
@<TRIPOS>MOLECULE
*****
 47 50 0 0 0
SMALL
GASTEIGER

@<TRIPOS>ATOM
      1 O           2.4042   -0.4474   -0.9969 O.2     1  UNL11      -0.2683
      2 C           1.2926    0.0449   -0.7572 C.2     1  UNL11       0.2690
      3 N           1.0926    1.4686   -0.9749 N.am    1  UNL11      -0.3058
      4 C           2.2082    2.2397   -1.4623 C.3     1  UNL11       0.0372
      5 C           3.4290    1.4510   -1.6768 C.ar    1  UNL11      -0.0301
      6 C           4.3400    1.7928   -2.6498 C.ar    1  UNL11      -0.0544
      7 C           5.4945    1.0331   -2.8406 C.ar    1  UNL11      -0.0261
      8 C           5.6962   -0.0719   -2.0245 C.ar    1  UNL11       0.1234
      9 F           6.8290   -0.8192   -2.2097 F       1  UNL11      -0.2055
     10 C           4.8058   -0.4368   -1.0467 C.ar    1  UNL11      -0.0261
     11 C           3.6685    0.3576   -0.8990 C.ar    1  UNL11      -0.0544
     12 C           0.1706   -0.7079   -0.2703 C.2     1  UNL11       0.1989
     13 N          -0.7446   -0.0749    0.5291 N.2     1  UNL11       0.0044
     14 N          -1.8101   -0.6478    1.0388 N.am    1  UNL11      -0.0153
     15 C          -2.7230    0.1308    1.8777 C.3     1  UNL11       0.1985
     16 C          -3.8522   -0.6763    2.3753 C.ar    1  UNL11       0.0189
     17 C          -5.1766   -0.3623    2.0852 C.ar    1  UNL11      -0.0525
     18 C          -6.2098   -1.1348    2.5649 C.ar    1  UNL11      -0.0613
     19 C          -5.9777   -2.2453    3.3481 C.ar    1  UNL11      -0.0617
     20 C          -4.6670   -2.5591    3.6375 C.ar    1  UNL11      -0.0613
     21 C          -3.6097   -1.7846    3.1576 C.ar    1  UNL11      -0.0525
     22 C          -2.0048   -1.9396    0.7509 C.2     1  UNL11       0.4405
     23 O          -3.0043   -2.5292    1.2125 O.2     1  UNL11      -0.2116
     24 C          -1.1308   -2.6617   -0.0499 C.ar    1  UNL11       0.1010
     25 C          -1.3265   -3.9837   -0.3420 C.ar    1  UNL11      -0.0441
     26 C          -0.4561   -4.7029   -1.1342 C.ar    1  UNL11      -0.0608
     27 C           0.6603   -4.1070   -1.6690 C.ar    1  UNL11      -0.0611
     28 C           0.8600   -2.7523   -1.3694 C.ar    1  UNL11      -0.0513
     29 C          -0.0103   -2.0338   -0.5778 C.ar    1  UNL11       0.0282
     30 H           0.1693    1.9030   -0.7799 H       1  UNL11       0.1494
     31 H           2.4545    3.0207   -0.6943 H       1  UNL11       0.0512
     32 H           1.8676    2.7957   -2.3670 H       1  UNL11       0.0512
     33 H           4.1973    2.6497   -3.2929 H       1  UNL11       0.0622
     34 H           6.2327    1.2687   -3.5928 H       1  UNL11       0.0646
     35 H           5.0057   -1.2972   -0.4431 H       1  UNL11       0.0646
     36 H           2.9776    0.0504   -0.1191 H       1  UNL11       0.0622
     37 H          -3.1528    0.9895    1.3062 H       1  UNL11       0.1103
     38 H          -2.1991    0.5656    2.7474 H       1  UNL11       0.1103
     39 H          -5.3345    0.5053    1.4745 H       1  UNL11       0.0622
     40 H          -7.2300   -0.8805    2.3328 H       1  UNL11       0.0618
     41 H          -6.8237   -2.8422    3.7165 H       1  UNL11       0.0618
     42 H          -4.4345   -3.4169    4.2455 H       1  UNL11       0.0618
     43 H          -2.5905   -2.0711    3.4138 H       1  UNL11       0.0622
     44 H          -2.2149   -4.4676    0.0804 H       1  UNL11       0.0627
     45 H          -0.6081   -5.7572   -1.3700 H       1  UNL11       0.0618
     46 H           1.3791   -4.6089   -2.2941 H       1  UNL11       0.0618
     47 H           1.7200   -2.2934   -1.7759 H       1  UNL11       0.0624
@<TRIPOS>BOND
     1     1     2    2
     2     2     3   am
     3     2    12    1
     4     3     4    1
     5     3    30    1
     6     4     5    1
     7     4    31    1
     8     4    32    1
     9     5     6   ar
    10     6     7   ar
    11     6    33    1
    12     7     8   ar
    13     7    34    1
    14     8     9    1
    15     8    10   ar
    16    10    11   ar
    17    10    35    1
    18    11     5   ar
    19    11    36    1
    20    12    13    2
    21    13    14    1
    22    14    15    1
    23    14    22   am
    24    15    16    1
    25    15    37    1
    26    15    38    1
    27    16    17   ar
    28    17    18   ar
    29    17    39    1
    30    18    19   ar
    31    18    40    1
    32    19    20   ar
    33    19    41    1
    34    20    21   ar
    35    20    42    1
    36    21    16   ar
    37    21    43    1
    38    22    23    2
    39    22    24    1
    40    24    25   ar
    41    25    26   ar
    42    25    44    1
    43    26    27   ar
    44    26    45    1
    45    27    28   ar
    46    27    46    1
    47    28    29   ar
    48    28    47    1
    49    29    12    1
    50    29    24   ar
@<TRIPOS>MOLECULE
*****
 47 50 0 0 0
SMALL
GASTEIGER

@<TRIPOS>ATOM
      1 O           1.8006    0.9990   -0.1514 O.2     1  UNL11      -0.2683
      2 C           1.2926    0.0449   -0.7572 C.2     1  UNL11       0.2690
      3 N           1.8513   -0.3511   -2.0400 N.am    1  UNL11      -0.3058
      4 C           1.2342   -1.4537   -2.7329 C.3     1  UNL11       0.0372
      5 C           0.0907   -2.0397   -2.0207 C.ar    1  UNL11      -0.0301
      6 C          -0.6982   -1.2808   -1.1870 C.ar    1  UNL11      -0.0544
      7 C          -1.7807   -1.8526   -0.5179 C.ar    1  UNL11      -0.0261
      8 C          -2.0371   -3.2026   -0.7167 C.ar    1  UNL11       0.1234
      9 F          -3.0994   -3.7664   -0.0610 F       1  UNL11      -0.2055
     10 C          -1.2682   -3.9840   -1.5414 C.ar    1  UNL11      -0.0261
     11 C          -0.1987   -3.3614   -2.1855 C.ar    1  UNL11      -0.0544
     12 C           0.1706   -0.7079   -0.2703 C.2     1  UNL11       0.1989
     13 N          -0.7446   -0.0749    0.5291 N.2     1  UNL11       0.0044
     14 N          -1.8101   -0.6478    1.0388 N.am    1  UNL11      -0.0153
     15 C          -2.7230    0.1308    1.8777 C.3     1  UNL11       0.1985
     16 C          -3.7945    0.7722    1.0937 C.ar    1  UNL11       0.0189
     17 C          -4.7091    0.0391    0.3436 C.ar    1  UNL11      -0.0525
     18 C          -5.6984    0.6666   -0.3787 C.ar    1  UNL11      -0.0613
     19 C          -5.8241    2.0394   -0.3897 C.ar    1  UNL11      -0.0617
     20 C          -4.9197    2.7687    0.3521 C.ar    1  UNL11      -0.0613
     21 C          -3.9117    2.1454    1.0893 C.ar    1  UNL11      -0.0525
     22 C          -2.0048   -1.9396    0.7509 C.2     1  UNL11       0.4405
     23 O          -3.0043   -2.5292    1.2125 O.2     1  UNL11      -0.2116
     24 C          -1.1308   -2.6617   -0.0499 C.ar    1  UNL11       0.1010
     25 C          -1.3265   -3.9837   -0.3420 C.ar    1  UNL11      -0.0441
     26 C          -0.4561   -4.7029   -1.1342 C.ar    1  UNL11      -0.0608
     27 C           0.6603   -4.1070   -1.6690 C.ar    1  UNL11      -0.0611
     28 C           0.8600   -2.7523   -1.3694 C.ar    1  UNL11      -0.0513
     29 C          -0.0103   -2.0338   -0.5778 C.ar    1  UNL11       0.0282
     30 H           2.6704    0.1534   -2.4319 H       1  UNL11       0.1494
     31 H           2.0000   -2.2668   -2.8464 H       1  UNL11       0.0512
     32 H           0.9930   -1.1129   -3.7670 H       1  UNL11       0.0512
     33 H          -0.5116   -0.2290   -1.0219 H       1  UNL11       0.0622
     34 H          -2.4228   -1.2909    0.1442 H       1  UNL11       0.0646
     35 H          -1.5060   -5.0200   -1.6621 H       1  UNL11       0.0646
     36 H           0.3963   -3.9988   -2.8335 H       1  UNL11       0.0622
     37 H          -2.1736    0.9407    2.4171 H       1  UNL11       0.1103
     38 H          -3.1924   -0.4988    2.6543 H       1  UNL11       0.1103
     39 H          -4.5933   -1.0270    0.3663 H       1  UNL11       0.0622
     40 H          -6.3996    0.0872   -0.9548 H       1  UNL11       0.0618
     41 H          -6.6244    2.5114   -0.9767 H       1  UNL11       0.0618
     42 H          -4.9766    3.8437    0.3754 H       1  UNL11       0.0618
     43 H          -3.2193    2.7636    1.6592 H       1  UNL11       0.0622
     44 H          -2.2149   -4.4676    0.0804 H       1  UNL11       0.0627
     45 H          -0.6081   -5.7572   -1.3700 H       1  UNL11       0.0618
     46 H           1.3791   -4.6089   -2.2941 H       1  UNL11       0.0618
     47 H           1.7200   -2.2934   -1.7759 H       1  UNL11       0.0624
@<TRIPOS>BOND
     1     1     2    2
     2     2     3   am
     3     2    12    1
     4     3     4    1
     5     3    30    1
     6     4     5    1
     7     4    31    1
     8     4    32    1
     9     5     6   ar
    10     6     7   ar
    11     6    33    1
    12     7     8   ar
    13     7    34    1
    14     8     9    1
    15     8    10   ar
    16    10    11   ar
    17    10    35    1
    18    11     5   ar
    19    11    36    1
    20    12    13    2
    21    13    14    1
    22    14    15    1
    23    14    22   am
    24    15    16    1
    25    15    37    1
    26    15    38    1
    27    16    17   ar
    28    17    18   ar
    29    17    39    1
    30    18    19   ar
    31    18    40    1
    32    19    20   ar
    33    19    41    1
    34    20    21   ar
    35    20    42    1
    36    21    16   ar
    37    21    43    1
    38    22    23    2
    39    22    24    1
    40    24    25   ar
    41    25    26   ar
    42    25    44    1
    43    26    27   ar
    44    26    45    1
    45    27    28   ar
    46    27    46    1
    47    28    29   ar
    48    28    47    1
    49    29    12    1
    50    29    24   ar
@<TRIPOS>MOLECULE
*****
 47 50 0 0 0
SMALL
GASTEIGER

@<TRIPOS>ATOM
      1 O           2.4042   -0.4474   -0.9969 O.2     1  UNL11      -0.2683
      2 C           1.2926    0.0449   -0.7572 C.2     1  UNL11       0.2690
      3 N           1.0926    1.4686   -0.9749 N.am    1  UNL11      -0.3058
      4 C          -0.2041    2.0212   -0.6747 C.3     1  UNL11       0.0372
      5 C          -0.1805    3.0722    0.3516 C.ar    1  UNL11      -0.0301
      6 C          -1.0973    4.0983    0.3461 C.ar    1  UNL11      -0.0544
      7 C          -1.0613    5.0887    1.3281 C.ar    1  UNL11      -0.0261
      8 C          -0.0785    5.0090    2.3056 C.ar    1  UNL11       0.1234
      9 F          -0.0411    5.9801    3.2710 F       1  UNL11      -0.2055
     10 C           0.8485    3.9983    2.3365 C.ar    1  UNL11      -0.0261
     11 C           0.7667    3.0347    1.3309 C.ar    1  UNL11      -0.0544
     12 C           0.1706   -0.7079   -0.2703 C.2     1  UNL11       0.1989
     13 N          -0.7446   -0.0749    0.5291 N.2     1  UNL11       0.0044
     14 N          -1.8101   -0.6478    1.0388 N.am    1  UNL11      -0.0153
     15 C          -2.7230    0.1308    1.8777 C.3     1  UNL11       0.1985
     16 C          -2.2833    1.5293    2.0356 C.ar    1  UNL11       0.0189
     17 C          -1.9940    2.0830    3.2791 C.ar    1  UNL11      -0.0525
     18 C          -1.5861    3.3924    3.3947 C.ar    1  UNL11      -0.0613
     19 C          -1.4479    4.2057    2.2902 C.ar    1  UNL11      -0.0617
     20 C          -1.7339    3.6605    1.0568 C.ar    1  UNL11      -0.0613
     21 C          -2.1483    2.3343    0.9251 C.ar    1  UNL11      -0.0525
     22 C          -2.0048   -1.9396    0.7509 C.2     1  UNL11       0.4405
     23 O          -3.0043   -2.5292    1.2125 O.2     1  UNL11      -0.2116
     24 C          -1.1308   -2.6617   -0.0499 C.ar    1  UNL11       0.1010
     25 C          -1.3265   -3.9837   -0.3420 C.ar    1  UNL11      -0.0441
     26 C          -0.4561   -4.7029   -1.1342 C.ar    1  UNL11      -0.0608
     27 C           0.6603   -4.1070   -1.6690 C.ar    1  UNL11      -0.0611
     28 C           0.8600   -2.7523   -1.3694 C.ar    1  UNL11      -0.0513
     29 C          -0.0103   -2.0338   -0.5778 C.ar    1  UNL11       0.0282
     30 H           1.8687    2.0565   -1.3369 H       1  UNL11       0.1494
     31 H          -0.8529    1.1942   -0.2805 H       1  UNL11       0.0512
     32 H          -0.6675    2.3427   -1.6367 H       1  UNL11       0.0512
     33 H          -1.8681    4.1742   -0.4078 H       1  UNL11       0.0622
     34 H          -1.7626    5.9093    1.3580 H       1  UNL11       0.0646
     35 H           1.5867    3.9805    3.1106 H       1  UNL11       0.0646
     36 H           1.5102    2.2439    1.3749 H       1  UNL11       0.0622
     37 H          -2.7984   -0.3127    2.9006 H       1  UNL11       0.1103
     38 H          -3.7466    0.1349    1.4630 H       1  UNL11       0.1103
     39 H          -2.1080    1.4330    4.1247 H       1  UNL11       0.0622
     40 H          -1.3654    3.8081    4.3630 H       1  UNL11       0.0618
     41 H          -1.1205    5.2474    2.4146 H       1  UNL11       0.0618
     42 H          -1.6411    4.2557    0.1643 H       1  UNL11       0.0618
     43 H          -2.3642    1.9481   -0.0702 H       1  UNL11       0.0622
     44 H          -2.2149   -4.4676    0.0804 H       1  UNL11       0.0627
     45 H          -0.6081   -5.7572   -1.3700 H       1  UNL11       0.0618
     46 H           1.3791   -4.6089   -2.2941 H       1  UNL11       0.0618
     47 H           1.7200   -2.2934   -1.7759 H       1  UNL11       0.0624
@<TRIPOS>BOND
     1     1     2    2
     2     2     3   am
     3     2    12    1
     4     3     4    1
     5     3    30    1
     6     4     5    1
     7     4    31    1
     8     4    32    1
     9     5     6   ar
    10     6     7   ar
    11     6    33    1
    12     7     8   ar
    13     7    34    1
    14     8     9    1
    15     8    10   ar
    16    10    11   ar
    17    10    35    1
    18    11     5   ar
    19    11    36    1
    20    12    13    2
    21    13    14    1
    22    14    15    1
    23    14    22   am
    24    15    16    1
    25    15    37    1
    26    15    38    1
    27    16    17   ar
    28    17    18   ar
    29    17    39    1
    30    18    19   ar
    31    18    40    1
    32    19    20   ar
    33    19    41    1
    34    20    21   ar
    35    20    42    1
    36    21    16   ar
    37    21    43    1
    38    22    23    2
    39    22    24    1
    40    24    25   ar
    41    25    26   ar
    42    25    44    1
    43    26    27   ar
    44    26    45    1
    45    27    28   ar
    46    27    46    1
    47    28    29   ar
    48    28    47    1
    49    29    12    1
    50    29    24   ar
@<TRIPOS>MOLECULE
*****
 47 50 0 0 0
SMALL
GASTEIGER

@<TRIPOS>ATOM
      1 O           1.8573   -0.1762   -1.8378 O.2     1  UNL11      -0.2683
      2 C           1.2926    0.0449   -0.7572 C.2     1  UNL11       0.2690
      3 N           1.7810    1.1267    0.0828 N.am    1  UNL11      -0.3058
      4 C           2.9070    1.8920   -0.3898 C.3     1  UNL11       0.0372
      5 C           2.6248    3.3237   -0.5598 C.ar    1  UNL11      -0.0301
      6 C           2.7522    3.9376   -1.7847 C.ar    1  UNL11      -0.0544
      7 C           2.4803    5.2983   -1.9293 C.ar    1  UNL11      -0.0261
      8 C           2.0796    6.0110   -0.8071 C.ar    1  UNL11       0.1234
      9 F           1.8118    7.3470   -0.9465 F       1  UNL11      -0.2055
     10 C           1.9439    5.4261    0.4263 C.ar    1  UNL11      -0.0261
     11 C           2.2285    4.0632    0.5143 C.ar    1  UNL11      -0.0544
     12 C           0.1706   -0.7079   -0.2703 C.2     1  UNL11       0.1989
     13 N          -0.7446   -0.0749    0.5291 N.2     1  UNL11       0.0044
     14 N          -1.8101   -0.6478    1.0388 N.am    1  UNL11      -0.0153
     15 C          -2.7230    0.1308    1.8777 C.3     1  UNL11       0.1985
     16 C          -2.0317    1.2119    2.6039 C.ar    1  UNL11       0.0189
     17 C          -1.4879    1.0280    3.8717 C.ar    1  UNL11      -0.0525
     18 C          -0.8486    2.0570    4.5250 C.ar    1  UNL11      -0.0613
     19 C          -0.7210    3.3056    3.9546 C.ar    1  UNL11      -0.0617
     20 C          -1.2587    3.4913    2.6990 C.ar    1  UNL11      -0.0613
     21 C          -1.9094    2.4567    2.0251 C.ar    1  UNL11      -0.0525
     22 C          -2.0048   -1.9396    0.7509 C.2     1  UNL11       0.4405
     23 O          -3.0043   -2.5292    1.2125 O.2     1  UNL11      -0.2116
     24 C          -1.1308   -2.6617   -0.0499 C.ar    1  UNL11       0.1010
     25 C          -1.3265   -3.9837   -0.3420 C.ar    1  UNL11      -0.0441
     26 C          -0.4561   -4.7029   -1.1342 C.ar    1  UNL11      -0.0608
     27 C           0.6603   -4.1070   -1.6690 C.ar    1  UNL11      -0.0611
     28 C           0.8600   -2.7523   -1.3694 C.ar    1  UNL11      -0.0513
     29 C          -0.0103   -2.0338   -0.5778 C.ar    1  UNL11       0.0282
     30 H           1.3235    1.3295    0.9931 H       1  UNL11       0.1494
     31 H           3.2001    1.4947   -1.3981 H       1  UNL11       0.0512
     32 H           3.7689    1.6808    0.2856 H       1  UNL11       0.0512
     33 H           3.0631    3.3966   -2.6673 H       1  UNL11       0.0622
     34 H           2.5685    5.8159   -2.8729 H       1  UNL11       0.0646
     35 H           1.6322    6.0178    1.2614 H       1  UNL11       0.0646
     36 H           2.1143    3.6210    1.5000 H       1  UNL11       0.0622
     37 H          -3.2157   -0.5212    2.6398 H       1  UNL11       0.1103
     38 H          -3.5353    0.5805    1.2795 H       1  UNL11       0.1103
     39 H          -1.5983    0.0494    4.2967 H       1  UNL11       0.0622
     40 H          -0.4323    1.9010    5.5056 H       1  UNL11       0.0618
     41 H          -0.2053    4.1074    4.5015 H       1  UNL11       0.0618
     42 H          -1.1847    4.4486    2.2118 H       1  UNL11       0.0618
     43 H          -2.3196    2.6512    1.0350 H       1  UNL11       0.0622
     44 H          -2.2149   -4.4676    0.0804 H       1  UNL11       0.0627
     45 H          -0.6081   -5.7572   -1.3700 H       1  UNL11       0.0618
     46 H           1.3791   -4.6089   -2.2941 H       1  UNL11       0.0618
     47 H           1.7200   -2.2934   -1.7759 H       1  UNL11       0.0624
@<TRIPOS>BOND
     1     1     2    2
     2     2     3   am
     3     2    12    1
     4     3     4    1
     5     3    30    1
     6     4     5    1
     7     4    31    1
     8     4    32    1
     9     5     6   ar
    10     6     7   ar
    11     6    33    1
    12     7     8   ar
    13     7    34    1
    14     8     9    1
    15     8    10   ar
    16    10    11   ar
    17    10    35    1
    18    11     5   ar
    19    11    36    1
    20    12    13    2
    21    13    14    1
    22    14    15    1
    23    14    22   am
    24    15    16    1
    25    15    37    1
    26    15    38    1
    27    16    17   ar
    28    17    18   ar
    29    17    39    1
    30    18    19   ar
    31    18    40    1
    32    19    20   ar
    33    19    41    1
    34    20    21   ar
    35    20    42    1
    36    21    16   ar
    37    21    43    1
    38    22    23    2
    39    22    24    1
    40    24    25   ar
    41    25    26   ar
    42    25    44    1
    43    26    27   ar
    44    26    45    1
    45    27    28   ar
    46    27    46    1
    47    28    29   ar
    48    28    47    1
    49    29    12    1
    50    29    24   ar
@<TRIPOS>MOLECULE
*****
 47 50 0 0 0
SMALL
GASTEIGER

@<TRIPOS>ATOM
      1 O           1.4878    1.2409   -0.4984 O.2     1  UNL11      -0.2683
      2 C           1.2926    0.0449   -0.7572 C.2     1  UNL11       0.2690
      3 N           2.2450   -0.6557   -1.6036 N.am    1  UNL11      -0.3058
      4 C           3.3765    0.0847   -2.1020 C.3     1  UNL11       0.0372
      5 C           4.2723   -0.7026   -2.9599 C.ar    1  UNL11      -0.0301
      6 C           4.0888   -0.7618   -4.3224 C.ar    1  UNL11      -0.0544
      7 C           4.9487   -1.5142   -5.1231 C.ar    1  UNL11      -0.0261
      8 C           5.9891   -2.1976   -4.5083 C.ar    1  UNL11       0.1234
      9 F           6.8348   -2.9368   -5.2923 F       1  UNL11      -0.2055
     10 C           6.1966   -2.1573   -3.1529 C.ar    1  UNL11      -0.0261
     11 C           5.3075   -1.3900   -2.3999 C.ar    1  UNL11      -0.0544
     12 C           0.1706   -0.7079   -0.2703 C.2     1  UNL11       0.1989
     13 N          -0.7446   -0.0749    0.5291 N.2     1  UNL11       0.0044
     14 N          -1.8101   -0.6478    1.0388 N.am    1  UNL11      -0.0153
     15 C          -2.7230    0.1308    1.8777 C.3     1  UNL11       0.1985
     16 C          -4.1155   -0.3441    1.7805 C.ar    1  UNL11       0.0189
     17 C          -4.4820   -1.4153    0.9713 C.ar    1  UNL11      -0.0525
     18 C          -5.7908   -1.8354    0.9009 C.ar    1  UNL11      -0.0613
     19 C          -6.7877   -1.2164    1.6244 C.ar    1  UNL11      -0.0617
     20 C          -6.4282   -0.1548    2.4270 C.ar    1  UNL11      -0.0613
     21 C          -5.1049    0.2815    2.5079 C.ar    1  UNL11      -0.0525
     22 C          -2.0048   -1.9396    0.7509 C.2     1  UNL11       0.4405
     23 O          -3.0043   -2.5292    1.2125 O.2     1  UNL11      -0.2116
     24 C          -1.1308   -2.6617   -0.0499 C.ar    1  UNL11       0.1010
     25 C          -1.3265   -3.9837   -0.3420 C.ar    1  UNL11      -0.0441
     26 C          -0.4561   -4.7029   -1.1342 C.ar    1  UNL11      -0.0608
     27 C           0.6603   -4.1070   -1.6690 C.ar    1  UNL11      -0.0611
     28 C           0.8600   -2.7523   -1.3694 C.ar    1  UNL11      -0.0513
     29 C          -0.0103   -2.0338   -0.5778 C.ar    1  UNL11       0.0282
     30 H           2.1011   -1.6582   -1.8344 H       1  UNL11       0.1494
     31 H           3.9842    0.4272   -1.2223 H       1  UNL11       0.0512
     32 H           2.9894    1.0113   -2.5868 H       1  UNL11       0.0512
     33 H           3.2838   -0.2356   -4.8157 H       1  UNL11       0.0622
     34 H           4.8379   -1.5857   -6.1949 H       1  UNL11       0.0646
     35 H           7.0128   -2.7014   -2.7259 H       1  UNL11       0.0646
     36 H           5.4907   -1.3723   -1.3293 H       1  UNL11       0.0622
     37 H          -2.7161    1.2076    1.5791 H       1  UNL11       0.1103
     38 H          -2.4203    0.0993    2.9394 H       1  UNL11       0.1103
     39 H          -3.6912   -1.8823    0.4172 H       1  UNL11       0.0622
     40 H          -6.0607   -2.6657    0.2707 H       1  UNL11       0.0618
     41 H          -7.8238   -1.5747    1.5470 H       1  UNL11       0.0618
     42 H          -7.1708    0.3612    3.0114 H       1  UNL11       0.0618
     43 H          -4.8690    1.1255    3.1547 H       1  UNL11       0.0622
     44 H          -2.2149   -4.4676    0.0804 H       1  UNL11       0.0627
     45 H          -0.6081   -5.7572   -1.3700 H       1  UNL11       0.0618
     46 H           1.3791   -4.6089   -2.2941 H       1  UNL11       0.0618
     47 H           1.7200   -2.2934   -1.7759 H       1  UNL11       0.0624
@<TRIPOS>BOND
     1     1     2    2
     2     2     3   am
     3     2    12    1
     4     3     4    1
     5     3    30    1
     6     4     5    1
     7     4    31    1
     8     4    32    1
     9     5     6   ar
    10     6     7   ar
    11     6    33    1
    12     7     8   ar
    13     7    34    1
    14     8     9    1
    15     8    10   ar
    16    10    11   ar
    17    10    35    1
    18    11     5   ar
    19    11    36    1
    20    12    13    2
    21    13    14    1
    22    14    15    1
    23    14    22   am
    24    15    16    1
    25    15    37    1
    26    15    38    1
    27    16    17   ar
    28    17    18   ar
    29    17    39    1
    30    18    19   ar
    31    18    40    1
    32    19    20   ar
    33    19    41    1
    34    20    21   ar
    35    20    42    1
    36    21    16   ar
    37    21    43    1
    38    22    23    2
    39    22    24    1
    40    24    25   ar
    41    25    26   ar
    42    25    44    1
    43    26    27   ar
    44    26    45    1
    45    27    28   ar
    46    27    46    1
    47    28    29   ar
    48    28    47    1
    49    29    12    1
    50    29    24   ar
@<TRIPOS>MOLECULE
*****
 47 50 0 0 0
SMALL
GASTEIGER

@<TRIPOS>ATOM
      1 O           2.4042   -0.4474   -0.9969 O.2     1  UNL11      -0.2683
      2 C           1.2926    0.0449   -0.7572 C.2     1  UNL11       0.2690
      3 N           1.0926    1.4686   -0.9749 N.am    1  UNL11      -0.3058
      4 C          -0.2041    2.0212   -0.6747 C.3     1  UNL11       0.0372
      5 C          -0.8685    2.6422   -1.8285 C.ar    1  UNL11      -0.0301
      6 C          -0.1439    3.2170   -2.8474 C.ar    1  UNL11      -0.0544
      7 C          -0.7903    3.8026   -3.9363 C.ar    1  UNL11      -0.0261
      8 C          -2.1784    3.7885   -3.9616 C.ar    1  UNL11       0.1234
      9 F          -2.8153    4.3626   -5.0298 F       1  UNL11      -0.2055
     10 C          -2.9269    3.2232   -2.9606 C.ar    1  UNL11      -0.0261
     11 C          -2.2297    2.6519   -1.8958 C.ar    1  UNL11      -0.0544
     12 C           0.1706   -0.7079   -0.2703 C.2     1  UNL11       0.1989
     13 N          -0.7446   -0.0749    0.5291 N.2     1  UNL11       0.0044
     14 N          -1.8101   -0.6478    1.0388 N.am    1  UNL11      -0.0153
     15 C          -2.7230    0.1308    1.8777 C.3     1  UNL11       0.1985
     16 C          -2.3597    0.0715    3.3055 C.ar    1  UNL11       0.0189
     17 C          -1.2647   -0.6538    3.7656 C.ar    1  UNL11      -0.0525
     18 C          -0.9510   -0.6906    5.1052 C.ar    1  UNL11      -0.0613
     19 C          -1.7036   -0.0148    6.0419 C.ar    1  UNL11      -0.0617
     20 C          -2.7890    0.7045    5.5896 C.ar    1  UNL11      -0.0613
     21 C          -3.1185    0.7506    4.2341 C.ar    1  UNL11      -0.0525
     22 C          -2.0048   -1.9396    0.7509 C.2     1  UNL11       0.4405
     23 O          -3.0043   -2.5292    1.2125 O.2     1  UNL11      -0.2116
     24 C          -1.1308   -2.6617   -0.0499 C.ar    1  UNL11       0.1010
     25 C          -1.3265   -3.9837   -0.3420 C.ar    1  UNL11      -0.0441
     26 C          -0.4561   -4.7029   -1.1342 C.ar    1  UNL11      -0.0608
     27 C           0.6603   -4.1070   -1.6690 C.ar    1  UNL11      -0.0611
     28 C           0.8600   -2.7523   -1.3694 C.ar    1  UNL11      -0.0513
     29 C          -0.0103   -2.0338   -0.5778 C.ar    1  UNL11       0.0282
     30 H           1.8687    2.0565   -1.3369 H       1  UNL11       0.1494
     31 H          -0.0703    2.8255    0.0971 H       1  UNL11       0.0512
     32 H          -0.8085    1.2227   -0.1841 H       1  UNL11       0.0512
     33 H           0.9368    3.2359   -2.8422 H       1  UNL11       0.0622
     34 H          -0.2575    4.2633   -4.7549 H       1  UNL11       0.0646
     35 H          -3.9947    3.2375   -3.0255 H       1  UNL11       0.0646
     36 H          -2.8423    2.2101   -1.1149 H       1  UNL11       0.0622
     37 H          -3.7699   -0.2485    1.7838 H       1  UNL11       0.1103
     38 H          -2.7465    1.1915    1.5707 H       1  UNL11       0.1103
     39 H          -0.6931   -1.1718    3.0203 H       1  UNL11       0.0622
     40 H          -0.1009   -1.2558    5.4477 H       1  UNL11       0.0618
     41 H          -1.4279   -0.0637    7.1046 H       1  UNL11       0.0618
     42 H          -3.4077    1.2491    6.2825 H       1  UNL11       0.0618
     43 H          -3.9863    1.3314    3.9242 H       1  UNL11       0.0622
     44 H          -2.2149   -4.4676    0.0804 H       1  UNL11       0.0627
     45 H          -0.6081   -5.7572   -1.3700 H       1  UNL11       0.0618
     46 H           1.3791   -4.6089   -2.2941 H       1  UNL11       0.0618
     47 H           1.7200   -2.2934   -1.7759 H       1  UNL11       0.0624
@<TRIPOS>BOND
     1     1     2    2
     2     2     3   am
     3     2    12    1
     4     3     4    1
     5     3    30    1
     6     4     5    1
     7     4    31    1
     8     4    32    1
     9     5     6   ar
    10     6     7   ar
    11     6    33    1
    12     7     8   ar
    13     7    34    1
    14     8     9    1
    15     8    10   ar
    16    10    11   ar
    17    10    35    1
    18    11     5   ar
    19    11    36    1
    20    12    13    2
    21    13    14    1
    22    14    15    1
    23    14    22   am
    24    15    16    1
    25    15    37    1
    26    15    38    1
    27    16    17   ar
    28    17    18   ar
    29    17    39    1
    30    18    19   ar
    31    18    40    1
    32    19    20   ar
    33    19    41    1
    34    20    21   ar
    35    20    42    1
    36    21    16   ar
    37    21    43    1
    38    22    23    2
    39    22    24    1
    40    24    25   ar
    41    25    26   ar
    42    25    44    1
    43    26    27   ar
    44    26    45    1
    45    27    28   ar
    46    27    46    1
    47    28    29   ar
    48    28    47    1
    49    29    12    1
    50    29    24   ar
@<TRIPOS>MOLECULE
*****
 47 50 0 0 0
SMALL
GASTEIGER

@<TRIPOS>ATOM
      1 O           1.8006    0.9990   -0.1514 O.2     1  UNL11      -0.2683
      2 C           1.2926    0.0449   -0.7572 C.2     1  UNL11       0.2690
      3 N           1.8513   -0.3511   -2.0400 N.am    1  UNL11      -0.3058
      4 C           2.9770    0.3941   -2.5443 C.3     1  UNL11       0.0372
      5 C           3.4138    1.4837   -1.6610 C.ar    1  UNL11      -0.0301
      6 C           2.5256    2.1374   -0.8380 C.ar    1  UNL11      -0.0544
      7 C           2.9567    3.1702   -0.0050 C.ar    1  UNL11      -0.0261
      8 C           4.3008    3.5173   -0.0306 C.ar    1  UNL11       0.1234
      9 F           4.7265    4.5308    0.7865 F       1  UNL11      -0.2055
     10 C           5.2090    2.8838   -0.8403 C.ar    1  UNL11      -0.0261
     11 C           4.7242    1.8585   -1.6528 C.ar    1  UNL11      -0.0544
     12 C           0.1706   -0.7079   -0.2703 C.2     1  UNL11       0.1989
     13 N          -0.7446   -0.0749    0.5291 N.2     1  UNL11       0.0044
     14 N          -1.8101   -0.6478    1.0388 N.am    1  UNL11      -0.0153
     15 C          -2.7230    0.1308    1.8777 C.3     1  UNL11       0.1985
     16 C          -2.7415    1.5585    1.5099 C.ar    1  UNL11       0.0189
     17 C          -3.5265    2.4905    2.1821 C.ar    1  UNL11      -0.0525
     18 C          -3.5229    3.8170    1.8150 C.ar    1  UNL11      -0.0613
     19 C          -2.7465    4.2754    0.7722 C.ar    1  UNL11      -0.0617
     20 C          -1.9678    3.3549    0.1040 C.ar    1  UNL11      -0.0613
     21 C          -1.9616    2.0070    0.4658 C.ar    1  UNL11      -0.0525
     22 C          -2.0048   -1.9396    0.7509 C.2     1  UNL11       0.4405
     23 O          -3.0043   -2.5292    1.2125 O.2     1  UNL11      -0.2116
     24 C          -1.1308   -2.6617   -0.0499 C.ar    1  UNL11       0.1010
     25 C          -1.3265   -3.9837   -0.3420 C.ar    1  UNL11      -0.0441
     26 C          -0.4561   -4.7029   -1.1342 C.ar    1  UNL11      -0.0608
     27 C           0.6603   -4.1070   -1.6690 C.ar    1  UNL11      -0.0611
     28 C           0.8600   -2.7523   -1.3694 C.ar    1  UNL11      -0.0513
     29 C          -0.0103   -2.0338   -0.5778 C.ar    1  UNL11       0.0282
     30 H           1.4410   -1.1474   -2.5658 H       1  UNL11       0.1494
     31 H           2.6760    0.8640   -3.5185 H       1  UNL11       0.0512
     32 H           3.7838   -0.3349   -2.7916 H       1  UNL11       0.0512
     33 H           1.4766    1.8790   -0.8067 H       1  UNL11       0.0622
     34 H           2.2910    3.7070    0.6546 H       1  UNL11       0.0646
     35 H           6.2347    3.1876   -0.8244 H       1  UNL11       0.0646
     36 H           5.4606    1.3709   -2.2854 H       1  UNL11       0.0622
     37 H          -2.4261    0.0671    2.9531 H       1  UNL11       0.1103
     38 H          -3.7558   -0.2556    1.8155 H       1  UNL11       0.1103
     39 H          -4.1225    2.1126    2.9898 H       1  UNL11       0.0622
     40 H          -4.1351    4.5276    2.3438 H       1  UNL11       0.0618
     41 H          -2.7653    5.3407    0.5025 H       1  UNL11       0.0618
     42 H          -1.3442    3.6643   -0.7175 H       1  UNL11       0.0618
     43 H          -1.3309    1.3164   -0.0926 H       1  UNL11       0.0622
     44 H          -2.2149   -4.4676    0.0804 H       1  UNL11       0.0627
     45 H          -0.6081   -5.7572   -1.3700 H       1  UNL11       0.0618
     46 H           1.3791   -4.6089   -2.2941 H       1  UNL11       0.0618
     47 H           1.7200   -2.2934   -1.7759 H       1  UNL11       0.0624
@<TRIPOS>BOND
     1     1     2    2
     2     2     3   am
     3     2    12    1
     4     3     4    1
     5     3    30    1
     6     4     5    1
     7     4    31    1
     8     4    32    1
     9     5     6   ar
    10     6     7   ar
    11     6    33    1
    12     7     8   ar
    13     7    34    1
    14     8     9    1
    15     8    10   ar
    16    10    11   ar
    17    10    35    1
    18    11     5   ar
    19    11    36    1
    20    12    13    2
    21    13    14    1
    22    14    15    1
    23    14    22   am
    24    15    16    1
    25    15    37    1
    26    15    38    1
    27    16    17   ar
    28    17    18   ar
    29    17    39    1
    30    18    19   ar
    31    18    40    1
    32    19    20   ar
    33    19    41    1
    34    20    21   ar
    35    20    42    1
    36    21    16   ar
    37    21    43    1
    38    22    23    2
    39    22    24    1
    40    24    25   ar
    41    25    26   ar
    42    25    44    1
    43    26    27   ar
    44    26    45    1
    45    27    28   ar
    46    27    46    1
    47    28    29   ar
    48    28    47    1
    49    29    12    1
    50    29    24   ar
@<TRIPOS>MOLECULE
*****
 47 50 0 0 0
SMALL
GASTEIGER

@<TRIPOS>ATOM
      1 O           2.4042   -0.4474   -0.9969 O.2     1  UNL11      -0.2683
      2 C           1.2926    0.0449   -0.7572 C.2     1  UNL11       0.2690
      3 N           1.0926    1.4686   -0.9749 N.am    1  UNL11      -0.3058
      4 C           2.2082    2.2397   -1.4623 C.3     1  UNL11       0.0372
      5 C           2.6198    3.3259   -0.5627 C.ar    1  UNL11      -0.0301
      6 C           1.7147    3.9536    0.2620 C.ar    1  UNL11      -0.0544
      7 C           2.1219    4.9834    1.1106 C.ar    1  UNL11      -0.0261
      8 C           3.4598    5.3544    1.0985 C.ar    1  UNL11       0.1234
      9 F           3.8621    6.3651    1.9308 F       1  UNL11      -0.2055
     10 C           4.3845    4.7471    0.2873 C.ar    1  UNL11      -0.0261
     11 C           3.9233    3.7235   -0.5410 C.ar    1  UNL11      -0.0544
     12 C           0.1706   -0.7079   -0.2703 C.2     1  UNL11       0.1989
     13 N          -0.7446   -0.0749    0.5291 N.2     1  UNL11       0.0044
     14 N          -1.8101   -0.6478    1.0388 N.am    1  UNL11      -0.0153
     15 C          -2.7230    0.1308    1.8777 C.3     1  UNL11       0.1985
     16 C          -3.3119    1.2728    1.1544 C.ar    1  UNL11       0.0189
     17 C          -3.0095    1.5473   -0.1760 C.ar    1  UNL11      -0.0525
     18 C          -3.5750    2.6216   -0.8244 C.ar    1  UNL11      -0.0613
     19 C          -4.4592    3.4658   -0.1873 C.ar    1  UNL11      -0.0617
     20 C          -4.7608    3.1968    1.1306 C.ar    1  UNL11      -0.0613
     21 C          -4.1949    2.1109    1.8003 C.ar    1  UNL11      -0.0525
     22 C          -2.0048   -1.9396    0.7509 C.2     1  UNL11       0.4405
     23 O          -3.0043   -2.5292    1.2125 O.2     1  UNL11      -0.2116
     24 C          -1.1308   -2.6617   -0.0499 C.ar    1  UNL11       0.1010
     25 C          -1.3265   -3.9837   -0.3420 C.ar    1  UNL11      -0.0441
     26 C          -0.4561   -4.7029   -1.1342 C.ar    1  UNL11      -0.0608
     27 C           0.6603   -4.1070   -1.6690 C.ar    1  UNL11      -0.0611
     28 C           0.8600   -2.7523   -1.3694 C.ar    1  UNL11      -0.0513
     29 C          -0.0103   -2.0338   -0.5778 C.ar    1  UNL11       0.0282
     30 H           0.1693    1.9030   -0.7799 H       1  UNL11       0.1494
     31 H           1.9055    2.7162   -2.4327 H       1  UNL11       0.0512
     32 H           3.0294    1.5281   -1.7130 H       1  UNL11       0.0512
     33 H           0.6702    3.6763    0.2830 H       1  UNL11       0.0622
     34 H           1.4425    5.5002    1.7720 H       1  UNL11       0.0646
     35 H           5.4045    5.0687    0.3140 H       1  UNL11       0.0646
     36 H           4.6724    3.2568   -1.1744 H       1  UNL11       0.0622
     37 H          -2.1903    0.5403    2.7706 H       1  UNL11       0.1103
     38 H          -3.5466   -0.4948    2.2652 H       1  UNL11       0.1103
     39 H          -2.3197    0.8782   -0.6524 H       1  UNL11       0.0622
     40 H          -3.3323    2.8226   -1.8540 H       1  UNL11       0.0618
     41 H          -4.8941    4.3156   -0.7318 H       1  UNL11       0.0618
     42 H          -5.4460    3.8273    1.6714 H       1  UNL11       0.0618
     43 H          -4.4624    1.9391    2.8421 H       1  UNL11       0.0622
     44 H          -2.2149   -4.4676    0.0804 H       1  UNL11       0.0627
     45 H          -0.6081   -5.7572   -1.3700 H       1  UNL11       0.0618
     46 H           1.3791   -4.6089   -2.2941 H       1  UNL11       0.0618
     47 H           1.7200   -2.2934   -1.7759 H       1  UNL11       0.0624
@<TRIPOS>BOND
     1     1     2    2
     2     2     3   am
     3     2    12    1
     4     3     4    1
     5     3    30    1
     6     4     5    1
     7     4    31    1
     8     4    32    1
     9     5     6   ar
    10     6     7   ar
    11     6    33    1
    12     7     8   ar
    13     7    34    1
    14     8     9    1
    15     8    10   ar
    16    10    11   ar
    17    10    35    1
    18    11     5   ar
    19    11    36    1
    20    12    13    2
    21    13    14    1
    22    14    15    1
    23    14    22   am
    24    15    16    1
    25    15    37    1
    26    15    38    1
    27    16    17   ar
    28    17    18   ar
    29    17    39    1
    30    18    19   ar
    31    18    40    1
    32    19    20   ar
    33    19    41    1
    34    20    21   ar
    35    20    42    1
    36    21    16   ar
    37    21    43    1
    38    22    23    2
    39    22    24    1
    40    24    25   ar
    41    25    26   ar
    42    25    44    1
    43    26    27   ar
    44    26    45    1
    45    27    28   ar
    46    27    46    1
    47    28    29   ar
    48    28    47    1
    49    29    12    1
    50    29    24   ar
@<TRIPOS>MOLECULE
*****
 47 50 0 0 0
SMALL
GASTEIGER

@<TRIPOS>ATOM
      1 O           1.8006    0.9990   -0.1514 O.2     1  UNL11      -0.2683
      2 C           1.2926    0.0449   -0.7572 C.2     1  UNL11       0.2690
      3 N           1.8513   -0.3511   -2.0400 N.am    1  UNL11      -0.3058
      4 C           2.9770    0.3941   -2.5443 C.3     1  UNL11       0.0372
      5 C           4.2804   -0.1455   -2.1343 C.ar    1  UNL11      -0.0301
      6 C           5.4568    0.4563   -2.5181 C.ar    1  UNL11      -0.0544
      7 C           6.6865   -0.0689   -2.1201 C.ar    1  UNL11      -0.0261
      8 C           6.6885   -1.2104   -1.3297 C.ar    1  UNL11       0.1234
      9 F           7.8945   -1.7279   -0.9374 F       1  UNL11      -0.2055
     10 C           5.5321   -1.8319   -0.9318 C.ar    1  UNL11      -0.0261
     11 C           4.3308   -1.2647   -1.3580 C.ar    1  UNL11      -0.0544
     12 C           0.1706   -0.7079   -0.2703 C.2     1  UNL11       0.1989
     13 N          -0.7446   -0.0749    0.5291 N.2     1  UNL11       0.0044
     14 N          -1.8101   -0.6478    1.0388 N.am    1  UNL11      -0.0153
     15 C          -2.7230    0.1308    1.8777 C.3     1  UNL11       0.1985
     16 C          -3.7945    0.7722    1.0937 C.ar    1  UNL11       0.0189
     17 C          -4.7091    0.0391    0.3436 C.ar    1  UNL11      -0.0525
     18 C          -5.6984    0.6666   -0.3787 C.ar    1  UNL11      -0.0613
     19 C          -5.8241    2.0394   -0.3897 C.ar    1  UNL11      -0.0617
     20 C          -4.9197    2.7687    0.3521 C.ar    1  UNL11      -0.0613
     21 C          -3.9117    2.1454    1.0893 C.ar    1  UNL11      -0.0525
     22 C          -2.0048   -1.9396    0.7509 C.2     1  UNL11       0.4405
     23 O          -3.0043   -2.5292    1.2125 O.2     1  UNL11      -0.2116
     24 C          -1.1308   -2.6617   -0.0499 C.ar    1  UNL11       0.1010
     25 C          -1.3265   -3.9837   -0.3420 C.ar    1  UNL11      -0.0441
     26 C          -0.4561   -4.7029   -1.1342 C.ar    1  UNL11      -0.0608
     27 C           0.6603   -4.1070   -1.6690 C.ar    1  UNL11      -0.0611
     28 C           0.8600   -2.7523   -1.3694 C.ar    1  UNL11      -0.0513
     29 C          -0.0103   -2.0338   -0.5778 C.ar    1  UNL11       0.0282
     30 H           1.4410   -1.1474   -2.5658 H       1  UNL11       0.1494
     31 H           2.9136    1.4390   -2.1384 H       1  UNL11       0.0512
     32 H           2.8560    0.4863   -3.6490 H       1  UNL11       0.0512
     33 H           5.4719    1.3450   -3.1331 H       1  UNL11       0.0622
     34 H           7.6307    0.3740   -2.4004 H       1  UNL11       0.0646
     35 H           5.5854   -2.7097   -0.3226 H       1  UNL11       0.0646
     36 H           3.4280   -1.7730   -1.0312 H       1  UNL11       0.0622
     37 H          -2.1736    0.9407    2.4171 H       1  UNL11       0.1103
     38 H          -3.1924   -0.4988    2.6543 H       1  UNL11       0.1103
     39 H          -4.5933   -1.0270    0.3663 H       1  UNL11       0.0622
     40 H          -6.3996    0.0872   -0.9548 H       1  UNL11       0.0618
     41 H          -6.6244    2.5114   -0.9767 H       1  UNL11       0.0618
     42 H          -4.9766    3.8437    0.3754 H       1  UNL11       0.0618
     43 H          -3.2193    2.7636    1.6592 H       1  UNL11       0.0622
     44 H          -2.2149   -4.4676    0.0804 H       1  UNL11       0.0627
     45 H          -0.6081   -5.7572   -1.3700 H       1  UNL11       0.0618
     46 H           1.3791   -4.6089   -2.2941 H       1  UNL11       0.0618
     47 H           1.7200   -2.2934   -1.7759 H       1  UNL11       0.0624
@<TRIPOS>BOND
     1     1     2    2
     2     2     3   am
     3     2    12    1
     4     3     4    1
     5     3    30    1
     6     4     5    1
     7     4    31    1
     8     4    32    1
     9     5     6   ar
    10     6     7   ar
    11     6    33    1
    12     7     8   ar
    13     7    34    1
    14     8     9    1
    15     8    10   ar
    16    10    11   ar
    17    10    35    1
    18    11     5   ar
    19    11    36    1
    20    12    13    2
    21    13    14    1
    22    14    15    1
    23    14    22   am
    24    15    16    1
    25    15    37    1
    26    15    38    1
    27    16    17   ar
    28    17    18   ar
    29    17    39    1
    30    18    19   ar
    31    18    40    1
    32    19    20   ar
    33    19    41    1
    34    20    21   ar
    35    20    42    1
    36    21    16   ar
    37    21    43    1
    38    22    23    2
    39    22    24    1
    40    24    25   ar
    41    25    26   ar
    42    25    44    1
    43    26    27   ar
    44    26    45    1
    45    27    28   ar
    46    27    46    1
    47    28    29   ar
    48    28    47    1
    49    29    12    1
    50    29    24   ar
@<TRIPOS>MOLECULE
*****
 47 50 0 0 0
SMALL
GASTEIGER

@<TRIPOS>ATOM
      1 O           2.1714   -0.4227   -1.4952 O.2     1  UNL11      -0.2683
      2 C           1.2926    0.0449   -0.7572 C.2     1  UNL11       0.2690
      3 N           1.3857    1.4371   -0.3480 N.am    1  UNL11      -0.3058
      4 C           2.5059    2.2073   -0.8265 C.3     1  UNL11       0.0372
      5 C           2.2543    2.8969   -2.0991 C.ar    1  UNL11      -0.0301
      6 C           1.7437    4.1743   -2.1320 C.ar    1  UNL11      -0.0544
      7 C           1.5106    4.8152   -3.3491 C.ar    1  UNL11      -0.0261
      8 C           1.8073    4.1301   -4.5197 C.ar    1  UNL11       0.1234
      9 F           1.5795    4.7574   -5.7159 F       1  UNL11      -0.2055
     10 C           2.3169    2.8565   -4.5179 C.ar    1  UNL11      -0.0261
     11 C           2.5306    2.2629   -3.2736 C.ar    1  UNL11      -0.0544
     12 C           0.1706   -0.7079   -0.2703 C.2     1  UNL11       0.1989
     13 N          -0.7446   -0.0749    0.5291 N.2     1  UNL11       0.0044
     14 N          -1.8101   -0.6478    1.0388 N.am    1  UNL11      -0.0153
     15 C          -2.7230    0.1308    1.8777 C.3     1  UNL11       0.1985
     16 C          -2.0525    0.6894    3.0662 C.ar    1  UNL11       0.0189
     17 C          -0.9843    1.5762    2.9704 C.ar    1  UNL11      -0.0525
     18 C          -0.3782    2.0805    4.0986 C.ar    1  UNL11      -0.0613
     19 C          -0.8011    1.7305    5.3631 C.ar    1  UNL11      -0.0617
     20 C          -1.8590    0.8521    5.4616 C.ar    1  UNL11      -0.0613
     21 C          -2.4829    0.3333    4.3261 C.ar    1  UNL11      -0.0525
     22 C          -2.0048   -1.9396    0.7509 C.2     1  UNL11       0.4405
     23 O          -3.0043   -2.5292    1.2125 O.2     1  UNL11      -0.2116
     24 C          -1.1308   -2.6617   -0.0499 C.ar    1  UNL11       0.1010
     25 C          -1.3265   -3.9837   -0.3420 C.ar    1  UNL11      -0.0441
     26 C          -0.4561   -4.7029   -1.1342 C.ar    1  UNL11      -0.0608
     27 C           0.6603   -4.1070   -1.6690 C.ar    1  UNL11      -0.0611
     28 C           0.8600   -2.7523   -1.3694 C.ar    1  UNL11      -0.0513
     29 C          -0.0103   -2.0338   -0.5778 C.ar    1  UNL11       0.0282
     30 H           0.6609    1.8500    0.2710 H       1  UNL11       0.1494
     31 H           3.3639    1.5043   -0.9999 H       1  UNL11       0.0512
     32 H           2.8276    2.8868   -0.0030 H       1  UNL11       0.0512
     33 H           1.5077    4.7205   -1.2297 H       1  UNL11       0.0622
     34 H           1.1113    5.8163   -3.4165 H       1  UNL11       0.0646
     35 H           2.5294    2.3700   -5.4468 H       1  UNL11       0.0646
     36 H           2.9346    1.2547   -3.2960 H       1  UNL11       0.0622
     37 H          -3.5689   -0.5036    2.2391 H       1  UNL11       0.1103
     38 H          -3.1770    0.9644    1.3131 H       1  UNL11       0.1103
     39 H          -0.6715    1.8350    1.9776 H       1  UNL11       0.0622
     40 H           0.4474    2.7659    4.0101 H       1  UNL11       0.0618
     41 H          -0.2967    2.1498    6.2449 H       1  UNL11       0.0618
     42 H          -2.2257    0.5484    6.4274 H       1  UNL11       0.0618
     43 H          -3.3143   -0.3588    4.4538 H       1  UNL11       0.0622
     44 H          -2.2149   -4.4676    0.0804 H       1  UNL11       0.0627
     45 H          -0.6081   -5.7572   -1.3700 H       1  UNL11       0.0618
     46 H           1.3791   -4.6089   -2.2941 H       1  UNL11       0.0618
     47 H           1.7200   -2.2934   -1.7759 H       1  UNL11       0.0624
@<TRIPOS>BOND
     1     1     2    2
     2     2     3   am
     3     2    12    1
     4     3     4    1
     5     3    30    1
     6     4     5    1
     7     4    31    1
     8     4    32    1
     9     5     6   ar
    10     6     7   ar
    11     6    33    1
    12     7     8   ar
    13     7    34    1
    14     8     9    1
    15     8    10   ar
    16    10    11   ar
    17    10    35    1
    18    11     5   ar
    19    11    36    1
    20    12    13    2
    21    13    14    1
    22    14    15    1
    23    14    22   am
    24    15    16    1
    25    15    37    1
    26    15    38    1
    27    16    17   ar
    28    17    18   ar
    29    17    39    1
    30    18    19   ar
    31    18    40    1
    32    19    20   ar
    33    19    41    1
    34    20    21   ar
    35    20    42    1
    36    21    16   ar
    37    21    43    1
    38    22    23    2
    39    22    24    1
    40    24    25   ar
    41    25    26   ar
    42    25    44    1
    43    26    27   ar
    44    26    45    1
    45    27    28   ar
    46    27    46    1
    47    28    29   ar
    48    28    47    1
    49    29    12    1
    50    29    24   ar
@<TRIPOS>MOLECULE
*****
 47 50 0 0 0
SMALL
GASTEIGER

@<TRIPOS>ATOM
      1 O           2.1714   -0.4227   -1.4952 O.2     1  UNL11      -0.2683
      2 C           1.2926    0.0449   -0.7572 C.2     1  UNL11       0.2690
      3 N           1.3857    1.4371   -0.3480 N.am    1  UNL11      -0.3058
      4 C           0.3604    1.9543    0.5226 C.3     1  UNL11       0.0372
      5 C           0.0907    3.3868    0.3398 C.ar    1  UNL11      -0.0301
      6 C          -0.8497    4.0409    1.1023 C.ar    1  UNL11      -0.0544
      7 C          -1.0938    5.4019    0.9162 C.ar    1  UNL11      -0.0261
      8 C          -0.3641    6.0733   -0.0556 C.ar    1  UNL11       0.1234
      9 F          -0.6018    7.4095   -0.2401 F       1  UNL11      -0.2055
     10 C           0.5793    5.4478   -0.8306 C.ar    1  UNL11      -0.0261
     11 C           0.7832    4.0866   -0.6027 C.ar    1  UNL11      -0.0544
     12 C           0.1706   -0.7079   -0.2703 C.2     1  UNL11       0.1989
     13 N          -0.7446   -0.0749    0.5291 N.2     1  UNL11       0.0044
     14 N          -1.8101   -0.6478    1.0388 N.am    1  UNL11      -0.0153
     15 C          -2.7230    0.1308    1.8777 C.3     1  UNL11       0.1985
     16 C          -4.1155   -0.3441    1.7805 C.ar    1  UNL11       0.0189
     17 C          -5.1515    0.4727    1.3375 C.ar    1  UNL11      -0.0525
     18 C          -6.4420    0.0008    1.2582 C.ar    1  UNL11      -0.0613
     19 C          -6.7607   -1.2929    1.6120 C.ar    1  UNL11      -0.0617
     20 C          -5.7369   -2.1047    2.0514 C.ar    1  UNL11      -0.0613
     21 C          -4.4239   -1.6392    2.1367 C.ar    1  UNL11      -0.0525
     22 C          -2.0048   -1.9396    0.7509 C.2     1  UNL11       0.4405
     23 O          -3.0043   -2.5292    1.2125 O.2     1  UNL11      -0.2116
     24 C          -1.1308   -2.6617   -0.0499 C.ar    1  UNL11       0.1010
     25 C          -1.3265   -3.9837   -0.3420 C.ar    1  UNL11      -0.0441
     26 C          -0.4561   -4.7029   -1.1342 C.ar    1  UNL11      -0.0608
     27 C           0.6603   -4.1070   -1.6690 C.ar    1  UNL11      -0.0611
     28 C           0.8600   -2.7523   -1.3694 C.ar    1  UNL11      -0.0513
     29 C          -0.0103   -2.0338   -0.5778 C.ar    1  UNL11       0.0282
     30 H           2.1717    2.0289   -0.6815 H       1  UNL11       0.1494
     31 H           0.7025    1.8190    1.5833 H       1  UNL11       0.0512
     32 H          -0.5414    1.3087    0.4064 H       1  UNL11       0.0512
     33 H          -1.4257    3.5323    1.8625 H       1  UNL11       0.0622
     34 H          -1.8229    5.9503    1.4941 H       1  UNL11       0.0646
     35 H           1.1159    6.0085   -1.5670 H       1  UNL11       0.0646
     36 H           1.5346    3.6120   -1.2274 H       1  UNL11       0.0622
     37 H          -2.7161    1.2076    1.5791 H       1  UNL11       0.1103
     38 H          -2.4203    0.0993    2.9394 H       1  UNL11       0.1103
     39 H          -4.8816    1.4751    1.0674 H       1  UNL11       0.0622
     40 H          -7.2341    0.6436    0.9137 H       1  UNL11       0.0618
     41 H          -7.8007   -1.6405    1.5380 H       1  UNL11       0.0618
     42 H          -5.9356   -3.1230    2.3393 H       1  UNL11       0.0618
     43 H          -3.6485   -2.3173    2.4909 H       1  UNL11       0.0622
     44 H          -2.2149   -4.4676    0.0804 H       1  UNL11       0.0627
     45 H          -0.6081   -5.7572   -1.3700 H       1  UNL11       0.0618
     46 H           1.3791   -4.6089   -2.2941 H       1  UNL11       0.0618
     47 H           1.7200   -2.2934   -1.7759 H       1  UNL11       0.0624
@<TRIPOS>BOND
     1     1     2    2
     2     2     3   am
     3     2    12    1
     4     3     4    1
     5     3    30    1
     6     4     5    1
     7     4    31    1
     8     4    32    1
     9     5     6   ar
    10     6     7   ar
    11     6    33    1
    12     7     8   ar
    13     7    34    1
    14     8     9    1
    15     8    10   ar
    16    10    11   ar
    17    10    35    1
    18    11     5   ar
    19    11    36    1
    20    12    13    2
    21    13    14    1
    22    14    15    1
    23    14    22   am
    24    15    16    1
    25    15    37    1
    26    15    38    1
    27    16    17   ar
    28    17    18   ar
    29    17    39    1
    30    18    19   ar
    31    18    40    1
    32    19    20   ar
    33    19    41    1
    34    20    21   ar
    35    20    42    1
    36    21    16   ar
    37    21    43    1
    38    22    23    2
    39    22    24    1
    40    24    25   ar
    41    25    26   ar
    42    25    44    1
    43    26    27   ar
    44    26    45    1
    45    27    28   ar
    46    27    46    1
    47    28    29   ar
    48    28    47    1
    49    29    12    1
    50    29    24   ar
@<TRIPOS>MOLECULE
*****
 47 50 0 0 0
SMALL
GASTEIGER

@<TRIPOS>ATOM
      1 O           1.2653    1.2646   -0.9745 O.2     1  UNL11      -0.2683
      2 C           1.2926    0.0449   -0.7572 C.2     1  UNL11       0.2690
      3 N           2.5252   -0.6858   -1.0046 N.am    1  UNL11      -0.3058
      4 C           2.5283   -2.1059   -0.7590 C.3     1  UNL11       0.0372
      5 C           2.2036   -2.4714    0.6264 C.ar    1  UNL11      -0.0301
      6 C           0.9059   -2.7075    1.0186 C.ar    1  UNL11      -0.0544
      7 C           0.6144   -3.0538    2.3383 C.ar    1  UNL11      -0.0261
      8 C           1.6661   -3.1526    3.2392 C.ar    1  UNL11       0.1234
      9 F           1.3824   -3.4926    4.5354 F       1  UNL11      -0.2055
     10 C           2.9692   -2.9229    2.8772 C.ar    1  UNL11      -0.0261
     11 C           3.2041   -2.5800    1.5454 C.ar    1  UNL11      -0.0544
     12 C           0.1706   -0.7079   -0.2703 C.2     1  UNL11       0.1989
     13 N          -0.7446   -0.0749    0.5291 N.2     1  UNL11       0.0044
     14 N          -1.8101   -0.6478    1.0388 N.am    1  UNL11      -0.0153
     15 C          -2.7230    0.1308    1.8777 C.3     1  UNL11       0.1985
     16 C          -3.7945    0.7722    1.0937 C.ar    1  UNL11       0.0189
     17 C          -5.0584    1.0178    1.6218 C.ar    1  UNL11      -0.0525
     18 C          -6.0387    1.6180    0.8648 C.ar    1  UNL11      -0.0613
     19 C          -5.8113    1.9987   -0.4405 C.ar    1  UNL11      -0.0617
     20 C          -4.5604    1.7568   -0.9669 C.ar    1  UNL11      -0.0613
     21 C          -3.5571    1.1491   -0.2105 C.ar    1  UNL11      -0.0525
     22 C          -2.0048   -1.9396    0.7509 C.2     1  UNL11       0.4405
     23 O          -3.0043   -2.5292    1.2125 O.2     1  UNL11      -0.2116
     24 C          -1.1308   -2.6617   -0.0499 C.ar    1  UNL11       0.1010
     25 C          -1.3265   -3.9837   -0.3420 C.ar    1  UNL11      -0.0441
     26 C          -0.4561   -4.7029   -1.1342 C.ar    1  UNL11      -0.0608
     27 C           0.6603   -4.1070   -1.6690 C.ar    1  UNL11      -0.0611
     28 C           0.8600   -2.7523   -1.3694 C.ar    1  UNL11      -0.0513
     29 C          -0.0103   -2.0338   -0.5778 C.ar    1  UNL11       0.0282
     30 H           3.3696   -0.1866   -1.3465 H       1  UNL11       0.1494
     31 H           3.5616   -2.4932   -0.9655 H       1  UNL11       0.0512
     32 H           1.8645   -2.5833   -1.5173 H       1  UNL11       0.0512
     33 H           0.0766   -2.6346    0.3293 H       1  UNL11       0.0622
     34 H          -0.3901   -3.2467    2.6847 H       1  UNL11       0.0646
     35 H           3.7452   -3.0115    3.6083 H       1  UNL11       0.0646
     36 H           4.2428   -2.4029    1.2810 H       1  UNL11       0.0622
     37 H          -2.1736    0.9407    2.4171 H       1  UNL11       0.1103
     38 H          -3.1924   -0.4988    2.6543 H       1  UNL11       0.1103
     39 H          -5.2138    0.7139    2.6387 H       1  UNL11       0.0622
     40 H          -7.0124    1.8022    1.2859 H       1  UNL11       0.0618
     41 H          -6.6143    2.4757   -1.0197 H       1  UNL11       0.0618
     42 H          -4.3341    2.0359   -1.9819 H       1  UNL11       0.0618
     43 H          -2.5846    0.9771   -0.6699 H       1  UNL11       0.0622
     44 H          -2.2149   -4.4676    0.0804 H       1  UNL11       0.0627
     45 H          -0.6081   -5.7572   -1.3700 H       1  UNL11       0.0618
     46 H           1.3791   -4.6089   -2.2941 H       1  UNL11       0.0618
     47 H           1.7200   -2.2934   -1.7759 H       1  UNL11       0.0624
@<TRIPOS>BOND
     1     1     2    2
     2     2     3   am
     3     2    12    1
     4     3     4    1
     5     3    30    1
     6     4     5    1
     7     4    31    1
     8     4    32    1
     9     5     6   ar
    10     6     7   ar
    11     6    33    1
    12     7     8   ar
    13     7    34    1
    14     8     9    1
    15     8    10   ar
    16    10    11   ar
    17    10    35    1
    18    11     5   ar
    19    11    36    1
    20    12    13    2
    21    13    14    1
    22    14    15    1
    23    14    22   am
    24    15    16    1
    25    15    37    1
    26    15    38    1
    27    16    17   ar
    28    17    18   ar
    29    17    39    1
    30    18    19   ar
    31    18    40    1
    32    19    20   ar
    33    19    41    1
    34    20    21   ar
    35    20    42    1
    36    21    16   ar
    37    21    43    1
    38    22    23    2
    39    22    24    1
    40    24    25   ar
    41    25    26   ar
    42    25    44    1
    43    26    27   ar
    44    26    45    1
    45    27    28   ar
    46    27    46    1
    47    28    29   ar
    48    28    47    1
    49    29    12    1
    50    29    24   ar
@<TRIPOS>MOLECULE
*****
 47 50 0 0 0
SMALL
GASTEIGER

@<TRIPOS>ATOM
      1 O           1.4878    1.2409   -0.4984 O.2     1  UNL11      -0.2683
      2 C           1.2926    0.0449   -0.7572 C.2     1  UNL11       0.2690
      3 N           2.2450   -0.6557   -1.6036 N.am    1  UNL11      -0.3058
      4 C           1.9889   -2.0419   -1.9032 C.3     1  UNL11       0.0372
      5 C           0.7248   -2.2737   -2.6150 C.ar    1  UNL11      -0.0301
      6 C          -0.1108   -1.2320   -2.9469 C.ar    1  UNL11      -0.0544
      7 C          -1.3079   -1.4691   -3.6231 C.ar    1  UNL11      -0.0261
      8 C          -1.6296   -2.7798   -3.9494 C.ar    1  UNL11       0.1234
      9 F          -2.8042   -3.0151   -4.6135 F       1  UNL11      -0.2055
     10 C          -0.8166   -3.8380   -3.6315 C.ar    1  UNL11      -0.0261
     11 C           0.3680   -3.5442   -2.9556 C.ar    1  UNL11      -0.0544
     12 C           0.1706   -0.7079   -0.2703 C.2     1  UNL11       0.1989
     13 N          -0.7446   -0.0749    0.5291 N.2     1  UNL11       0.0044
     14 N          -1.8101   -0.6478    1.0388 N.am    1  UNL11      -0.0153
     15 C          -2.7230    0.1308    1.8777 C.3     1  UNL11       0.1985
     16 C          -2.7415    1.5585    1.5099 C.ar    1  UNL11       0.0189
     17 C          -3.5265    2.4905    2.1821 C.ar    1  UNL11      -0.0525
     18 C          -3.5229    3.8170    1.8150 C.ar    1  UNL11      -0.0613
     19 C          -2.7465    4.2754    0.7722 C.ar    1  UNL11      -0.0617
     20 C          -1.9678    3.3549    0.1040 C.ar    1  UNL11      -0.0613
     21 C          -1.9616    2.0070    0.4658 C.ar    1  UNL11      -0.0525
     22 C          -2.0048   -1.9396    0.7509 C.2     1  UNL11       0.4405
     23 O          -3.0043   -2.5292    1.2125 O.2     1  UNL11      -0.2116
     24 C          -1.1308   -2.6617   -0.0499 C.ar    1  UNL11       0.1010
     25 C          -1.3265   -3.9837   -0.3420 C.ar    1  UNL11      -0.0441
     26 C          -0.4561   -4.7029   -1.1342 C.ar    1  UNL11      -0.0608
     27 C           0.6603   -4.1070   -1.6690 C.ar    1  UNL11      -0.0611
     28 C           0.8600   -2.7523   -1.3694 C.ar    1  UNL11      -0.0513
     29 C          -0.0103   -2.0338   -0.5778 C.ar    1  UNL11       0.0282
     30 H           3.0800   -0.1602   -1.9728 H       1  UNL11       0.1494
     31 H           1.9249   -2.6024   -0.9325 H       1  UNL11       0.0512
     32 H           2.8834   -2.4461   -2.4324 H       1  UNL11       0.0512
     33 H           0.1256   -0.2066   -2.6999 H       1  UNL11       0.0622
     34 H          -1.9897   -0.6792   -3.9010 H       1  UNL11       0.0646
     35 H          -1.1083   -4.8304   -3.9046 H       1  UNL11       0.0646
     36 H           0.9962   -4.3970   -2.7141 H       1  UNL11       0.0622
     37 H          -2.4261    0.0671    2.9531 H       1  UNL11       0.1103
     38 H          -3.7558   -0.2556    1.8155 H       1  UNL11       0.1103
     39 H          -4.1225    2.1126    2.9898 H       1  UNL11       0.0622
     40 H          -4.1351    4.5276    2.3438 H       1  UNL11       0.0618
     41 H          -2.7653    5.3407    0.5025 H       1  UNL11       0.0618
     42 H          -1.3442    3.6643   -0.7175 H       1  UNL11       0.0618
     43 H          -1.3309    1.3164   -0.0926 H       1  UNL11       0.0622
     44 H          -2.2149   -4.4676    0.0804 H       1  UNL11       0.0627
     45 H          -0.6081   -5.7572   -1.3700 H       1  UNL11       0.0618
     46 H           1.3791   -4.6089   -2.2941 H       1  UNL11       0.0618
     47 H           1.7200   -2.2934   -1.7759 H       1  UNL11       0.0624
@<TRIPOS>BOND
     1     1     2    2
     2     2     3   am
     3     2    12    1
     4     3     4    1
     5     3    30    1
     6     4     5    1
     7     4    31    1
     8     4    32    1
     9     5     6   ar
    10     6     7   ar
    11     6    33    1
    12     7     8   ar
    13     7    34    1
    14     8     9    1
    15     8    10   ar
    16    10    11   ar
    17    10    35    1
    18    11     5   ar
    19    11    36    1
    20    12    13    2
    21    13    14    1
    22    14    15    1
    23    14    22   am
    24    15    16    1
    25    15    37    1
    26    15    38    1
    27    16    17   ar
    28    17    18   ar
    29    17    39    1
    30    18    19   ar
    31    18    40    1
    32    19    20   ar
    33    19    41    1
    34    20    21   ar
    35    20    42    1
    36    21    16   ar
    37    21    43    1
    38    22    23    2
    39    22    24    1
    40    24    25   ar
    41    25    26   ar
    42    25    44    1
    43    26    27   ar
    44    26    45    1
    45    27    28   ar
    46    27    46    1
    47    28    29   ar
    48    28    47    1
    49    29    12    1
    50    29    24   ar
@<TRIPOS>MOLECULE
*****
 47 50 0 0 0
SMALL
GASTEIGER

@<TRIPOS>ATOM
      1 O           2.4042   -0.4474   -0.9969 O.2     1  UNL11      -0.2683
      2 C           1.2926    0.0449   -0.7572 C.2     1  UNL11       0.2690
      3 N           1.0926    1.4686   -0.9749 N.am    1  UNL11      -0.3058
      4 C          -0.2041    2.0212   -0.6747 C.3     1  UNL11       0.0372
      5 C          -0.3401    2.5053    0.7057 C.ar    1  UNL11      -0.0301
      6 C          -1.1735    3.5551    1.0170 C.ar    1  UNL11      -0.0544
      7 C          -1.2914    4.0027    2.3331 C.ar    1  UNL11      -0.0261
      8 C          -0.5471    3.3615    3.3142 C.ar    1  UNL11       0.1234
      9 F          -0.6612    3.7990    4.6071 F       1  UNL11      -0.2055
     10 C           0.2917    2.3129    3.0338 C.ar    1  UNL11      -0.0261
     11 C           0.3715    1.9060    1.7017 C.ar    1  UNL11      -0.0544
     12 C           0.1706   -0.7079   -0.2703 C.2     1  UNL11       0.1989
     13 N          -0.7446   -0.0749    0.5291 N.2     1  UNL11       0.0044
     14 N          -1.8101   -0.6478    1.0388 N.am    1  UNL11      -0.0153
     15 C          -2.7230    0.1308    1.8777 C.3     1  UNL11       0.1985
     16 C          -2.0525    0.6894    3.0662 C.ar    1  UNL11       0.0189
     17 C          -0.9843    1.5762    2.9704 C.ar    1  UNL11      -0.0525
     18 C          -0.3782    2.0805    4.0986 C.ar    1  UNL11      -0.0613
     19 C          -0.8011    1.7305    5.3631 C.ar    1  UNL11      -0.0617
     20 C          -1.8590    0.8521    5.4616 C.ar    1  UNL11      -0.0613
     21 C          -2.4829    0.3333    4.3261 C.ar    1  UNL11      -0.0525
     22 C          -2.0048   -1.9396    0.7509 C.2     1  UNL11       0.4405
     23 O          -3.0043   -2.5292    1.2125 O.2     1  UNL11      -0.2116
     24 C          -1.1308   -2.6617   -0.0499 C.ar    1  UNL11       0.1010
     25 C          -1.3265   -3.9837   -0.3420 C.ar    1  UNL11      -0.0441
     26 C          -0.4561   -4.7029   -1.1342 C.ar    1  UNL11      -0.0608
     27 C           0.6603   -4.1070   -1.6690 C.ar    1  UNL11      -0.0611
     28 C           0.8600   -2.7523   -1.3694 C.ar    1  UNL11      -0.0513
     29 C          -0.0103   -2.0338   -0.5778 C.ar    1  UNL11       0.0282
     30 H           1.8687    2.0565   -1.3369 H       1  UNL11       0.1494
     31 H          -0.9691    1.2114   -0.8138 H       1  UNL11       0.0512
     32 H          -0.4312    2.7936   -1.4463 H       1  UNL11       0.0512
     33 H          -1.7592    4.0644    0.2647 H       1  UNL11       0.0622
     34 H          -1.9341    4.8227    2.6173 H       1  UNL11       0.0646
     35 H           0.8446    1.8511    3.8248 H       1  UNL11       0.0646
     36 H           1.0413    1.0742    1.5028 H       1  UNL11       0.0622
     37 H          -3.5689   -0.5036    2.2391 H       1  UNL11       0.1103
     38 H          -3.1770    0.9644    1.3131 H       1  UNL11       0.1103
     39 H          -0.6715    1.8350    1.9776 H       1  UNL11       0.0622
     40 H           0.4474    2.7659    4.0101 H       1  UNL11       0.0618
     41 H          -0.2967    2.1498    6.2449 H       1  UNL11       0.0618
     42 H          -2.2257    0.5484    6.4274 H       1  UNL11       0.0618
     43 H          -3.3143   -0.3588    4.4538 H       1  UNL11       0.0622
     44 H          -2.2149   -4.4676    0.0804 H       1  UNL11       0.0627
     45 H          -0.6081   -5.7572   -1.3700 H       1  UNL11       0.0618
     46 H           1.3791   -4.6089   -2.2941 H       1  UNL11       0.0618
     47 H           1.7200   -2.2934   -1.7759 H       1  UNL11       0.0624
@<TRIPOS>BOND
     1     1     2    2
     2     2     3   am
     3     2    12    1
     4     3     4    1
     5     3    30    1
     6     4     5    1
     7     4    31    1
     8     4    32    1
     9     5     6   ar
    10     6     7   ar
    11     6    33    1
    12     7     8   ar
    13     7    34    1
    14     8     9    1
    15     8    10   ar
    16    10    11   ar
    17    10    35    1
    18    11     5   ar
    19    11    36    1
    20    12    13    2
    21    13    14    1
    22    14    15    1
    23    14    22   am
    24    15    16    1
    25    15    37    1
    26    15    38    1
    27    16    17   ar
    28    17    18   ar
    29    17    39    1
    30    18    19   ar
    31    18    40    1
    32    19    20   ar
    33    19    41    1
    34    20    21   ar
    35    20    42    1
    36    21    16   ar
    37    21    43    1
    38    22    23    2
    39    22    24    1
    40    24    25   ar
    41    25    26   ar
    42    25    44    1
    43    26    27   ar
    44    26    45    1
    45    27    28   ar
    46    27    46    1
    47    28    29   ar
    48    28    47    1
    49    29    12    1
    50    29    24   ar
@<TRIPOS>MOLECULE
*****
 47 50 0 0 0
SMALL
GASTEIGER

@<TRIPOS>ATOM
      1 O           2.4042   -0.4474   -0.9969 O.2     1  UNL11      -0.2683
      2 C           1.2926    0.0449   -0.7572 C.2     1  UNL11       0.2690
      3 N           1.0926    1.4686   -0.9749 N.am    1  UNL11      -0.3058
      4 C          -0.2041    2.0212   -0.6747 C.3     1  UNL11       0.0372
      5 C          -1.3015    1.4156   -1.4410 C.ar    1  UNL11      -0.0301
      6 C          -2.5725    1.3254   -0.9214 C.ar    1  UNL11      -0.0544
      7 C          -3.6037    0.7474   -1.6623 C.ar    1  UNL11      -0.0261
      8 C          -3.3115    0.2683   -2.9322 C.ar    1  UNL11       0.1234
      9 F          -4.3223   -0.2995   -3.6617 F       1  UNL11      -0.2055
     10 C          -2.0544    0.3443   -3.4761 C.ar    1  UNL11      -0.0261
     11 C          -1.0610    0.9317   -2.6923 C.ar    1  UNL11      -0.0544
     12 C           0.1706   -0.7079   -0.2703 C.2     1  UNL11       0.1989
     13 N          -0.7446   -0.0749    0.5291 N.2     1  UNL11       0.0044
     14 N          -1.8101   -0.6478    1.0388 N.am    1  UNL11      -0.0153
     15 C          -2.7230    0.1308    1.8777 C.3     1  UNL11       0.1985
     16 C          -2.3597    0.0715    3.3055 C.ar    1  UNL11       0.0189
     17 C          -3.2242   -0.4308    4.2735 C.ar    1  UNL11      -0.0525
     18 C          -2.8567   -0.4727    5.5992 C.ar    1  UNL11      -0.0613
     19 C          -1.6244   -0.0215    6.0214 C.ar    1  UNL11      -0.0617
     20 C          -0.7656    0.4769    5.0652 C.ar    1  UNL11      -0.0613
     21 C          -1.1252    0.5251    3.7175 C.ar    1  UNL11      -0.0525
     22 C          -2.0048   -1.9396    0.7509 C.2     1  UNL11       0.4405
     23 O          -3.0043   -2.5292    1.2125 O.2     1  UNL11      -0.2116
     24 C          -1.1308   -2.6617   -0.0499 C.ar    1  UNL11       0.1010
     25 C          -1.3265   -3.9837   -0.3420 C.ar    1  UNL11      -0.0441
     26 C          -0.4561   -4.7029   -1.1342 C.ar    1  UNL11      -0.0608
     27 C           0.6603   -4.1070   -1.6690 C.ar    1  UNL11      -0.0611
     28 C           0.8600   -2.7523   -1.3694 C.ar    1  UNL11      -0.0513
     29 C          -0.0103   -2.0338   -0.5778 C.ar    1  UNL11       0.0282
     30 H           1.8687    2.0565   -1.3369 H       1  UNL11       0.1494
     31 H          -0.1869    3.1130   -0.9358 H       1  UNL11       0.0512
     32 H          -0.3468    1.9722    0.4302 H       1  UNL11       0.0512
     33 H          -2.8157    1.6936    0.0653 H       1  UNL11       0.0622
     34 H          -4.6134    0.6582   -1.2898 H       1  UNL11       0.0646
     35 H          -1.8789   -0.0393   -4.4593 H       1  UNL11       0.0646
     36 H          -0.0737    0.9814   -3.1427 H       1  UNL11       0.0622
     37 H          -3.7699   -0.2485    1.7838 H       1  UNL11       0.1103
     38 H          -2.7465    1.1915    1.5707 H       1  UNL11       0.1103
     39 H          -4.1773   -0.7764    3.9234 H       1  UNL11       0.0622
     40 H          -3.5353   -0.8639    6.3379 H       1  UNL11       0.0618
     41 H          -1.3599   -0.0677    7.0872 H       1  UNL11       0.0618
     42 H           0.2081    0.8413    5.3455 H       1  UNL11       0.0618
     43 H          -0.4137    0.9288    2.9984 H       1  UNL11       0.0622
     44 H          -2.2149   -4.4676    0.0804 H       1  UNL11       0.0627
     45 H          -0.6081   -5.7572   -1.3700 H       1  UNL11       0.0618
     46 H           1.3791   -4.6089   -2.2941 H       1  UNL11       0.0618
     47 H           1.7200   -2.2934   -1.7759 H       1  UNL11       0.0624
@<TRIPOS>BOND
     1     1     2    2
     2     2     3   am
     3     2    12    1
     4     3     4    1
     5     3    30    1
     6     4     5    1
     7     4    31    1
     8     4    32    1
     9     5     6   ar
    10     6     7   ar
    11     6    33    1
    12     7     8   ar
    13     7    34    1
    14     8     9    1
    15     8    10   ar
    16    10    11   ar
    17    10    35    1
    18    11     5   ar
    19    11    36    1
    20    12    13    2
    21    13    14    1
    22    14    15    1
    23    14    22   am
    24    15    16    1
    25    15    37    1
    26    15    38    1
    27    16    17   ar
    28    17    18   ar
    29    17    39    1
    30    18    19   ar
    31    18    40    1
    32    19    20   ar
    33    19    41    1
    34    20    21   ar
    35    20    42    1
    36    21    16   ar
    37    21    43    1
    38    22    23    2
    39    22    24    1
    40    24    25   ar
    41    25    26   ar
    42    25    44    1
    43    26    27   ar
    44    26    45    1
    45    27    28   ar
    46    27    46    1
    47    28    29   ar
    48    28    47    1
    49    29    12    1
    50    29    24   ar
@<TRIPOS>MOLECULE
*****
 47 50 0 0 0
SMALL
GASTEIGER

@<TRIPOS>ATOM
      1 O           1.2653    1.2646   -0.9745 O.2     1  UNL11      -0.2683
      2 C           1.2926    0.0449   -0.7572 C.2     1  UNL11       0.2690
      3 N           2.5252   -0.6858   -1.0046 N.am    1  UNL11      -0.3058
      4 C           3.6610    0.0537   -1.4944 C.3     1  UNL11       0.0372
      5 C           4.9565   -0.4963   -1.0731 C.ar    1  UNL11      -0.0301
      6 C           5.3388   -1.7721   -1.4193 C.ar    1  UNL11      -0.0544
      7 C           6.5726   -2.2795   -1.0112 C.ar    1  UNL11      -0.0261
      8 C           7.3989   -1.4640   -0.2496 C.ar    1  UNL11       0.1234
      9 F           8.6109   -1.9599    0.1521 F       1  UNL11      -0.2055
     10 C           7.0446   -0.1887    0.1106 C.ar    1  UNL11      -0.0261
     11 C           5.8002    0.2683   -0.3242 C.ar    1  UNL11      -0.0544
     12 C           0.1706   -0.7079   -0.2703 C.2     1  UNL11       0.1989
     13 N          -0.7446   -0.0749    0.5291 N.2     1  UNL11       0.0044
     14 N          -1.8101   -0.6478    1.0388 N.am    1  UNL11      -0.0153
     15 C          -2.7230    0.1308    1.8777 C.3     1  UNL11       0.1985
     16 C          -4.0880    0.1817    1.3224 C.ar    1  UNL11       0.0189
     17 C          -5.1923   -0.3053    2.0153 C.ar    1  UNL11      -0.0525
     18 C          -6.4546   -0.2443    1.4702 C.ar    1  UNL11      -0.0613
     19 C          -6.6769    0.2984    0.2226 C.ar    1  UNL11      -0.0617
     20 C          -5.5852    0.7816   -0.4666 C.ar    1  UNL11      -0.0613
     21 C          -4.2997    0.7262    0.0742 C.ar    1  UNL11      -0.0525
     22 C          -2.0048   -1.9396    0.7509 C.2     1  UNL11       0.4405
     23 O          -3.0043   -2.5292    1.2125 O.2     1  UNL11      -0.2116
     24 C          -1.1308   -2.6617   -0.0499 C.ar    1  UNL11       0.1010
     25 C          -1.3265   -3.9837   -0.3420 C.ar    1  UNL11      -0.0441
     26 C          -0.4561   -4.7029   -1.1342 C.ar    1  UNL11      -0.0608
     27 C           0.6603   -4.1070   -1.6690 C.ar    1  UNL11      -0.0611
     28 C           0.8600   -2.7523   -1.3694 C.ar    1  UNL11      -0.0513
     29 C          -0.0103   -2.0338   -0.5778 C.ar    1  UNL11       0.0282
     30 H           2.5708   -1.7088   -0.8302 H       1  UNL11       0.1494
     31 H           3.6005    1.0974   -1.0852 H       1  UNL11       0.0512
     32 H           3.5520    0.1509   -2.6000 H       1  UNL11       0.0512
     33 H           4.7069   -2.4189   -2.0114 H       1  UNL11       0.0622
     34 H           6.9084   -3.2747   -1.2623 H       1  UNL11       0.0646
     35 H           7.7160    0.4011    0.6987 H       1  UNL11       0.0646
     36 H           5.5405    1.2806   -0.0276 H       1  UNL11       0.0622
     37 H          -2.3656    1.1844    1.9819 H       1  UNL11       0.1103
     38 H          -2.7811   -0.2818    2.9005 H       1  UNL11       0.1103
     39 H          -4.9969   -0.7230    2.9837 H       1  UNL11       0.0622
     40 H          -7.3004   -0.6247    2.0172 H       1  UNL11       0.0618
     41 H          -7.6966    0.3328   -0.1860 H       1  UNL11       0.0618
     42 H          -5.7076    1.2148   -1.4447 H       1  UNL11       0.0618
     43 H          -3.4676    1.1195   -0.5084 H       1  UNL11       0.0622
     44 H          -2.2149   -4.4676    0.0804 H       1  UNL11       0.0627
     45 H          -0.6081   -5.7572   -1.3700 H       1  UNL11       0.0618
     46 H           1.3791   -4.6089   -2.2941 H       1  UNL11       0.0618
     47 H           1.7200   -2.2934   -1.7759 H       1  UNL11       0.0624
@<TRIPOS>BOND
     1     1     2    2
     2     2     3   am
     3     2    12    1
     4     3     4    1
     5     3    30    1
     6     4     5    1
     7     4    31    1
     8     4    32    1
     9     5     6   ar
    10     6     7   ar
    11     6    33    1
    12     7     8   ar
    13     7    34    1
    14     8     9    1
    15     8    10   ar
    16    10    11   ar
    17    10    35    1
    18    11     5   ar
    19    11    36    1
    20    12    13    2
    21    13    14    1
    22    14    15    1
    23    14    22   am
    24    15    16    1
    25    15    37    1
    26    15    38    1
    27    16    17   ar
    28    17    18   ar
    29    17    39    1
    30    18    19   ar
    31    18    40    1
    32    19    20   ar
    33    19    41    1
    34    20    21   ar
    35    20    42    1
    36    21    16   ar
    37    21    43    1
    38    22    23    2
    39    22    24    1
    40    24    25   ar
    41    25    26   ar
    42    25    44    1
    43    26    27   ar
    44    26    45    1
    45    27    28   ar
    46    27    46    1
    47    28    29   ar
    48    28    47    1
    49    29    12    1
    50    29    24   ar
@<TRIPOS>MOLECULE
*****
 47 50 0 0 0
SMALL
GASTEIGER

@<TRIPOS>ATOM
      1 O           2.4042   -0.4474   -0.9969 O.2     1  UNL11      -0.2683
      2 C           1.2926    0.0449   -0.7572 C.2     1  UNL11       0.2690
      3 N           1.0926    1.4686   -0.9749 N.am    1  UNL11      -0.3058
      4 C           2.2082    2.2397   -1.4623 C.3     1  UNL11       0.0372
      5 C           2.6198    3.3259   -0.5627 C.ar    1  UNL11      -0.0301
      6 C           3.9286    3.7464   -0.5008 C.ar    1  UNL11      -0.0544
      7 C           4.3031    4.7794    0.3589 C.ar    1  UNL11      -0.0261
      8 C           3.3219    5.3674    1.1459 C.ar    1  UNL11       0.1234
      9 F           3.6870    6.3819    1.9906 F       1  UNL11      -0.2055
     10 C           2.0098    4.9692    1.1056 C.ar    1  UNL11      -0.0261
     11 C           1.6905    3.9323    0.2285 C.ar    1  UNL11      -0.0544
     12 C           0.1706   -0.7079   -0.2703 C.2     1  UNL11       0.1989
     13 N          -0.7446   -0.0749    0.5291 N.2     1  UNL11       0.0044
     14 N          -1.8101   -0.6478    1.0388 N.am    1  UNL11      -0.0153
     15 C          -2.7230    0.1308    1.8777 C.3     1  UNL11       0.1985
     16 C          -3.3119    1.2728    1.1544 C.ar    1  UNL11       0.0189
     17 C          -4.0969    1.1089    0.0170 C.ar    1  UNL11      -0.0525
     18 C          -4.6326    2.1948   -0.6372 C.ar    1  UNL11      -0.0613
     19 C          -4.4153    3.4827   -0.1962 C.ar    1  UNL11      -0.0617
     20 C          -3.6380    3.6488    0.9300 C.ar    1  UNL11      -0.0613
     21 C          -3.0888    2.5565    1.6033 C.ar    1  UNL11      -0.0525
     22 C          -2.0048   -1.9396    0.7509 C.2     1  UNL11       0.4405
     23 O          -3.0043   -2.5292    1.2125 O.2     1  UNL11      -0.2116
     24 C          -1.1308   -2.6617   -0.0499 C.ar    1  UNL11       0.1010
     25 C          -1.3265   -3.9837   -0.3420 C.ar    1  UNL11      -0.0441
     26 C          -0.4561   -4.7029   -1.1342 C.ar    1  UNL11      -0.0608
     27 C           0.6603   -4.1070   -1.6690 C.ar    1  UNL11      -0.0611
     28 C           0.8600   -2.7523   -1.3694 C.ar    1  UNL11      -0.0513
     29 C          -0.0103   -2.0338   -0.5778 C.ar    1  UNL11       0.0282
     30 H           0.1693    1.9030   -0.7799 H       1  UNL11       0.1494
     31 H           1.9055    2.7162   -2.4327 H       1  UNL11       0.0512
     32 H           3.0294    1.5281   -1.7130 H       1  UNL11       0.0512
     33 H           4.7036    3.2989   -1.1069 H       1  UNL11       0.0622
     34 H           5.3189    5.1376    0.4362 H       1  UNL11       0.0646
     35 H           1.2901    5.4535    1.7319 H       1  UNL11       0.0646
     36 H           0.6461    3.6335    0.2130 H       1  UNL11       0.0622
     37 H          -2.1903    0.5403    2.7706 H       1  UNL11       0.1103
     38 H          -3.5466   -0.4948    2.2652 H       1  UNL11       0.1103
     39 H          -4.2532    0.0989   -0.3087 H       1  UNL11       0.0622
     40 H          -5.2383    2.0537   -1.5162 H       1  UNL11       0.0618
     41 H          -4.8565    4.3297   -0.7403 H       1  UNL11       0.0618
     42 H          -3.4396    4.6352    1.3134 H       1  UNL11       0.0618
     43 H          -2.4799    2.7373    2.4882 H       1  UNL11       0.0622
     44 H          -2.2149   -4.4676    0.0804 H       1  UNL11       0.0627
     45 H          -0.6081   -5.7572   -1.3700 H       1  UNL11       0.0618
     46 H           1.3791   -4.6089   -2.2941 H       1  UNL11       0.0618
     47 H           1.7200   -2.2934   -1.7759 H       1  UNL11       0.0624
@<TRIPOS>BOND
     1     1     2    2
     2     2     3   am
     3     2    12    1
     4     3     4    1
     5     3    30    1
     6     4     5    1
     7     4    31    1
     8     4    32    1
     9     5     6   ar
    10     6     7   ar
    11     6    33    1
    12     7     8   ar
    13     7    34    1
    14     8     9    1
    15     8    10   ar
    16    10    11   ar
    17    10    35    1
    18    11     5   ar
    19    11    36    1
    20    12    13    2
    21    13    14    1
    22    14    15    1
    23    14    22   am
    24    15    16    1
    25    15    37    1
    26    15    38    1
    27    16    17   ar
    28    17    18   ar
    29    17    39    1
    30    18    19   ar
    31    18    40    1
    32    19    20   ar
    33    19    41    1
    34    20    21   ar
    35    20    42    1
    36    21    16   ar
    37    21    43    1
    38    22    23    2
    39    22    24    1
    40    24    25   ar
    41    25    26   ar
    42    25    44    1
    43    26    27   ar
    44    26    45    1
    45    27    28   ar
    46    27    46    1
    47    28    29   ar
    48    28    47    1
    49    29    12    1
    50    29    24   ar
@<TRIPOS>MOLECULE
*****
 47 50 0 0 0
SMALL
GASTEIGER

@<TRIPOS>ATOM
      1 O           2.4042   -0.4474   -0.9969 O.2     1  UNL11      -0.2683
      2 C           1.2926    0.0449   -0.7572 C.2     1  UNL11       0.2690
      3 N           1.0926    1.4686   -0.9749 N.am    1  UNL11      -0.3058
      4 C          -0.2041    2.0212   -0.6747 C.3     1  UNL11       0.0372
      5 C          -0.1805    3.0722    0.3516 C.ar    1  UNL11      -0.0301
      6 C          -1.2518    3.2772    1.1906 C.ar    1  UNL11      -0.0544
      7 C          -1.2133    4.2797    2.1601 C.ar    1  UNL11      -0.0261
      8 C          -0.0688    5.0602    2.2531 C.ar    1  UNL11       0.1234
      9 F          -0.0286    6.0449    3.2043 F       1  UNL11      -0.2055
     10 C           1.0141    4.8791    1.4307 C.ar    1  UNL11      -0.0261
     11 C           0.9223    3.8629    0.4792 C.ar    1  UNL11      -0.0544
     12 C           0.1706   -0.7079   -0.2703 C.2     1  UNL11       0.1989
     13 N          -0.7446   -0.0749    0.5291 N.2     1  UNL11       0.0044
     14 N          -1.8101   -0.6478    1.0388 N.am    1  UNL11      -0.0153
     15 C          -2.7230    0.1308    1.8777 C.3     1  UNL11       0.1985
     16 C          -2.3597    0.0715    3.3055 C.ar    1  UNL11       0.0189
     17 C          -3.2242   -0.4308    4.2735 C.ar    1  UNL11      -0.0525
     18 C          -2.8567   -0.4727    5.5992 C.ar    1  UNL11      -0.0613
     19 C          -1.6244   -0.0215    6.0214 C.ar    1  UNL11      -0.0617
     20 C          -0.7656    0.4769    5.0652 C.ar    1  UNL11      -0.0613
     21 C          -1.1252    0.5251    3.7175 C.ar    1  UNL11      -0.0525
     22 C          -2.0048   -1.9396    0.7509 C.2     1  UNL11       0.4405
     23 O          -3.0043   -2.5292    1.2125 O.2     1  UNL11      -0.2116
     24 C          -1.1308   -2.6617   -0.0499 C.ar    1  UNL11       0.1010
     25 C          -1.3265   -3.9837   -0.3420 C.ar    1  UNL11      -0.0441
     26 C          -0.4561   -4.7029   -1.1342 C.ar    1  UNL11      -0.0608
     27 C           0.6603   -4.1070   -1.6690 C.ar    1  UNL11      -0.0611
     28 C           0.8600   -2.7523   -1.3694 C.ar    1  UNL11      -0.0513
     29 C          -0.0103   -2.0338   -0.5778 C.ar    1  UNL11       0.0282
     30 H           1.8687    2.0565   -1.3369 H       1  UNL11       0.1494
     31 H          -0.8529    1.1942   -0.2805 H       1  UNL11       0.0512
     32 H          -0.6675    2.3427   -1.6367 H       1  UNL11       0.0512
     33 H          -2.1495    2.6782    1.1307 H       1  UNL11       0.0622
     34 H          -2.0329    4.4716    2.8367 H       1  UNL11       0.0646
     35 H           1.8736    5.5065    1.5412 H       1  UNL11       0.0646
     36 H           1.7911    3.7373   -0.1608 H       1  UNL11       0.0622
     37 H          -3.7699   -0.2485    1.7838 H       1  UNL11       0.1103
     38 H          -2.7465    1.1915    1.5707 H       1  UNL11       0.1103
     39 H          -4.1773   -0.7764    3.9234 H       1  UNL11       0.0622
     40 H          -3.5353   -0.8639    6.3379 H       1  UNL11       0.0618
     41 H          -1.3599   -0.0677    7.0872 H       1  UNL11       0.0618
     42 H           0.2081    0.8413    5.3455 H       1  UNL11       0.0618
     43 H          -0.4137    0.9288    2.9984 H       1  UNL11       0.0622
     44 H          -2.2149   -4.4676    0.0804 H       1  UNL11       0.0627
     45 H          -0.6081   -5.7572   -1.3700 H       1  UNL11       0.0618
     46 H           1.3791   -4.6089   -2.2941 H       1  UNL11       0.0618
     47 H           1.7200   -2.2934   -1.7759 H       1  UNL11       0.0624
@<TRIPOS>BOND
     1     1     2    2
     2     2     3   am
     3     2    12    1
     4     3     4    1
     5     3    30    1
     6     4     5    1
     7     4    31    1
     8     4    32    1
     9     5     6   ar
    10     6     7   ar
    11     6    33    1
    12     7     8   ar
    13     7    34    1
    14     8     9    1
    15     8    10   ar
    16    10    11   ar
    17    10    35    1
    18    11     5   ar
    19    11    36    1
    20    12    13    2
    21    13    14    1
    22    14    15    1
    23    14    22   am
    24    15    16    1
    25    15    37    1
    26    15    38    1
    27    16    17   ar
    28    17    18   ar
    29    17    39    1
    30    18    19   ar
    31    18    40    1
    32    19    20   ar
    33    19    41    1
    34    20    21   ar
    35    20    42    1
    36    21    16   ar
    37    21    43    1
    38    22    23    2
    39    22    24    1
    40    24    25   ar
    41    25    26   ar
    42    25    44    1
    43    26    27   ar
    44    26    45    1
    45    27    28   ar
    46    27    46    1
    47    28    29   ar
    48    28    47    1
    49    29    12    1
    50    29    24   ar
@<TRIPOS>MOLECULE
*****
 47 50 0 0 0
SMALL
GASTEIGER

@<TRIPOS>ATOM
      1 O           1.8573   -0.1762   -1.8378 O.2     1  UNL11      -0.2683
      2 C           1.2926    0.0449   -0.7572 C.2     1  UNL11       0.2690
      3 N           1.7810    1.1267    0.0828 N.am    1  UNL11      -0.3058
      4 C           1.1179    1.3550    1.3418 C.3     1  UNL11       0.0372
      5 C           1.6711    2.4777    2.1112 C.ar    1  UNL11      -0.0301
      6 C           1.1840    3.7560    1.9624 C.ar    1  UNL11      -0.0544
      7 C           1.7204    4.8112    2.7008 C.ar    1  UNL11      -0.0261
      8 C           2.7545    4.5353    3.5852 C.ar    1  UNL11       0.1234
      9 F           3.2827    5.5696    4.3114 F       1  UNL11      -0.2055
     10 C           3.2604    3.2715    3.7545 C.ar    1  UNL11      -0.0261
     11 C           2.6874    2.2538    2.9914 C.ar    1  UNL11      -0.0544
     12 C           0.1706   -0.7079   -0.2703 C.2     1  UNL11       0.1989
     13 N          -0.7446   -0.0749    0.5291 N.2     1  UNL11       0.0044
     14 N          -1.8101   -0.6478    1.0388 N.am    1  UNL11      -0.0153
     15 C          -2.7230    0.1308    1.8777 C.3     1  UNL11       0.1985
     16 C          -2.8454   -0.4251    3.2379 C.ar    1  UNL11       0.0189
     17 C          -3.1026    0.3734    4.3482 C.ar    1  UNL11      -0.0525
     18 C          -3.2109   -0.1748    5.6060 C.ar    1  UNL11      -0.0613
     19 C          -3.0698   -1.5297    5.8176 C.ar    1  UNL11      -0.0617
     20 C          -2.8147   -2.3237    4.7200 C.ar    1  UNL11      -0.0613
     21 C          -2.7026   -1.7811    3.4390 C.ar    1  UNL11      -0.0525
     22 C          -2.0048   -1.9396    0.7509 C.2     1  UNL11       0.4405
     23 O          -3.0043   -2.5292    1.2125 O.2     1  UNL11      -0.2116
     24 C          -1.1308   -2.6617   -0.0499 C.ar    1  UNL11       0.1010
     25 C          -1.3265   -3.9837   -0.3420 C.ar    1  UNL11      -0.0441
     26 C          -0.4561   -4.7029   -1.1342 C.ar    1  UNL11      -0.0608
     27 C           0.6603   -4.1070   -1.6690 C.ar    1  UNL11      -0.0611
     28 C           0.8600   -2.7523   -1.3694 C.ar    1  UNL11      -0.0513
     29 C          -0.0103   -2.0338   -0.5778 C.ar    1  UNL11       0.0282
     30 H           2.5829    1.7092   -0.2281 H       1  UNL11       0.1494
     31 H           1.2408    0.4346    1.9727 H       1  UNL11       0.0512
     32 H           0.0251    1.4443    1.1390 H       1  UNL11       0.0512
     33 H           0.3797    3.9868    1.2783 H       1  UNL11       0.0622
     34 H           1.3658    5.8274    2.6124 H       1  UNL11       0.0646
     35 H           4.0582    3.1092    4.4486 H       1  UNL11       0.0646
     36 H           3.1033    1.2615    3.1416 H       1  UNL11       0.0622
     37 H          -3.7481    0.1545    1.4335 H       1  UNL11       0.1103
     38 H          -2.3949    1.1820    1.9621 H       1  UNL11       0.1103
     39 H          -3.2089    1.4242    4.1611 H       1  UNL11       0.0622
     40 H          -3.4103    0.4546    6.4565 H       1  UNL11       0.0618
     41 H          -3.1614   -1.9378    6.8340 H       1  UNL11       0.0618
     42 H          -2.6965   -3.3878    4.8341 H       1  UNL11       0.0618
     43 H          -2.4990   -2.4480    2.6023 H       1  UNL11       0.0622
     44 H          -2.2149   -4.4676    0.0804 H       1  UNL11       0.0627
     45 H          -0.6081   -5.7572   -1.3700 H       1  UNL11       0.0618
     46 H           1.3791   -4.6089   -2.2941 H       1  UNL11       0.0618
     47 H           1.7200   -2.2934   -1.7759 H       1  UNL11       0.0624
@<TRIPOS>BOND
     1     1     2    2
     2     2     3   am
     3     2    12    1
     4     3     4    1
     5     3    30    1
     6     4     5    1
     7     4    31    1
     8     4    32    1
     9     5     6   ar
    10     6     7   ar
    11     6    33    1
    12     7     8   ar
    13     7    34    1
    14     8     9    1
    15     8    10   ar
    16    10    11   ar
    17    10    35    1
    18    11     5   ar
    19    11    36    1
    20    12    13    2
    21    13    14    1
    22    14    15    1
    23    14    22   am
    24    15    16    1
    25    15    37    1
    26    15    38    1
    27    16    17   ar
    28    17    18   ar
    29    17    39    1
    30    18    19   ar
    31    18    40    1
    32    19    20   ar
    33    19    41    1
    34    20    21   ar
    35    20    42    1
    36    21    16   ar
    37    21    43    1
    38    22    23    2
    39    22    24    1
    40    24    25   ar
    41    25    26   ar
    42    25    44    1
    43    26    27   ar
    44    26    45    1
    45    27    28   ar
    46    27    46    1
    47    28    29   ar
    48    28    47    1
    49    29    12    1
    50    29    24   ar
@<TRIPOS>MOLECULE
*****
 47 50 0 0 0
SMALL
GASTEIGER

@<TRIPOS>ATOM
      1 O           1.2653    1.2646   -0.9745 O.2     1  UNL11      -0.2683
      2 C           1.2926    0.0449   -0.7572 C.2     1  UNL11       0.2690
      3 N           2.5252   -0.6858   -1.0046 N.am    1  UNL11      -0.3058
      4 C           2.5283   -2.1059   -0.7590 C.3     1  UNL11       0.0372
      5 C           3.5063   -2.5335    0.2505 C.ar    1  UNL11      -0.0301
      6 C           3.1737   -2.6047    1.5838 C.ar    1  UNL11      -0.0544
      7 C           4.1143   -3.0129    2.5299 C.ar    1  UNL11      -0.0261
      8 C           5.3888   -3.3432    2.0892 C.ar    1  UNL11       0.1234
      9 F           6.3139   -3.7444    3.0161 F       1  UNL11      -0.2055
     10 C           5.7490   -3.2817    0.7670 C.ar    1  UNL11      -0.0261
     11 C           4.7698   -2.8674   -0.1363 C.ar    1  UNL11      -0.0544
     12 C           0.1706   -0.7079   -0.2703 C.2     1  UNL11       0.1989
     13 N          -0.7446   -0.0749    0.5291 N.2     1  UNL11       0.0044
     14 N          -1.8101   -0.6478    1.0388 N.am    1  UNL11      -0.0153
     15 C          -2.7230    0.1308    1.8777 C.3     1  UNL11       0.1985
     16 C          -3.3119    1.2728    1.1544 C.ar    1  UNL11       0.0189
     17 C          -4.6848    1.4118    0.9739 C.ar    1  UNL11      -0.0525
     18 C          -5.2048    2.4891    0.2933 C.ar    1  UNL11      -0.0613
     19 C          -4.3927    3.4698   -0.2352 C.ar    1  UNL11      -0.0617
     20 C          -3.0322    3.3351   -0.0584 C.ar    1  UNL11      -0.0613
     21 C          -2.4914    2.2479    0.6297 C.ar    1  UNL11      -0.0525
     22 C          -2.0048   -1.9396    0.7509 C.2     1  UNL11       0.4405
     23 O          -3.0043   -2.5292    1.2125 O.2     1  UNL11      -0.2116
     24 C          -1.1308   -2.6617   -0.0499 C.ar    1  UNL11       0.1010
     25 C          -1.3265   -3.9837   -0.3420 C.ar    1  UNL11      -0.0441
     26 C          -0.4561   -4.7029   -1.1342 C.ar    1  UNL11      -0.0608
     27 C           0.6603   -4.1070   -1.6690 C.ar    1  UNL11      -0.0611
     28 C           0.8600   -2.7523   -1.3694 C.ar    1  UNL11      -0.0513
     29 C          -0.0103   -2.0338   -0.5778 C.ar    1  UNL11       0.0282
     30 H           3.3696   -0.1866   -1.3465 H       1  UNL11       0.1494
     31 H           2.7993   -2.6249   -1.7169 H       1  UNL11       0.0512
     32 H           1.4813   -2.4132   -0.5291 H       1  UNL11       0.0512
     33 H           2.1862   -2.3510    1.9425 H       1  UNL11       0.0622
     34 H           3.8921   -3.0816    3.5845 H       1  UNL11       0.0646
     35 H           6.7441   -3.5465    0.4765 H       1  UNL11       0.0646
     36 H           5.0769   -2.8262   -1.1776 H       1  UNL11       0.0622
     37 H          -2.1903    0.5403    2.7706 H       1  UNL11       0.1103
     38 H          -3.5466   -0.4948    2.2652 H       1  UNL11       0.1103
     39 H          -5.2980    0.6380    1.3929 H       1  UNL11       0.0622
     40 H          -6.2691    2.5845    0.1609 H       1  UNL11       0.0618
     41 H          -4.8378    4.3180   -0.7739 H       1  UNL11       0.0618
     42 H          -2.3566    4.0750   -0.4527 H       1  UNL11       0.0618
     43 H          -1.4100    2.1837    0.7431 H       1  UNL11       0.0622
     44 H          -2.2149   -4.4676    0.0804 H       1  UNL11       0.0627
     45 H          -0.6081   -5.7572   -1.3700 H       1  UNL11       0.0618
     46 H           1.3791   -4.6089   -2.2941 H       1  UNL11       0.0618
     47 H           1.7200   -2.2934   -1.7759 H       1  UNL11       0.0624
@<TRIPOS>BOND
     1     1     2    2
     2     2     3   am
     3     2    12    1
     4     3     4    1
     5     3    30    1
     6     4     5    1
     7     4    31    1
     8     4    32    1
     9     5     6   ar
    10     6     7   ar
    11     6    33    1
    12     7     8   ar
    13     7    34    1
    14     8     9    1
    15     8    10   ar
    16    10    11   ar
    17    10    35    1
    18    11     5   ar
    19    11    36    1
    20    12    13    2
    21    13    14    1
    22    14    15    1
    23    14    22   am
    24    15    16    1
    25    15    37    1
    26    15    38    1
    27    16    17   ar
    28    17    18   ar
    29    17    39    1
    30    18    19   ar
    31    18    40    1
    32    19    20   ar
    33    19    41    1
    34    20    21   ar
    35    20    42    1
    36    21    16   ar
    37    21    43    1
    38    22    23    2
    39    22    24    1
    40    24    25   ar
    41    25    26   ar
    42    25    44    1
    43    26    27   ar
    44    26    45    1
    45    27    28   ar
    46    27    46    1
    47    28    29   ar
    48    28    47    1
    49    29    12    1
    50    29    24   ar
@<TRIPOS>MOLECULE
*****
 47 50 0 0 0
SMALL
GASTEIGER

@<TRIPOS>ATOM
      1 O           1.2653    1.2646   -0.9745 O.2     1  UNL11      -0.2683
      2 C           1.2926    0.0449   -0.7572 C.2     1  UNL11       0.2690
      3 N           2.5252   -0.6858   -1.0046 N.am    1  UNL11      -0.3058
      4 C           3.6610    0.0537   -1.4944 C.3     1  UNL11       0.0372
      5 C           3.4215    0.7344   -2.7742 C.ar    1  UNL11      -0.0301
      6 C           4.1764    0.4489   -3.8887 C.ar    1  UNL11      -0.0544
      7 C           3.9361    1.1043   -5.0966 C.ar    1  UNL11      -0.0261
      8 C           2.9186    2.0478   -5.1410 C.ar    1  UNL11       0.1234
      9 F           2.6806    2.6925   -6.3259 F       1  UNL11      -0.2055
     10 C           2.1500    2.3532   -4.0465 C.ar    1  UNL11      -0.0261
     11 C           2.4329    1.6683   -2.8645 C.ar    1  UNL11      -0.0544
     12 C           0.1706   -0.7079   -0.2703 C.2     1  UNL11       0.1989
     13 N          -0.7446   -0.0749    0.5291 N.2     1  UNL11       0.0044
     14 N          -1.8101   -0.6478    1.0388 N.am    1  UNL11      -0.0153
     15 C          -2.7230    0.1308    1.8777 C.3     1  UNL11       0.1985
     16 C          -2.3597    0.0715    3.3055 C.ar    1  UNL11       0.0189
     17 C          -1.1338    0.5271    3.7814 C.ar    1  UNL11      -0.0525
     18 C          -0.8231    0.4579    5.1204 C.ar    1  UNL11      -0.0613
     19 C          -1.7075   -0.0625    6.0409 C.ar    1  UNL11      -0.0617
     20 C          -2.9227   -0.5149    5.5729 C.ar    1  UNL11      -0.0613
     21 C          -3.2509   -0.4507    4.2179 C.ar    1  UNL11      -0.0525
     22 C          -2.0048   -1.9396    0.7509 C.2     1  UNL11       0.4405
     23 O          -3.0043   -2.5292    1.2125 O.2     1  UNL11      -0.2116
     24 C          -1.1308   -2.6617   -0.0499 C.ar    1  UNL11       0.1010
     25 C          -1.3265   -3.9837   -0.3420 C.ar    1  UNL11      -0.0441
     26 C          -0.4561   -4.7029   -1.1342 C.ar    1  UNL11      -0.0608
     27 C           0.6603   -4.1070   -1.6690 C.ar    1  UNL11      -0.0611
     28 C           0.8600   -2.7523   -1.3694 C.ar    1  UNL11      -0.0513
     29 C          -0.0103   -2.0338   -0.5778 C.ar    1  UNL11       0.0282
     30 H           2.5708   -1.7088   -0.8302 H       1  UNL11       0.1494
     31 H           4.5026   -0.6701   -1.6618 H       1  UNL11       0.0512
     32 H           3.9999    0.7352   -0.6794 H       1  UNL11       0.0512
     33 H           4.9717   -0.2828   -3.8701 H       1  UNL11       0.0622
     34 H           4.5062    0.9082   -5.9926 H       1  UNL11       0.0646
     35 H           1.3772    3.0882   -4.1308 H       1  UNL11       0.0646
     36 H           1.8121    1.9257   -2.0110 H       1  UNL11       0.0622
     37 H          -3.7699   -0.2485    1.7838 H       1  UNL11       0.1103
     38 H          -2.7465    1.1915    1.5707 H       1  UNL11       0.1103
     39 H          -0.4610    0.9280    3.0485 H       1  UNL11       0.0622
     40 H           0.1291    0.8141    5.4751 H       1  UNL11       0.0618
     41 H          -1.4304   -0.1046    7.1036 H       1  UNL11       0.0618
     42 H          -3.6470   -0.9301    6.2529 H       1  UNL11       0.0618
     43 H          -4.2227   -0.8217    3.8949 H       1  UNL11       0.0622
     44 H          -2.2149   -4.4676    0.0804 H       1  UNL11       0.0627
     45 H          -0.6081   -5.7572   -1.3700 H       1  UNL11       0.0618
     46 H           1.3791   -4.6089   -2.2941 H       1  UNL11       0.0618
     47 H           1.7200   -2.2934   -1.7759 H       1  UNL11       0.0624
@<TRIPOS>BOND
     1     1     2    2
     2     2     3   am
     3     2    12    1
     4     3     4    1
     5     3    30    1
     6     4     5    1
     7     4    31    1
     8     4    32    1
     9     5     6   ar
    10     6     7   ar
    11     6    33    1
    12     7     8   ar
    13     7    34    1
    14     8     9    1
    15     8    10   ar
    16    10    11   ar
    17    10    35    1
    18    11     5   ar
    19    11    36    1
    20    12    13    2
    21    13    14    1
    22    14    15    1
    23    14    22   am
    24    15    16    1
    25    15    37    1
    26    15    38    1
    27    16    17   ar
    28    17    18   ar
    29    17    39    1
    30    18    19   ar
    31    18    40    1
    32    19    20   ar
    33    19    41    1
    34    20    21   ar
    35    20    42    1
    36    21    16   ar
    37    21    43    1
    38    22    23    2
    39    22    24    1
    40    24    25   ar
    41    25    26   ar
    42    25    44    1
    43    26    27   ar
    44    26    45    1
    45    27    28   ar
    46    27    46    1
    47    28    29   ar
    48    28    47    1
    49    29    12    1
    50    29    24   ar
@<TRIPOS>MOLECULE
*****
 47 50 0 0 0
SMALL
GASTEIGER

@<TRIPOS>ATOM
      1 O           1.4878    1.2409   -0.4984 O.2     1  UNL11      -0.2683
      2 C           1.2926    0.0449   -0.7572 C.2     1  UNL11       0.2690
      3 N           2.2450   -0.6557   -1.6036 N.am    1  UNL11      -0.3058
      4 C           1.9889   -2.0419   -1.9032 C.3     1  UNL11       0.0372
      5 C           3.0134   -2.6673   -2.7503 C.ar    1  UNL11      -0.0301
      6 C           4.1081   -3.2962   -2.2029 C.ar    1  UNL11      -0.0544
      7 C           5.0721   -3.8854   -3.0214 C.ar    1  UNL11      -0.0261
      8 C           4.8956   -3.8187   -4.3970 C.ar    1  UNL11       0.1234
      9 F           5.8406   -4.3965   -5.2028 F       1  UNL11      -0.2055
     10 C           3.8150   -3.1986   -4.9710 C.ar    1  UNL11      -0.0261
     11 C           2.8817   -2.6263   -4.1062 C.ar    1  UNL11      -0.0544
     12 C           0.1706   -0.7079   -0.2703 C.2     1  UNL11       0.1989
     13 N          -0.7446   -0.0749    0.5291 N.2     1  UNL11       0.0044
     14 N          -1.8101   -0.6478    1.0388 N.am    1  UNL11      -0.0153
     15 C          -2.7230    0.1308    1.8777 C.3     1  UNL11       0.1985
     16 C          -4.1155   -0.3441    1.7805 C.ar    1  UNL11       0.0189
     17 C          -4.4820   -1.4153    0.9713 C.ar    1  UNL11      -0.0525
     18 C          -5.7908   -1.8354    0.9009 C.ar    1  UNL11      -0.0613
     19 C          -6.7877   -1.2164    1.6244 C.ar    1  UNL11      -0.0617
     20 C          -6.4282   -0.1548    2.4270 C.ar    1  UNL11      -0.0613
     21 C          -5.1049    0.2815    2.5079 C.ar    1  UNL11      -0.0525
     22 C          -2.0048   -1.9396    0.7509 C.2     1  UNL11       0.4405
     23 O          -3.0043   -2.5292    1.2125 O.2     1  UNL11      -0.2116
     24 C          -1.1308   -2.6617   -0.0499 C.ar    1  UNL11       0.1010
     25 C          -1.3265   -3.9837   -0.3420 C.ar    1  UNL11      -0.0441
     26 C          -0.4561   -4.7029   -1.1342 C.ar    1  UNL11      -0.0608
     27 C           0.6603   -4.1070   -1.6690 C.ar    1  UNL11      -0.0611
     28 C           0.8600   -2.7523   -1.3694 C.ar    1  UNL11      -0.0513
     29 C          -0.0103   -2.0338   -0.5778 C.ar    1  UNL11       0.0282
     30 H           3.0800   -0.1602   -1.9728 H       1  UNL11       0.1494
     31 H           1.0185   -2.1040   -2.4643 H       1  UNL11       0.0512
     32 H           1.8192   -2.5725   -0.9371 H       1  UNL11       0.0512
     33 H           4.2596   -3.3565   -1.1344 H       1  UNL11       0.0622
     34 H           5.9444   -4.3878   -2.6304 H       1  UNL11       0.0646
     35 H           3.7234   -3.1735   -6.0366 H       1  UNL11       0.0646
     36 H           2.0343   -2.1410   -4.5823 H       1  UNL11       0.0622
     37 H          -2.7161    1.2076    1.5791 H       1  UNL11       0.1103
     38 H          -2.4203    0.0993    2.9394 H       1  UNL11       0.1103
     39 H          -3.6912   -1.8823    0.4172 H       1  UNL11       0.0622
     40 H          -6.0607   -2.6657    0.2707 H       1  UNL11       0.0618
     41 H          -7.8238   -1.5747    1.5470 H       1  UNL11       0.0618
     42 H          -7.1708    0.3612    3.0114 H       1  UNL11       0.0618
     43 H          -4.8690    1.1255    3.1547 H       1  UNL11       0.0622
     44 H          -2.2149   -4.4676    0.0804 H       1  UNL11       0.0627
     45 H          -0.6081   -5.7572   -1.3700 H       1  UNL11       0.0618
     46 H           1.3791   -4.6089   -2.2941 H       1  UNL11       0.0618
     47 H           1.7200   -2.2934   -1.7759 H       1  UNL11       0.0624
@<TRIPOS>BOND
     1     1     2    2
     2     2     3   am
     3     2    12    1
     4     3     4    1
     5     3    30    1
     6     4     5    1
     7     4    31    1
     8     4    32    1
     9     5     6   ar
    10     6     7   ar
    11     6    33    1
    12     7     8   ar
    13     7    34    1
    14     8     9    1
    15     8    10   ar
    16    10    11   ar
    17    10    35    1
    18    11     5   ar
    19    11    36    1
    20    12    13    2
    21    13    14    1
    22    14    15    1
    23    14    22   am
    24    15    16    1
    25    15    37    1
    26    15    38    1
    27    16    17   ar
    28    17    18   ar
    29    17    39    1
    30    18    19   ar
    31    18    40    1
    32    19    20   ar
    33    19    41    1
    34    20    21   ar
    35    20    42    1
    36    21    16   ar
    37    21    43    1
    38    22    23    2
    39    22    24    1
    40    24    25   ar
    41    25    26   ar
    42    25    44    1
    43    26    27   ar
    44    26    45    1
    45    27    28   ar
    46    27    46    1
    47    28    29   ar
    48    28    47    1
    49    29    12    1
    50    29    24   ar
@<TRIPOS>MOLECULE
*****
 47 50 0 0 0
SMALL
GASTEIGER

@<TRIPOS>ATOM
      1 O           1.2653    1.2646   -0.9745 O.2     1  UNL11      -0.2683
      2 C           1.2926    0.0449   -0.7572 C.2     1  UNL11       0.2690
      3 N           2.5252   -0.6858   -1.0046 N.am    1  UNL11      -0.3058
      4 C           2.5283   -2.1059   -0.7590 C.3     1  UNL11       0.0372
      5 C           2.1527   -2.9131   -1.9275 C.ar    1  UNL11      -0.0301
      6 C           2.6572   -4.1797   -2.1143 C.ar    1  UNL11      -0.0544
      7 C           2.2903   -4.9334   -3.2296 C.ar    1  UNL11      -0.0261
      8 C           1.4061   -4.3711   -4.1404 C.ar    1  UNL11       0.1234
      9 F           1.0441   -5.1092   -5.2361 F       1  UNL11      -0.2055
     10 C           0.8871   -3.1114   -3.9806 C.ar    1  UNL11      -0.0261
     11 C           1.2874   -2.4018   -2.8481 C.ar    1  UNL11      -0.0544
     12 C           0.1706   -0.7079   -0.2703 C.2     1  UNL11       0.1989
     13 N          -0.7446   -0.0749    0.5291 N.2     1  UNL11       0.0044
     14 N          -1.8101   -0.6478    1.0388 N.am    1  UNL11      -0.0153
     15 C          -2.7230    0.1308    1.8777 C.3     1  UNL11       0.1985
     16 C          -2.0525    0.6894    3.0662 C.ar    1  UNL11       0.0189
     17 C          -0.9843    1.5762    2.9704 C.ar    1  UNL11      -0.0525
     18 C          -0.3782    2.0805    4.0986 C.ar    1  UNL11      -0.0613
     19 C          -0.8011    1.7305    5.3631 C.ar    1  UNL11      -0.0617
     20 C          -1.8590    0.8521    5.4616 C.ar    1  UNL11      -0.0613
     21 C          -2.4829    0.3333    4.3261 C.ar    1  UNL11      -0.0525
     22 C          -2.0048   -1.9396    0.7509 C.2     1  UNL11       0.4405
     23 O          -3.0043   -2.5292    1.2125 O.2     1  UNL11      -0.2116
     24 C          -1.1308   -2.6617   -0.0499 C.ar    1  UNL11       0.1010
     25 C          -1.3265   -3.9837   -0.3420 C.ar    1  UNL11      -0.0441
     26 C          -0.4561   -4.7029   -1.1342 C.ar    1  UNL11      -0.0608
     27 C           0.6603   -4.1070   -1.6690 C.ar    1  UNL11      -0.0611
     28 C           0.8600   -2.7523   -1.3694 C.ar    1  UNL11      -0.0513
     29 C          -0.0103   -2.0338   -0.5778 C.ar    1  UNL11       0.0282
     30 H           3.3696   -0.1866   -1.3465 H       1  UNL11       0.1494
     31 H           1.7743   -2.3226    0.0439 H       1  UNL11       0.0512
     32 H           3.5212   -2.3739   -0.3279 H       1  UNL11       0.0512
     33 H           3.3463   -4.6310   -1.4145 H       1  UNL11       0.0622
     34 H           2.6642   -5.9300   -3.4114 H       1  UNL11       0.0646
     35 H           0.2088   -2.7217   -4.7105 H       1  UNL11       0.0646
     36 H           0.8641   -1.4070   -2.7418 H       1  UNL11       0.0622
     37 H          -3.5689   -0.5036    2.2391 H       1  UNL11       0.1103
     38 H          -3.1770    0.9644    1.3131 H       1  UNL11       0.1103
     39 H          -0.6715    1.8350    1.9776 H       1  UNL11       0.0622
     40 H           0.4474    2.7659    4.0101 H       1  UNL11       0.0618
     41 H          -0.2967    2.1498    6.2449 H       1  UNL11       0.0618
     42 H          -2.2257    0.5484    6.4274 H       1  UNL11       0.0618
     43 H          -3.3143   -0.3588    4.4538 H       1  UNL11       0.0622
     44 H          -2.2149   -4.4676    0.0804 H       1  UNL11       0.0627
     45 H          -0.6081   -5.7572   -1.3700 H       1  UNL11       0.0618
     46 H           1.3791   -4.6089   -2.2941 H       1  UNL11       0.0618
     47 H           1.7200   -2.2934   -1.7759 H       1  UNL11       0.0624
@<TRIPOS>BOND
     1     1     2    2
     2     2     3   am
     3     2    12    1
     4     3     4    1
     5     3    30    1
     6     4     5    1
     7     4    31    1
     8     4    32    1
     9     5     6   ar
    10     6     7   ar
    11     6    33    1
    12     7     8   ar
    13     7    34    1
    14     8     9    1
    15     8    10   ar
    16    10    11   ar
    17    10    35    1
    18    11     5   ar
    19    11    36    1
    20    12    13    2
    21    13    14    1
    22    14    15    1
    23    14    22   am
    24    15    16    1
    25    15    37    1
    26    15    38    1
    27    16    17   ar
    28    17    18   ar
    29    17    39    1
    30    18    19   ar
    31    18    40    1
    32    19    20   ar
    33    19    41    1
    34    20    21   ar
    35    20    42    1
    36    21    16   ar
    37    21    43    1
    38    22    23    2
    39    22    24    1
    40    24    25   ar
    41    25    26   ar
    42    25    44    1
    43    26    27   ar
    44    26    45    1
    45    27    28   ar
    46    27    46    1
    47    28    29   ar
    48    28    47    1
    49    29    12    1
    50    29    24   ar
@<TRIPOS>MOLECULE
*****
 47 50 0 0 0
SMALL
GASTEIGER

@<TRIPOS>ATOM
      1 O           2.1714   -0.4227   -1.4952 O.2     1  UNL11      -0.2683
      2 C           1.2926    0.0449   -0.7572 C.2     1  UNL11       0.2690
      3 N           1.3857    1.4371   -0.3480 N.am    1  UNL11      -0.3058
      4 C           0.3604    1.9543    0.5226 C.3     1  UNL11       0.0372
      5 C           0.5311    3.3722    0.8672 C.ar    1  UNL11      -0.0301
      6 C           1.5896    4.1044    0.3804 C.ar    1  UNL11      -0.0544
      7 C           1.7373    5.4502    0.7172 C.ar    1  UNL11      -0.0261
      8 C           0.7901    6.0259    1.5533 C.ar    1  UNL11       0.1234
      9 F           0.9328    7.3471    1.8853 F       1  UNL11      -0.2055
     10 C          -0.2751    5.3212    2.0537 C.ar    1  UNL11      -0.0261
     11 C          -0.3745    3.9793    1.6851 C.ar    1  UNL11      -0.0544
     12 C           0.1706   -0.7079   -0.2703 C.2     1  UNL11       0.1989
     13 N          -0.7446   -0.0749    0.5291 N.2     1  UNL11       0.0044
     14 N          -1.8101   -0.6478    1.0388 N.am    1  UNL11      -0.0153
     15 C          -2.7230    0.1308    1.8777 C.3     1  UNL11       0.1985
     16 C          -4.1155   -0.3441    1.7805 C.ar    1  UNL11       0.0189
     17 C          -5.1576    0.2566    2.4805 C.ar    1  UNL11      -0.0525
     18 C          -6.4477   -0.2100    2.3697 C.ar    1  UNL11      -0.0613
     19 C          -6.7600   -1.2854    1.5658 C.ar    1  UNL11      -0.0617
     20 C          -5.7302   -1.8829    0.8711 C.ar    1  UNL11      -0.0613
     21 C          -4.4175   -1.4201    0.9740 C.ar    1  UNL11      -0.0525
     22 C          -2.0048   -1.9396    0.7509 C.2     1  UNL11       0.4405
     23 O          -3.0043   -2.5292    1.2125 O.2     1  UNL11      -0.2116
     24 C          -1.1308   -2.6617   -0.0499 C.ar    1  UNL11       0.1010
     25 C          -1.3265   -3.9837   -0.3420 C.ar    1  UNL11      -0.0441
     26 C          -0.4561   -4.7029   -1.1342 C.ar    1  UNL11      -0.0608
     27 C           0.6603   -4.1070   -1.6690 C.ar    1  UNL11      -0.0611
     28 C           0.8600   -2.7523   -1.3694 C.ar    1  UNL11      -0.0513
     29 C          -0.0103   -2.0338   -0.5778 C.ar    1  UNL11       0.0282
     30 H           2.1717    2.0289   -0.6815 H       1  UNL11       0.1494
     31 H           0.3965    1.3775    1.4851 H       1  UNL11       0.0512
     32 H          -0.6273    1.7196    0.0612 H       1  UNL11       0.0512
     33 H           2.3349    3.6707   -0.2712 H       1  UNL11       0.0622
     34 H           2.5535    6.0580    0.3559 H       1  UNL11       0.0646
     35 H          -0.9788    5.8095    2.6948 H       1  UNL11       0.0646
     36 H          -1.2254    3.4408    2.0927 H       1  UNL11       0.0622
     37 H          -2.7161    1.2076    1.5791 H       1  UNL11       0.1103
     38 H          -2.4203    0.0993    2.9394 H       1  UNL11       0.1103
     39 H          -4.8926    1.0913    3.0997 H       1  UNL11       0.0622
     40 H          -7.2446    0.2642    2.9169 H       1  UNL11       0.0618
     41 H          -7.7998   -1.6350    1.4982 H       1  UNL11       0.0618
     42 H          -5.9237   -2.7262    0.2302 H       1  UNL11       0.0618
     43 H          -3.6367   -1.9253    0.4069 H       1  UNL11       0.0622
     44 H          -2.2149   -4.4676    0.0804 H       1  UNL11       0.0627
     45 H          -0.6081   -5.7572   -1.3700 H       1  UNL11       0.0618
     46 H           1.3791   -4.6089   -2.2941 H       1  UNL11       0.0618
     47 H           1.7200   -2.2934   -1.7759 H       1  UNL11       0.0624
@<TRIPOS>BOND
     1     1     2    2
     2     2     3   am
     3     2    12    1
     4     3     4    1
     5     3    30    1
     6     4     5    1
     7     4    31    1
     8     4    32    1
     9     5     6   ar
    10     6     7   ar
    11     6    33    1
    12     7     8   ar
    13     7    34    1
    14     8     9    1
    15     8    10   ar
    16    10    11   ar
    17    10    35    1
    18    11     5   ar
    19    11    36    1
    20    12    13    2
    21    13    14    1
    22    14    15    1
    23    14    22   am
    24    15    16    1
    25    15    37    1
    26    15    38    1
    27    16    17   ar
    28    17    18   ar
    29    17    39    1
    30    18    19   ar
    31    18    40    1
    32    19    20   ar
    33    19    41    1
    34    20    21   ar
    35    20    42    1
    36    21    16   ar
    37    21    43    1
    38    22    23    2
    39    22    24    1
    40    24    25   ar
    41    25    26   ar
    42    25    44    1
    43    26    27   ar
    44    26    45    1
    45    27    28   ar
    46    27    46    1
    47    28    29   ar
    48    28    47    1
    49    29    12    1
    50    29    24   ar
@<TRIPOS>MOLECULE
*****
 47 50 0 0 0
SMALL
GASTEIGER

@<TRIPOS>ATOM
      1 O           1.4878    1.2409   -0.4984 O.2     1  UNL11      -0.2683
      2 C           1.2926    0.0449   -0.7572 C.2     1  UNL11       0.2690
      3 N           2.2450   -0.6557   -1.6036 N.am    1  UNL11      -0.3058
      4 C           1.9889   -2.0419   -1.9032 C.3     1  UNL11       0.0372
      5 C           1.9110   -2.9033   -0.7156 C.ar    1  UNL11      -0.0301
      6 C           0.7711   -3.6161   -0.4223 C.ar    1  UNL11      -0.0544
      7 C           0.7134   -4.4297    0.7096 C.ar    1  UNL11      -0.0261
      8 C           1.8336   -4.4987    1.5269 C.ar    1  UNL11       0.1234
      9 F           1.7795   -5.2969    2.6387 F       1  UNL11      -0.2055
     10 C           2.9834   -3.7996    1.2600 C.ar    1  UNL11      -0.0261
     11 C           2.9867   -3.0016    0.1156 C.ar    1  UNL11      -0.0544
     12 C           0.1706   -0.7079   -0.2703 C.2     1  UNL11       0.1989
     13 N          -0.7446   -0.0749    0.5291 N.2     1  UNL11       0.0044
     14 N          -1.8101   -0.6478    1.0388 N.am    1  UNL11      -0.0153
     15 C          -2.7230    0.1308    1.8777 C.3     1  UNL11       0.1985
     16 C          -2.2833    1.5293    2.0356 C.ar    1  UNL11       0.0189
     17 C          -2.1424    2.3922    0.9528 C.ar    1  UNL11      -0.0525
     18 C          -1.7293    3.6928    1.1319 C.ar    1  UNL11      -0.0613
     19 C          -1.4393    4.1924    2.3836 C.ar    1  UNL11      -0.0617
     20 C          -1.5777    3.3404    3.4583 C.ar    1  UNL11      -0.0613
     21 C          -1.9958    2.0193    3.2912 C.ar    1  UNL11      -0.0525
     22 C          -2.0048   -1.9396    0.7509 C.2     1  UNL11       0.4405
     23 O          -3.0043   -2.5292    1.2125 O.2     1  UNL11      -0.2116
     24 C          -1.1308   -2.6617   -0.0499 C.ar    1  UNL11       0.1010
     25 C          -1.3265   -3.9837   -0.3420 C.ar    1  UNL11      -0.0441
     26 C          -0.4561   -4.7029   -1.1342 C.ar    1  UNL11      -0.0608
     27 C           0.6603   -4.1070   -1.6690 C.ar    1  UNL11      -0.0611
     28 C           0.8600   -2.7523   -1.3694 C.ar    1  UNL11      -0.0513
     29 C          -0.0103   -2.0338   -0.5778 C.ar    1  UNL11       0.0282
     30 H           3.0800   -0.1602   -1.9728 H       1  UNL11       0.1494
     31 H           2.8374   -2.4258   -2.5301 H       1  UNL11       0.0512
     32 H           1.0830   -2.0876   -2.5518 H       1  UNL11       0.0512
     33 H          -0.1088   -3.5730   -1.0484 H       1  UNL11       0.0622
     34 H          -0.1621   -5.0042    0.9736 H       1  UNL11       0.0646
     35 H           3.8206   -3.8856    1.9204 H       1  UNL11       0.0646
     36 H           3.9071   -2.4574   -0.0763 H       1  UNL11       0.0622
     37 H          -2.7984   -0.3127    2.9006 H       1  UNL11       0.1103
     38 H          -3.7466    0.1349    1.4630 H       1  UNL11       0.1103
     39 H          -2.3731    1.9832   -0.0115 H       1  UNL11       0.0622
     40 H          -1.6245    4.3498    0.2854 H       1  UNL11       0.0618
     41 H          -1.1114    5.2355    2.4944 H       1  UNL11       0.0618
     42 H          -1.3631    3.6839    4.4560 H       1  UNL11       0.0618
     43 H          -2.0893    1.3830    4.1703 H       1  UNL11       0.0622
     44 H          -2.2149   -4.4676    0.0804 H       1  UNL11       0.0627
     45 H          -0.6081   -5.7572   -1.3700 H       1  UNL11       0.0618
     46 H           1.3791   -4.6089   -2.2941 H       1  UNL11       0.0618
     47 H           1.7200   -2.2934   -1.7759 H       1  UNL11       0.0624
@<TRIPOS>BOND
     1     1     2    2
     2     2     3   am
     3     2    12    1
     4     3     4    1
     5     3    30    1
     6     4     5    1
     7     4    31    1
     8     4    32    1
     9     5     6   ar
    10     6     7   ar
    11     6    33    1
    12     7     8   ar
    13     7    34    1
    14     8     9    1
    15     8    10   ar
    16    10    11   ar
    17    10    35    1
    18    11     5   ar
    19    11    36    1
    20    12    13    2
    21    13    14    1
    22    14    15    1
    23    14    22   am
    24    15    16    1
    25    15    37    1
    26    15    38    1
    27    16    17   ar
    28    17    18   ar
    29    17    39    1
    30    18    19   ar
    31    18    40    1
    32    19    20   ar
    33    19    41    1
    34    20    21   ar
    35    20    42    1
    36    21    16   ar
    37    21    43    1
    38    22    23    2
    39    22    24    1
    40    24    25   ar
    41    25    26   ar
    42    25    44    1
    43    26    27   ar
    44    26    45    1
    45    27    28   ar
    46    27    46    1
    47    28    29   ar
    48    28    47    1
    49    29    12    1
    50    29    24   ar
@<TRIPOS>MOLECULE
*****
 47 50 0 0 0
SMALL
GASTEIGER

@<TRIPOS>ATOM
      1 O           1.8006    0.9990   -0.1514 O.2     1  UNL11      -0.2683
      2 C           1.2926    0.0449   -0.7572 C.2     1  UNL11       0.2690
      3 N           1.8513   -0.3511   -2.0400 N.am    1  UNL11      -0.3058
      4 C           2.9770    0.3941   -2.5443 C.3     1  UNL11       0.0372
      5 C           2.6043    1.5401   -3.3846 C.ar    1  UNL11      -0.0301
      6 C           1.4204    2.2144   -3.1910 C.ar    1  UNL11      -0.0544
      7 C           1.0814    3.3009   -3.9978 C.ar    1  UNL11      -0.0261
      8 C           1.9685    3.6798   -4.9964 C.ar    1  UNL11       0.1234
      9 F           1.6379    4.7463   -5.7897 F       1  UNL11      -0.2055
     10 C           3.1553    3.0268   -5.2129 C.ar    1  UNL11      -0.0261
     11 C           3.4445    1.9475   -4.3775 C.ar    1  UNL11      -0.0544
     12 C           0.1706   -0.7079   -0.2703 C.2     1  UNL11       0.1989
     13 N          -0.7446   -0.0749    0.5291 N.2     1  UNL11       0.0044
     14 N          -1.8101   -0.6478    1.0388 N.am    1  UNL11      -0.0153
     15 C          -2.7230    0.1308    1.8777 C.3     1  UNL11       0.1985
     16 C          -3.3905   -0.6982    2.8982 C.ar    1  UNL11       0.0189
     17 C          -2.6815   -1.3895    3.8760 C.ar    1  UNL11      -0.0525
     18 C          -3.3330   -2.1562    4.8153 C.ar    1  UNL11      -0.0613
     19 C          -4.7067   -2.2710    4.8268 C.ar    1  UNL11      -0.0617
     20 C          -5.4121   -1.5876    3.8595 C.ar    1  UNL11      -0.0613
     21 C          -4.7644   -0.8065    2.9012 C.ar    1  UNL11      -0.0525
     22 C          -2.0048   -1.9396    0.7509 C.2     1  UNL11       0.4405
     23 O          -3.0043   -2.5292    1.2125 O.2     1  UNL11      -0.2116
     24 C          -1.1308   -2.6617   -0.0499 C.ar    1  UNL11       0.1010
     25 C          -1.3265   -3.9837   -0.3420 C.ar    1  UNL11      -0.0441
     26 C          -0.4561   -4.7029   -1.1342 C.ar    1  UNL11      -0.0608
     27 C           0.6603   -4.1070   -1.6690 C.ar    1  UNL11      -0.0611
     28 C           0.8600   -2.7523   -1.3694 C.ar    1  UNL11      -0.0513
     29 C          -0.0103   -2.0338   -0.5778 C.ar    1  UNL11       0.0282
     30 H           1.4410   -1.1474   -2.5658 H       1  UNL11       0.1494
     31 H           3.5922   -0.2935   -3.1838 H       1  UNL11       0.0512
     32 H           3.6221    0.6646   -1.6758 H       1  UNL11       0.0512
     33 H           0.7197    1.9317   -2.4181 H       1  UNL11       0.0622
     34 H           0.1625    3.8553   -3.8774 H       1  UNL11       0.0646
     35 H           3.8059    3.3566   -5.9955 H       1  UNL11       0.0646
     36 H           4.3891    1.4455   -4.5667 H       1  UNL11       0.0622
     37 H          -3.5227    0.6066    1.2591 H       1  UNL11       0.1103
     38 H          -2.1950    0.9534    2.3918 H       1  UNL11       0.1103
     39 H          -1.6142   -1.2864    3.8488 H       1  UNL11       0.0622
     40 H          -2.7722   -2.6859    5.5664 H       1  UNL11       0.0618
     41 H          -5.1981   -2.8910    5.5896 H       1  UNL11       0.0618
     42 H          -6.4868   -1.6458    3.8269 H       1  UNL11       0.0618
     43 H          -5.3640   -0.2859    2.1556 H       1  UNL11       0.0622
     44 H          -2.2149   -4.4676    0.0804 H       1  UNL11       0.0627
     45 H          -0.6081   -5.7572   -1.3700 H       1  UNL11       0.0618
     46 H           1.3791   -4.6089   -2.2941 H       1  UNL11       0.0618
     47 H           1.7200   -2.2934   -1.7759 H       1  UNL11       0.0624
@<TRIPOS>BOND
     1     1     2    2
     2     2     3   am
     3     2    12    1
     4     3     4    1
     5     3    30    1
     6     4     5    1
     7     4    31    1
     8     4    32    1
     9     5     6   ar
    10     6     7   ar
    11     6    33    1
    12     7     8   ar
    13     7    34    1
    14     8     9    1
    15     8    10   ar
    16    10    11   ar
    17    10    35    1
    18    11     5   ar
    19    11    36    1
    20    12    13    2
    21    13    14    1
    22    14    15    1
    23    14    22   am
    24    15    16    1
    25    15    37    1
    26    15    38    1
    27    16    17   ar
    28    17    18   ar
    29    17    39    1
    30    18    19   ar
    31    18    40    1
    32    19    20   ar
    33    19    41    1
    34    20    21   ar
    35    20    42    1
    36    21    16   ar
    37    21    43    1
    38    22    23    2
    39    22    24    1
    40    24    25   ar
    41    25    26   ar
    42    25    44    1
    43    26    27   ar
    44    26    45    1
    45    27    28   ar
    46    27    46    1
    47    28    29   ar
    48    28    47    1
    49    29    12    1
    50    29    24   ar
@<TRIPOS>MOLECULE
*****
 47 50 0 0 0
SMALL
GASTEIGER

@<TRIPOS>ATOM
      1 O           1.8573   -0.1762   -1.8378 O.2     1  UNL11      -0.2683
      2 C           1.2926    0.0449   -0.7572 C.2     1  UNL11       0.2690
      3 N           1.7810    1.1267    0.0828 N.am    1  UNL11      -0.3058
      4 C           1.1179    1.3550    1.3418 C.3     1  UNL11       0.0372
      5 C           1.1380    2.7572    1.7798 C.ar    1  UNL11      -0.0301
      6 C           0.1327    3.6300    1.4316 C.ar    1  UNL11      -0.0544
      7 C           0.1667    4.9586    1.8558 C.ar    1  UNL11      -0.0261
      8 C           1.2387    5.3722    2.6352 C.ar    1  UNL11       0.1234
      9 F           1.2743    6.6762    3.0530 F       1  UNL11      -0.2055
     10 C           2.2550    4.5251    2.9977 C.ar    1  UNL11      -0.0261
     11 C           2.1710    3.2076    2.5464 C.ar    1  UNL11      -0.0544
     12 C           0.1706   -0.7079   -0.2703 C.2     1  UNL11       0.1989
     13 N          -0.7446   -0.0749    0.5291 N.2     1  UNL11       0.0044
     14 N          -1.8101   -0.6478    1.0388 N.am    1  UNL11      -0.0153
     15 C          -2.7230    0.1308    1.8777 C.3     1  UNL11       0.1985
     16 C          -3.7945    0.7722    1.0937 C.ar    1  UNL11       0.0189
     17 C          -5.0144    0.1484    0.8504 C.ar    1  UNL11      -0.0525
     18 C          -5.9955    0.7726    0.1141 C.ar    1  UNL11      -0.0613
     19 C          -5.8121    2.0344   -0.4102 C.ar    1  UNL11      -0.0617
     20 C          -4.6048    2.6552   -0.1711 C.ar    1  UNL11      -0.0613
     21 C          -3.6013    2.0339    0.5738 C.ar    1  UNL11      -0.0525
     22 C          -2.0048   -1.9396    0.7509 C.2     1  UNL11       0.4405
     23 O          -3.0043   -2.5292    1.2125 O.2     1  UNL11      -0.2116
     24 C          -1.1308   -2.6617   -0.0499 C.ar    1  UNL11       0.1010
     25 C          -1.3265   -3.9837   -0.3420 C.ar    1  UNL11      -0.0441
     26 C          -0.4561   -4.7029   -1.1342 C.ar    1  UNL11      -0.0608
     27 C           0.6603   -4.1070   -1.6690 C.ar    1  UNL11      -0.0611
     28 C           0.8600   -2.7523   -1.3694 C.ar    1  UNL11      -0.0513
     29 C          -0.0103   -2.0338   -0.5778 C.ar    1  UNL11       0.0282
     30 H           2.5829    1.7092   -0.2281 H       1  UNL11       0.1494
     31 H           1.6509    0.7590    2.1299 H       1  UNL11       0.0512
     32 H           0.0932    0.9212    1.2697 H       1  UNL11       0.0512
     33 H          -0.7081    3.3233    0.8257 H       1  UNL11       0.0622
     34 H          -0.6024    5.6735    1.6038 H       1  UNL11       0.0646
     35 H           3.0600    4.8912    3.5997 H       1  UNL11       0.0646
     36 H           2.9861    2.5546    2.8453 H       1  UNL11       0.0622
     37 H          -2.1736    0.9407    2.4171 H       1  UNL11       0.1103
     38 H          -3.1924   -0.4988    2.6543 H       1  UNL11       0.1103
     39 H          -5.1360   -0.8324    1.2673 H       1  UNL11       0.0622
     40 H          -6.9349    0.2786   -0.0666 H       1  UNL11       0.0618
     41 H          -6.6144    2.5067   -0.9942 H       1  UNL11       0.0618
     42 H          -4.4138    3.6411   -0.5597 H       1  UNL11       0.0618
     43 H          -2.6632    2.5633    0.7353 H       1  UNL11       0.0622
     44 H          -2.2149   -4.4676    0.0804 H       1  UNL11       0.0627
     45 H          -0.6081   -5.7572   -1.3700 H       1  UNL11       0.0618
     46 H           1.3791   -4.6089   -2.2941 H       1  UNL11       0.0618
     47 H           1.7200   -2.2934   -1.7759 H       1  UNL11       0.0624
@<TRIPOS>BOND
     1     1     2    2
     2     2     3   am
     3     2    12    1
     4     3     4    1
     5     3    30    1
     6     4     5    1
     7     4    31    1
     8     4    32    1
     9     5     6   ar
    10     6     7   ar
    11     6    33    1
    12     7     8   ar
    13     7    34    1
    14     8     9    1
    15     8    10   ar
    16    10    11   ar
    17    10    35    1
    18    11     5   ar
    19    11    36    1
    20    12    13    2
    21    13    14    1
    22    14    15    1
    23    14    22   am
    24    15    16    1
    25    15    37    1
    26    15    38    1
    27    16    17   ar
    28    17    18   ar
    29    17    39    1
    30    18    19   ar
    31    18    40    1
    32    19    20   ar
    33    19    41    1
    34    20    21   ar
    35    20    42    1
    36    21    16   ar
    37    21    43    1
    38    22    23    2
    39    22    24    1
    40    24    25   ar
    41    25    26   ar
    42    25    44    1
    43    26    27   ar
    44    26    45    1
    45    27    28   ar
    46    27    46    1
    47    28    29   ar
    48    28    47    1
    49    29    12    1
    50    29    24   ar
