@<TRIPOS>MOLECULE
*****
 48 52 0 0 0
SMALL
GASTEIGER

@<TRIPOS>ATOM
      1 O           2.0330   -2.8314   -1.0988 O.2     1  UNL11      -0.2698
      2 C           2.6137   -1.7696   -0.7801 C.2     1  UNL11       0.2511
      3 C           4.0371   -1.4334   -1.0105 C.2     1  UNL11       0.0138
      4 C           4.2951   -0.2292   -0.5409 C.2     1  UNL11       0.0497
      5 C           5.6173    0.4051   -0.6111 C.ar    1  UNL11      -0.0127
      6 C           5.9551    1.1818   -1.6961 C.ar    1  UNL11      -0.0539
      7 C           7.2043    1.7565   -1.7632 C.ar    1  UNL11      -0.0612
      8 C           8.1590    1.5921   -0.7789 C.ar    1  UNL11      -0.0617
      9 C           7.8312    0.8180    0.3095 C.ar    1  UNL11      -0.0612
     10 C           6.5761    0.2449    0.3708 C.ar    1  UNL11      -0.0539
     11 C           3.0581    0.2907    0.0217 C.2     1  UNL11       0.2582
     12 O           2.9071    1.4155    0.5629 O.2     1  UNL11      -0.2692
     13 N           2.0116   -0.6638   -0.1247 N.am    1  UNL11      -0.2028
     14 C           0.6390   -0.5555    0.3044 C.ar    1  UNL11       0.0448
     15 C           0.2956   -0.3611    1.6231 C.ar    1  UNL11      -0.0398
     16 C          -0.9969   -0.2670    2.0830 C.ar    1  UNL11      -0.0597
     17 C          -2.0029   -0.3841    1.0930 C.ar    1  UNL11      -0.0581
     18 C          -1.7051   -0.5779   -0.2210 C.ar    1  UNL11      -0.0396
     19 C          -2.7504   -0.7436   -1.2551 C.3     1  UNL11       0.0211
     20 C          -2.6475   -2.0420   -1.9458 C.2     1  UNL11       0.1192
     21 N          -3.3448   -3.0938   -1.4234 N.2     1  UNL11      -0.0073
     22 N          -3.2460   -4.2880   -1.9487 N.am    1  UNL11      -0.0356
     23 C          -2.4680   -4.5327   -3.0087 C.2     1  UNL11       0.4383
     24 O          -2.3771   -5.7035   -3.5152 O.2     1  UNL11      -0.2116
     25 C          -1.7372   -3.5129   -3.5877 C.ar    1  UNL11       0.1004
     26 C          -0.9482   -3.7313   -4.6906 C.ar    1  UNL11      -0.0441
     27 C          -0.2510   -2.6713   -5.2554 C.ar    1  UNL11      -0.0608
     28 C          -0.3558   -1.4002   -4.7033 C.ar    1  UNL11      -0.0611
     29 C          -1.1389   -1.1750   -3.6021 C.ar    1  UNL11      -0.0518
     30 C          -1.8384   -2.2400   -3.0332 C.ar    1  UNL11       0.0192
     31 C          -0.3485   -0.6637   -0.6207 C.ar    1  UNL11      -0.0363
     32 H           4.7099   -2.1363   -1.5071 H       1  UNL11       0.0677
     33 H           5.2099    1.3237   -2.4823 H       1  UNL11       0.0624
     34 H           7.4510    2.3578   -2.6174 H       1  UNL11       0.0618
     35 H           9.1456    2.0723   -0.8849 H       1  UNL11       0.0618
     36 H           8.5466    0.6523    1.1103 H       1  UNL11       0.0618
     37 H           6.3129   -0.3704    1.2276 H       1  UNL11       0.0624
     38 H           1.1124   -0.2732    2.3414 H       1  UNL11       0.0636
     39 H          -1.2460   -0.1111    3.1285 H       1  UNL11       0.0618
     40 H          -2.9915   -0.2910    1.5130 H       1  UNL11       0.0620
     41 H          -3.7409   -0.7209   -0.7047 H       1  UNL11       0.0379
     42 H          -2.6903    0.0972   -1.9565 H       1  UNL11       0.0379
     43 H          -3.7876   -5.0901   -1.5407 H       1  UNL11       0.4829
     44 H          -0.8908   -4.7361   -5.0948 H       1  UNL11       0.0627
     45 H           0.3701   -2.8525   -6.1215 H       1  UNL11       0.0618
     46 H           0.1911   -0.5545   -5.1434 H       1  UNL11       0.0618
     47 H          -1.2051   -0.1628   -3.1781 H       1  UNL11       0.0624
     48 H          -0.1412   -0.8092   -1.6618 H       1  UNL11       0.0639
@<TRIPOS>BOND
     1     1     2    2
     2     2     3    1
     3     3     4    2
     4     3    32    1
     5     4     5    1
     6     4    11    1
     7     5     6   ar
     8     6     7   ar
     9     6    33    1
    10     7     8   ar
    11     7    34    1
    12     8     9   ar
    13     8    35    1
    14     9    10   ar
    15     9    36    1
    16    10     5   ar
    17    10    37    1
    18    11    12    2
    19    11    13   am
    20    13    14    1
    21    13     2   am
    22    14    15   ar
    23    15    16   ar
    24    15    38    1
    25    16    17   ar
    26    16    39    1
    27    17    18   ar
    28    17    40    1
    29    18    19    1
    30    18    31   ar
    31    19    20    1
    32    19    41    1
    33    19    42    1
    34    20    21    2
    35    21    22    1
    36    22    23   am
    37    22    43    1
    38    23    24    2
    39    23    25    1
    40    25    26   ar
    41    26    27   ar
    42    26    44    1
    43    27    28   ar
    44    27    45    1
    45    28    29   ar
    46    28    46    1
    47    29    30   ar
    48    29    47    1
    49    30    20    1
    50    30    25   ar
    51    31    14   ar
    52    31    48    1
@<TRIPOS>MOLECULE
*****
 48 52 0 0 0
SMALL
GASTEIGER

@<TRIPOS>ATOM
      1 O           2.0330   -2.8314   -1.0988 O.2     1  UNL11      -0.2698
      2 C           2.6137   -1.7696   -0.7801 C.2     1  UNL11       0.2511
      3 C           4.0371   -1.4334   -1.0105 C.2     1  UNL11       0.0138
      4 C           4.2951   -0.2292   -0.5409 C.2     1  UNL11       0.0497
      5 C           5.6173    0.4051   -0.6111 C.ar    1  UNL11      -0.0127
      6 C           6.7565   -0.3674   -0.5976 C.ar    1  UNL11      -0.0539
      7 C           7.9928    0.2366   -0.6436 C.ar    1  UNL11      -0.0612
      8 C           8.1560    1.6067   -0.7035 C.ar    1  UNL11      -0.0617
      9 C           7.0240    2.3873   -0.7177 C.ar    1  UNL11      -0.0612
     10 C           5.7868    1.7749   -0.6719 C.ar    1  UNL11      -0.0539
     11 C           3.0581    0.2907    0.0217 C.2     1  UNL11       0.2582
     12 O           2.9071    1.4155    0.5629 O.2     1  UNL11      -0.2692
     13 N           2.0116   -0.6638   -0.1247 N.am    1  UNL11      -0.2028
     14 C           0.6390   -0.5555    0.3044 C.ar    1  UNL11       0.0448
     15 C           0.2956   -0.3611    1.6231 C.ar    1  UNL11      -0.0398
     16 C          -0.9969   -0.2670    2.0830 C.ar    1  UNL11      -0.0597
     17 C          -2.0029   -0.3841    1.0930 C.ar    1  UNL11      -0.0581
     18 C          -1.7051   -0.5779   -0.2210 C.ar    1  UNL11      -0.0396
     19 C          -2.7504   -0.7436   -1.2551 C.3     1  UNL11       0.0211
     20 C          -3.9758   -1.3580   -0.7127 C.2     1  UNL11       0.1192
     21 N          -3.8659   -2.5965   -0.1472 N.2     1  UNL11      -0.0073
     22 N          -4.9246   -3.2259    0.2943 N.am    1  UNL11      -0.0356
     23 C          -6.1490   -2.6936    0.2144 C.2     1  UNL11       0.4383
     24 O          -7.1783   -3.3165    0.6480 O.2     1  UNL11      -0.2116
     25 C          -6.3306   -1.4429   -0.3442 C.ar    1  UNL11       0.1004
     26 C          -7.5735   -0.8629   -0.4181 C.ar    1  UNL11      -0.0441
     27 C          -7.7059    0.4070   -0.9645 C.ar    1  UNL11      -0.0608
     28 C          -6.5838    1.0811   -1.4311 C.ar    1  UNL11      -0.0611
     29 C          -5.3412    0.5083   -1.3630 C.ar    1  UNL11      -0.0518
     30 C          -5.2078   -0.7683   -0.8156 C.ar    1  UNL11       0.0192
     31 C          -0.3485   -0.6637   -0.6207 C.ar    1  UNL11      -0.0363
     32 H           4.7099   -2.1363   -1.5071 H       1  UNL11       0.0677
     33 H           6.6443   -1.4532   -0.5529 H       1  UNL11       0.0624
     34 H           8.8704   -0.3813   -0.6306 H       1  UNL11       0.0618
     35 H           9.1699    2.0382   -0.7348 H       1  UNL11       0.0618
     36 H           7.0955    3.4707   -0.7595 H       1  UNL11       0.0618
     37 H           4.8887    2.3875   -0.6800 H       1  UNL11       0.0624
     38 H           1.1124   -0.2732    2.3414 H       1  UNL11       0.0636
     39 H          -1.2460   -0.1111    3.1285 H       1  UNL11       0.0618
     40 H          -2.9915   -0.2910    1.5130 H       1  UNL11       0.0620
     41 H          -3.0122    0.3020   -1.6052 H       1  UNL11       0.0379
     42 H          -2.3359   -1.3261   -2.0866 H       1  UNL11       0.0379
     43 H          -4.8295   -4.1774    0.7289 H       1  UNL11       0.4829
     44 H          -8.4266   -1.4181   -0.0436 H       1  UNL11       0.0627
     45 H          -8.6881    0.8550   -1.0216 H       1  UNL11       0.0618
     46 H          -6.6777    2.0869   -1.8644 H       1  UNL11       0.0618
     47 H          -4.4667    1.0566   -1.7415 H       1  UNL11       0.0624
     48 H          -0.1412   -0.8092   -1.6618 H       1  UNL11       0.0639
@<TRIPOS>BOND
     1     1     2    2
     2     2     3    1
     3     3     4    2
     4     3    32    1
     5     4     5    1
     6     4    11    1
     7     5     6   ar
     8     6     7   ar
     9     6    33    1
    10     7     8   ar
    11     7    34    1
    12     8     9   ar
    13     8    35    1
    14     9    10   ar
    15     9    36    1
    16    10     5   ar
    17    10    37    1
    18    11    12    2
    19    11    13   am
    20    13    14    1
    21    13     2   am
    22    14    15   ar
    23    15    16   ar
    24    15    38    1
    25    16    17   ar
    26    16    39    1
    27    17    18   ar
    28    17    40    1
    29    18    19    1
    30    18    31   ar
    31    19    20    1
    32    19    41    1
    33    19    42    1
    34    20    21    2
    35    21    22    1
    36    22    23   am
    37    22    43    1
    38    23    24    2
    39    23    25    1
    40    25    26   ar
    41    26    27   ar
    42    26    44    1
    43    27    28   ar
    44    27    45    1
    45    28    29   ar
    46    28    46    1
    47    29    30   ar
    48    29    47    1
    49    30    20    1
    50    30    25   ar
    51    31    14   ar
    52    31    48    1
@<TRIPOS>MOLECULE
*****
 48 52 0 0 0
SMALL
GASTEIGER

@<TRIPOS>ATOM
      1 O           3.1007   -1.2266    1.9113 O.2     1  UNL11      -0.2698
      2 C           3.1340   -0.9801    0.6848 C.2     1  UNL11       0.2511
      3 C           4.3325   -0.9625   -0.1842 C.2     1  UNL11       0.0138
      4 C           3.9861   -0.6625   -1.4201 C.2     1  UNL11       0.0497
      5 C           4.9408   -0.5627   -2.5309 C.ar    1  UNL11      -0.0127
      6 C           6.0879   -1.3235   -2.5274 C.ar    1  UNL11      -0.0539
      7 C           6.9874   -1.2089   -3.5633 C.ar    1  UNL11      -0.0612
      8 C           6.7974   -0.3524   -4.6300 C.ar    1  UNL11      -0.0617
      9 C           5.6543    0.4118   -4.6429 C.ar    1  UNL11      -0.0612
     10 C           4.7557    0.2916   -3.6009 C.ar    1  UNL11      -0.0539
     11 C           2.5442   -0.4678   -1.4306 C.2     1  UNL11       0.2582
     12 O           1.8455   -0.1705   -2.4327 O.2     1  UNL11      -0.2692
     13 N           2.0116   -0.6638   -0.1247 N.am    1  UNL11      -0.2028
     14 C           0.6390   -0.5555    0.3044 C.ar    1  UNL11       0.0448
     15 C           0.2956   -0.3611    1.6231 C.ar    1  UNL11      -0.0398
     16 C          -0.9969   -0.2670    2.0830 C.ar    1  UNL11      -0.0597
     17 C          -2.0029   -0.3841    1.0930 C.ar    1  UNL11      -0.0581
     18 C          -1.7051   -0.5779   -0.2210 C.ar    1  UNL11      -0.0396
     19 C          -2.7504   -0.7436   -1.2551 C.3     1  UNL11       0.0211
     20 C          -3.6278    0.4372   -1.3521 C.2     1  UNL11       0.1192
     21 N          -4.7493    0.4581   -0.5728 N.2     1  UNL11      -0.0073
     22 N          -5.6040    1.4451   -0.6580 N.am    1  UNL11      -0.0356
     23 C          -5.4226    2.4675   -1.5010 C.2     1  UNL11       0.4383
     24 O          -6.2638    3.4277   -1.5779 O.2     1  UNL11      -0.2116
     25 C          -4.3078    2.5098   -2.3163 C.ar    1  UNL11       0.1004
     26 C          -4.0851    3.5589   -3.1744 C.ar    1  UNL11      -0.0441
     27 C          -2.9380    3.5726   -3.9571 C.ar    1  UNL11      -0.0608
     28 C          -2.0252    2.5284   -3.8673 C.ar    1  UNL11      -0.0611
     29 C          -2.2415    1.4775   -3.0154 C.ar    1  UNL11      -0.0518
     30 C          -3.3948    1.4625   -2.2300 C.ar    1  UNL11       0.0192
     31 C          -0.3485   -0.6637   -0.6207 C.ar    1  UNL11      -0.0363
     32 H           5.3246   -1.1801    0.2179 H       1  UNL11       0.0677
     33 H           6.2518   -2.0078   -1.6918 H       1  UNL11       0.0624
     34 H           7.8774   -1.8087   -3.5433 H       1  UNL11       0.0618
     35 H           7.5522   -0.2976   -5.4316 H       1  UNL11       0.0618
     36 H           5.4575    1.1052   -5.4560 H       1  UNL11       0.0618
     37 H           3.8518    0.8956   -3.6048 H       1  UNL11       0.0624
     38 H           1.1124   -0.2732    2.3414 H       1  UNL11       0.0636
     39 H          -1.2460   -0.1111    3.1285 H       1  UNL11       0.0618
     40 H          -2.9915   -0.2910    1.5130 H       1  UNL11       0.0620
     41 H          -2.2010   -0.8496   -2.2407 H       1  UNL11       0.0379
     42 H          -3.3182   -1.6569   -1.0407 H       1  UNL11       0.0379
     43 H          -6.4627    1.4528   -0.0533 H       1  UNL11       0.4829
     44 H          -4.8187    4.3566   -3.2178 H       1  UNL11       0.0627
     45 H          -2.7718    4.4006   -4.6321 H       1  UNL11       0.0618
     46 H          -1.1138    2.5302   -4.4816 H       1  UNL11       0.0618
     47 H          -1.5092    0.6593   -2.9623 H       1  UNL11       0.0624
     48 H          -0.1412   -0.8092   -1.6618 H       1  UNL11       0.0639
@<TRIPOS>BOND
     1     1     2    2
     2     2     3    1
     3     3     4    2
     4     3    32    1
     5     4     5    1
     6     4    11    1
     7     5     6   ar
     8     6     7   ar
     9     6    33    1
    10     7     8   ar
    11     7    34    1
    12     8     9   ar
    13     8    35    1
    14     9    10   ar
    15     9    36    1
    16    10     5   ar
    17    10    37    1
    18    11    12    2
    19    11    13   am
    20    13    14    1
    21    13     2   am
    22    14    15   ar
    23    15    16   ar
    24    15    38    1
    25    16    17   ar
    26    16    39    1
    27    17    18   ar
    28    17    40    1
    29    18    19    1
    30    18    31   ar
    31    19    20    1
    32    19    41    1
    33    19    42    1
    34    20    21    2
    35    21    22    1
    36    22    23   am
    37    22    43    1
    38    23    24    2
    39    23    25    1
    40    25    26   ar
    41    26    27   ar
    42    26    44    1
    43    27    28   ar
    44    27    45    1
    45    28    29   ar
    46    28    46    1
    47    29    30   ar
    48    29    47    1
    49    30    20    1
    50    30    25   ar
    51    31    14   ar
    52    31    48    1
@<TRIPOS>MOLECULE
*****
 48 52 0 0 0
SMALL
GASTEIGER

@<TRIPOS>ATOM
      1 O           2.1810    1.1641   -1.6340 O.2     1  UNL11      -0.2698
      2 C           2.6833    0.1783   -1.0492 C.2     1  UNL11       0.2511
      3 C           4.0691   -0.3241   -1.1882 C.2     1  UNL11       0.0138
      4 C           4.2418   -1.3815   -0.4205 C.2     1  UNL11       0.0497
      5 C           5.5071   -2.1203   -0.3264 C.ar    1  UNL11      -0.0127
      6 C           6.5982   -1.7199   -1.0639 C.ar    1  UNL11      -0.0539
      7 C           7.7748   -2.4303   -0.9848 C.ar    1  UNL11      -0.0612
      8 C           7.9233   -3.5484   -0.1879 C.ar    1  UNL11      -0.0617
      9 C           6.8391   -3.9564    0.5531 C.ar    1  UNL11      -0.0612
     10 C           5.6619   -3.2390    0.4696 C.ar    1  UNL11      -0.0539
     11 C           2.9822   -1.6305    0.2638 C.2     1  UNL11       0.2582
     12 O           2.7567   -2.5563    1.0842 O.2     1  UNL11      -0.2692
     13 N           2.0116   -0.6638   -0.1247 N.am    1  UNL11      -0.2028
     14 C           0.6390   -0.5555    0.3044 C.ar    1  UNL11       0.0448
     15 C           0.2956   -0.3611    1.6231 C.ar    1  UNL11      -0.0398
     16 C          -0.9969   -0.2670    2.0830 C.ar    1  UNL11      -0.0597
     17 C          -2.0029   -0.3841    1.0930 C.ar    1  UNL11      -0.0581
     18 C          -1.7051   -0.5779   -0.2210 C.ar    1  UNL11      -0.0396
     19 C          -2.7504   -0.7436   -1.2551 C.3     1  UNL11       0.0211
     20 C          -3.1229   -2.1571   -1.4468 C.2     1  UNL11       0.1192
     21 N          -3.0123   -2.9922   -0.3716 N.2     1  UNL11      -0.0073
     22 N          -3.2641   -4.2707   -0.4897 N.am    1  UNL11      -0.0356
     23 C          -3.6372   -4.8139   -1.6536 C.2     1  UNL11       0.4383
     24 O          -3.8806   -6.0648   -1.7598 O.2     1  UNL11      -0.2116
     25 C          -3.7706   -4.0253   -2.7803 C.ar    1  UNL11       0.1004
     26 C          -4.1743   -4.5529   -3.9825 C.ar    1  UNL11      -0.0441
     27 C          -4.3197   -3.7184   -5.0830 C.ar    1  UNL11      -0.0608
     28 C          -4.0573   -2.3591   -4.9615 C.ar    1  UNL11      -0.0611
     29 C          -3.6521   -1.8259   -3.7664 C.ar    1  UNL11      -0.0518
     30 C          -3.5042   -2.6641   -2.6607 C.ar    1  UNL11       0.0192
     31 C          -0.3485   -0.6637   -0.6207 C.ar    1  UNL11      -0.0363
     32 H           4.7843    0.1685   -1.8508 H       1  UNL11       0.0677
     33 H           6.4977   -0.8357   -1.6974 H       1  UNL11       0.0624
     34 H           8.6150   -2.1046   -1.5681 H       1  UNL11       0.0618
     35 H           8.8875   -4.0823   -0.1648 H       1  UNL11       0.0618
     36 H           6.9002   -4.8323    1.1931 H       1  UNL11       0.0618
     37 H           4.8008   -3.5589    1.0510 H       1  UNL11       0.0624
     38 H           1.1124   -0.2732    2.3414 H       1  UNL11       0.0636
     39 H          -1.2460   -0.1111    3.1285 H       1  UNL11       0.0618
     40 H          -2.9915   -0.2910    1.5130 H       1  UNL11       0.0620
     41 H          -3.6628   -0.1938   -0.8682 H       1  UNL11       0.0379
     42 H          -2.4014   -0.2839   -2.1875 H       1  UNL11       0.0379
     43 H          -3.1777   -4.9043    0.3435 H       1  UNL11       0.4829
     44 H          -4.3708   -5.6180   -4.0402 H       1  UNL11       0.0627
     45 H          -4.6350   -4.1423   -6.0263 H       1  UNL11       0.0618
     46 H          -4.1704   -1.6900   -5.8262 H       1  UNL11       0.0618
     47 H          -3.4456   -0.7486   -3.6923 H       1  UNL11       0.0624
     48 H          -0.1412   -0.8092   -1.6618 H       1  UNL11       0.0639
@<TRIPOS>BOND
     1     1     2    2
     2     2     3    1
     3     3     4    2
     4     3    32    1
     5     4     5    1
     6     4    11    1
     7     5     6   ar
     8     6     7   ar
     9     6    33    1
    10     7     8   ar
    11     7    34    1
    12     8     9   ar
    13     8    35    1
    14     9    10   ar
    15     9    36    1
    16    10     5   ar
    17    10    37    1
    18    11    12    2
    19    11    13   am
    20    13    14    1
    21    13     2   am
    22    14    15   ar
    23    15    16   ar
    24    15    38    1
    25    16    17   ar
    26    16    39    1
    27    17    18   ar
    28    17    40    1
    29    18    19    1
    30    18    31   ar
    31    19    20    1
    32    19    41    1
    33    19    42    1
    34    20    21    2
    35    21    22    1
    36    22    23   am
    37    22    43    1
    38    23    24    2
    39    23    25    1
    40    25    26   ar
    41    26    27   ar
    42    26    44    1
    43    27    28   ar
    44    27    45    1
    45    28    29   ar
    46    28    46    1
    47    29    30   ar
    48    29    47    1
    49    30    20    1
    50    30    25   ar
    51    31    14   ar
    52    31    48    1
@<TRIPOS>MOLECULE
*****
 48 52 0 0 0
SMALL
GASTEIGER

@<TRIPOS>ATOM
      1 O           3.1007   -1.2266    1.9113 O.2     1  UNL11      -0.2698
      2 C           3.1340   -0.9801    0.6848 C.2     1  UNL11       0.2511
      3 C           4.3325   -0.9625   -0.1842 C.2     1  UNL11       0.0138
      4 C           3.9861   -0.6625   -1.4201 C.2     1  UNL11       0.0497
      5 C           4.9408   -0.5627   -2.5309 C.ar    1  UNL11      -0.0127
      6 C           6.0879   -1.3235   -2.5274 C.ar    1  UNL11      -0.0539
      7 C           6.9874   -1.2089   -3.5633 C.ar    1  UNL11      -0.0612
      8 C           6.7974   -0.3524   -4.6300 C.ar    1  UNL11      -0.0617
      9 C           5.6543    0.4118   -4.6429 C.ar    1  UNL11      -0.0612
     10 C           4.7557    0.2916   -3.6009 C.ar    1  UNL11      -0.0539
     11 C           2.5442   -0.4678   -1.4306 C.2     1  UNL11       0.2582
     12 O           1.8455   -0.1705   -2.4327 O.2     1  UNL11      -0.2692
     13 N           2.0116   -0.6638   -0.1247 N.am    1  UNL11      -0.2028
     14 C           0.6390   -0.5555    0.3044 C.ar    1  UNL11       0.0448
     15 C           0.2956   -0.3611    1.6231 C.ar    1  UNL11      -0.0398
     16 C          -0.9969   -0.2670    2.0830 C.ar    1  UNL11      -0.0597
     17 C          -2.0029   -0.3841    1.0930 C.ar    1  UNL11      -0.0581
     18 C          -1.7051   -0.5779   -0.2210 C.ar    1  UNL11      -0.0396
     19 C          -2.7504   -0.7436   -1.2551 C.3     1  UNL11       0.0211
     20 C          -3.6243   -1.8989   -0.9813 C.2     1  UNL11       0.1192
     21 N          -3.6718   -2.8924   -1.9175 N.2     1  UNL11      -0.0073
     22 N          -4.4756   -3.9139   -1.7677 N.am    1  UNL11      -0.0356
     23 C          -5.2784   -4.0327   -0.7045 C.2     1  UNL11       0.4383
     24 O          -6.0613   -5.0345   -0.5668 O.2     1  UNL11      -0.2116
     25 C          -5.2784   -3.0643    0.2811 C.ar    1  UNL11       0.1004
     26 C          -6.0758   -3.1726    1.3943 C.ar    1  UNL11      -0.0441
     27 C          -6.0246   -2.1880    2.3724 C.ar    1  UNL11      -0.0608
     28 C          -5.1695   -1.1032    2.2197 C.ar    1  UNL11      -0.0611
     29 C          -4.3729   -0.9870    1.1112 C.ar    1  UNL11      -0.0518
     30 C          -4.4251   -1.9751    0.1273 C.ar    1  UNL11       0.0192
     31 C          -0.3485   -0.6637   -0.6207 C.ar    1  UNL11      -0.0363
     32 H           5.3246   -1.1801    0.2179 H       1  UNL11       0.0677
     33 H           6.2518   -2.0078   -1.6918 H       1  UNL11       0.0624
     34 H           7.8774   -1.8087   -3.5433 H       1  UNL11       0.0618
     35 H           7.5522   -0.2976   -5.4316 H       1  UNL11       0.0618
     36 H           5.4575    1.1052   -5.4560 H       1  UNL11       0.0618
     37 H           3.8518    0.8956   -3.6048 H       1  UNL11       0.0624
     38 H           1.1124   -0.2732    2.3414 H       1  UNL11       0.0636
     39 H          -1.2460   -0.1111    3.1285 H       1  UNL11       0.0618
     40 H          -2.9915   -0.2910    1.5130 H       1  UNL11       0.0620
     41 H          -3.3877    0.1924   -1.2081 H       1  UNL11       0.0379
     42 H          -2.2676   -0.8211   -2.2366 H       1  UNL11       0.0379
     43 H          -4.5037   -4.6736   -2.4924 H       1  UNL11       0.4829
     44 H          -6.7302   -4.0331    1.4802 H       1  UNL11       0.0627
     45 H          -6.6576   -2.2794    3.2440 H       1  UNL11       0.0618
     46 H          -5.1208   -0.3191    2.9885 H       1  UNL11       0.0618
     47 H          -3.7064   -0.1189    1.0074 H       1  UNL11       0.0624
     48 H          -0.1412   -0.8092   -1.6618 H       1  UNL11       0.0639
@<TRIPOS>BOND
     1     1     2    2
     2     2     3    1
     3     3     4    2
     4     3    32    1
     5     4     5    1
     6     4    11    1
     7     5     6   ar
     8     6     7   ar
     9     6    33    1
    10     7     8   ar
    11     7    34    1
    12     8     9   ar
    13     8    35    1
    14     9    10   ar
    15     9    36    1
    16    10     5   ar
    17    10    37    1
    18    11    12    2
    19    11    13   am
    20    13    14    1
    21    13     2   am
    22    14    15   ar
    23    15    16   ar
    24    15    38    1
    25    16    17   ar
    26    16    39    1
    27    17    18   ar
    28    17    40    1
    29    18    19    1
    30    18    31   ar
    31    19    20    1
    32    19    41    1
    33    19    42    1
    34    20    21    2
    35    21    22    1
    36    22    23   am
    37    22    43    1
    38    23    24    2
    39    23    25    1
    40    25    26   ar
    41    26    27   ar
    42    26    44    1
    43    27    28   ar
    44    27    45    1
    45    28    29   ar
    46    28    46    1
    47    29    30   ar
    48    29    47    1
    49    30    20    1
    50    30    25   ar
    51    31    14   ar
    52    31    48    1
@<TRIPOS>MOLECULE
*****
 48 52 0 0 0
SMALL
GASTEIGER

@<TRIPOS>ATOM
      1 O           2.0330   -2.8314   -1.0988 O.2     1  UNL11      -0.2698
      2 C           2.6137   -1.7696   -0.7801 C.2     1  UNL11       0.2511
      3 C           4.0371   -1.4334   -1.0105 C.2     1  UNL11       0.0138
      4 C           4.2951   -0.2292   -0.5409 C.2     1  UNL11       0.0497
      5 C           5.6173    0.4051   -0.6111 C.ar    1  UNL11      -0.0127
      6 C           6.0089    1.2971    0.3613 C.ar    1  UNL11      -0.0539
      7 C           7.2425    1.9024    0.2771 C.ar    1  UNL11      -0.0612
      8 C           8.1287    1.6581   -0.7537 C.ar    1  UNL11      -0.0617
      9 C           7.7469    0.7682   -1.7300 C.ar    1  UNL11      -0.0612
     10 C           6.5083    0.1640   -1.6392 C.ar    1  UNL11      -0.0539
     11 C           3.0581    0.2907    0.0217 C.2     1  UNL11       0.2582
     12 O           2.9071    1.4155    0.5629 O.2     1  UNL11      -0.2692
     13 N           2.0116   -0.6638   -0.1247 N.am    1  UNL11      -0.2028
     14 C           0.6390   -0.5555    0.3044 C.ar    1  UNL11       0.0448
     15 C           0.2956   -0.3611    1.6231 C.ar    1  UNL11      -0.0398
     16 C          -0.9969   -0.2670    2.0830 C.ar    1  UNL11      -0.0597
     17 C          -2.0029   -0.3841    1.0930 C.ar    1  UNL11      -0.0581
     18 C          -1.7051   -0.5779   -0.2210 C.ar    1  UNL11      -0.0396
     19 C          -2.7504   -0.7436   -1.2551 C.3     1  UNL11       0.0211
     20 C          -2.1762   -0.9556   -2.5963 C.2     1  UNL11       0.1192
     21 N          -1.9347   -2.2426   -2.9851 N.2     1  UNL11      -0.0073
     22 N          -1.3663   -2.4975   -4.1357 N.am    1  UNL11      -0.0356
     23 C          -0.9996   -1.5231   -4.9753 C.2     1  UNL11       0.4383
     24 O          -0.4440   -1.7818   -6.0977 O.2     1  UNL11      -0.2116
     25 C          -1.2170   -0.1992   -4.6446 C.ar    1  UNL11       0.1004
     26 C          -0.8712    0.8202   -5.4978 C.ar    1  UNL11      -0.0441
     27 C          -1.1316    2.1354   -5.1354 C.ar    1  UNL11      -0.0608
     28 C          -1.7388    2.4110   -3.9161 C.ar    1  UNL11      -0.0611
     29 C          -2.0845    1.3998   -3.0588 C.ar    1  UNL11      -0.0518
     30 C          -1.8216    0.0783   -3.4217 C.ar    1  UNL11       0.0192
     31 C          -0.3485   -0.6637   -0.6207 C.ar    1  UNL11      -0.0363
     32 H           4.7099   -2.1363   -1.5071 H       1  UNL11       0.0677
     33 H           5.3202    1.4994    1.1849 H       1  UNL11       0.0624
     34 H           7.5307    2.5966    1.0434 H       1  UNL11       0.0618
     35 H           9.1030    2.1733   -0.7741 H       1  UNL11       0.0618
     36 H           8.4040    0.5431   -2.5657 H       1  UNL11       0.0618
     37 H           6.2003   -0.5382   -2.4100 H       1  UNL11       0.0624
     38 H           1.1124   -0.2732    2.3414 H       1  UNL11       0.0636
     39 H          -1.2460   -0.1111    3.1285 H       1  UNL11       0.0618
     40 H          -2.9915   -0.2910    1.5130 H       1  UNL11       0.0620
     41 H          -3.3248   -1.6786   -0.9718 H       1  UNL11       0.0379
     42 H          -3.4147    0.1285   -1.2292 H       1  UNL11       0.0379
     43 H          -1.1863   -3.4906   -4.4264 H       1  UNL11       0.4829
     44 H          -0.3996    0.5678   -6.4412 H       1  UNL11       0.0627
     45 H          -0.8537    2.9319   -5.8114 H       1  UNL11       0.0618
     46 H          -1.9501    3.4483   -3.6203 H       1  UNL11       0.0618
     47 H          -2.5602    1.6393   -2.0970 H       1  UNL11       0.0624
     48 H          -0.1412   -0.8092   -1.6618 H       1  UNL11       0.0639
@<TRIPOS>BOND
     1     1     2    2
     2     2     3    1
     3     3     4    2
     4     3    32    1
     5     4     5    1
     6     4    11    1
     7     5     6   ar
     8     6     7   ar
     9     6    33    1
    10     7     8   ar
    11     7    34    1
    12     8     9   ar
    13     8    35    1
    14     9    10   ar
    15     9    36    1
    16    10     5   ar
    17    10    37    1
    18    11    12    2
    19    11    13   am
    20    13    14    1
    21    13     2   am
    22    14    15   ar
    23    15    16   ar
    24    15    38    1
    25    16    17   ar
    26    16    39    1
    27    17    18   ar
    28    17    40    1
    29    18    19    1
    30    18    31   ar
    31    19    20    1
    32    19    41    1
    33    19    42    1
    34    20    21    2
    35    21    22    1
    36    22    23   am
    37    22    43    1
    38    23    24    2
    39    23    25    1
    40    25    26   ar
    41    26    27   ar
    42    26    44    1
    43    27    28   ar
    44    27    45    1
    45    28    29   ar
    46    28    46    1
    47    29    30   ar
    48    29    47    1
    49    30    20    1
    50    30    25   ar
    51    31    14   ar
    52    31    48    1
@<TRIPOS>MOLECULE
*****
 48 52 0 0 0
SMALL
GASTEIGER

@<TRIPOS>ATOM
      1 O           2.8976    1.4213    0.5933 O.2     1  UNL11      -0.2698
      2 C           3.0331    0.3086    0.0366 C.2     1  UNL11       0.2511
      3 C           4.2693   -0.2350   -0.5701 C.2     1  UNL11       0.0138
      4 C           4.0367   -1.4350   -1.0632 C.2     1  UNL11       0.0497
      5 C           5.0566   -2.2501   -1.7346 C.ar    1  UNL11      -0.0127
      6 C           6.3394   -1.7723   -1.8783 C.ar    1  UNL11      -0.0539
      7 C           7.2845   -2.5350   -2.5268 C.ar    1  UNL11      -0.0612
      8 C           7.0091   -3.7816   -3.0536 C.ar    1  UNL11      -0.0617
      9 C           5.7303   -4.2681   -2.9150 C.ar    1  UNL11      -0.0612
     10 C           4.7872   -3.4982   -2.2628 C.ar    1  UNL11      -0.0539
     11 C           2.6383   -1.7449   -0.8073 C.2     1  UNL11       0.2582
     12 O           2.0448   -2.8054   -1.1299 O.2     1  UNL11      -0.2692
     13 N           2.0116   -0.6638   -0.1247 N.am    1  UNL11      -0.2028
     14 C           0.6390   -0.5555    0.3044 C.ar    1  UNL11       0.0448
     15 C           0.2956   -0.3611    1.6231 C.ar    1  UNL11      -0.0398
     16 C          -0.9969   -0.2670    2.0830 C.ar    1  UNL11      -0.0597
     17 C          -2.0029   -0.3841    1.0930 C.ar    1  UNL11      -0.0581
     18 C          -1.7051   -0.5779   -0.2210 C.ar    1  UNL11      -0.0396
     19 C          -2.7504   -0.7436   -1.2551 C.3     1  UNL11       0.0211
     20 C          -2.3017   -1.6032   -2.3656 C.2     1  UNL11       0.1192
     21 N          -3.0112   -2.7447   -2.6089 N.2     1  UNL11      -0.0073
     22 N          -2.6287   -3.5844   -3.5365 N.am    1  UNL11      -0.0356
     23 C          -1.5392   -3.3678   -4.2815 C.2     1  UNL11       0.4383
     24 O          -1.1725   -4.1945   -5.1856 O.2     1  UNL11      -0.2116
     25 C          -0.7773   -2.2313   -4.0888 C.ar    1  UNL11       0.1004
     26 C           0.3331   -1.9727   -4.8549 C.ar    1  UNL11      -0.0441
     27 C           1.0547   -0.8051   -4.6437 C.ar    1  UNL11      -0.0608
     28 C           0.6501    0.0918   -3.6622 C.ar    1  UNL11      -0.0611
     29 C          -0.4549   -0.1603   -2.8926 C.ar    1  UNL11      -0.0518
     30 C          -1.1794   -1.3341   -3.1033 C.ar    1  UNL11       0.0192
     31 C          -0.3485   -0.6637   -0.6207 C.ar    1  UNL11      -0.0363
     32 H           5.1992    0.3382   -0.5664 H       1  UNL11       0.0677
     33 H           6.5740   -0.7887   -1.4649 H       1  UNL11       0.0624
     34 H           8.2794   -2.1459   -2.6311 H       1  UNL11       0.0618
     35 H           7.8030   -4.3487   -3.5668 H       1  UNL11       0.0618
     36 H           5.4587   -5.2412   -3.3147 H       1  UNL11       0.0618
     37 H           3.7740   -3.8767   -2.1531 H       1  UNL11       0.0624
     38 H           1.1124   -0.2732    2.3414 H       1  UNL11       0.0636
     39 H          -1.2460   -0.1111    3.1285 H       1  UNL11       0.0618
     40 H          -2.9915   -0.2910    1.5130 H       1  UNL11       0.0620
     41 H          -3.6175   -1.2632   -0.7426 H       1  UNL11       0.0379
     42 H          -3.0604    0.2478   -1.6065 H       1  UNL11       0.0379
     43 H          -3.1820   -4.4587   -3.7171 H       1  UNL11       0.4829
     44 H           0.6190   -2.6948   -5.6119 H       1  UNL11       0.0627
     45 H           1.9291   -0.6106   -5.2490 H       1  UNL11       0.0618
     46 H           1.2137    1.0192   -3.4879 H       1  UNL11       0.0618
     47 H          -0.7559    0.5601   -2.1186 H       1  UNL11       0.0624
     48 H          -0.1412   -0.8092   -1.6618 H       1  UNL11       0.0639
@<TRIPOS>BOND
     1     1     2    2
     2     2     3    1
     3     3     4    2
     4     3    32    1
     5     4     5    1
     6     4    11    1
     7     5     6   ar
     8     6     7   ar
     9     6    33    1
    10     7     8   ar
    11     7    34    1
    12     8     9   ar
    13     8    35    1
    14     9    10   ar
    15     9    36    1
    16    10     5   ar
    17    10    37    1
    18    11    12    2
    19    11    13   am
    20    13    14    1
    21    13     2   am
    22    14    15   ar
    23    15    16   ar
    24    15    38    1
    25    16    17   ar
    26    16    39    1
    27    17    18   ar
    28    17    40    1
    29    18    19    1
    30    18    31   ar
    31    19    20    1
    32    19    41    1
    33    19    42    1
    34    20    21    2
    35    21    22    1
    36    22    23   am
    37    22    43    1
    38    23    24    2
    39    23    25    1
    40    25    26   ar
    41    26    27   ar
    42    26    44    1
    43    27    28   ar
    44    27    45    1
    45    28    29   ar
    46    28    46    1
    47    29    30   ar
    48    29    47    1
    49    30    20    1
    50    30    25   ar
    51    31    14   ar
    52    31    48    1
@<TRIPOS>MOLECULE
*****
 48 52 0 0 0
SMALL
GASTEIGER

@<TRIPOS>ATOM
      1 O           2.0330   -2.8314   -1.0988 O.2     1  UNL11      -0.2698
      2 C           2.6137   -1.7696   -0.7801 C.2     1  UNL11       0.2511
      3 C           4.0371   -1.4334   -1.0105 C.2     1  UNL11       0.0138
      4 C           4.2951   -0.2292   -0.5409 C.2     1  UNL11       0.0497
      5 C           5.6173    0.4051   -0.6111 C.ar    1  UNL11      -0.0127
      6 C           6.4771    0.0996   -1.6417 C.ar    1  UNL11      -0.0539
      7 C           7.7228    0.6838   -1.6888 C.ar    1  UNL11      -0.0612
      8 C           8.1671    1.5799   -0.7365 C.ar    1  UNL11      -0.0617
      9 C           7.3154    1.8919    0.2972 C.ar    1  UNL11      -0.0612
     10 C           6.0669    1.3027    0.3382 C.ar    1  UNL11      -0.0539
     11 C           3.0581    0.2907    0.0217 C.2     1  UNL11       0.2582
     12 O           2.9071    1.4155    0.5629 O.2     1  UNL11      -0.2692
     13 N           2.0116   -0.6638   -0.1247 N.am    1  UNL11      -0.2028
     14 C           0.6390   -0.5555    0.3044 C.ar    1  UNL11       0.0448
     15 C           0.2956   -0.3611    1.6231 C.ar    1  UNL11      -0.0398
     16 C          -0.9969   -0.2670    2.0830 C.ar    1  UNL11      -0.0597
     17 C          -2.0029   -0.3841    1.0930 C.ar    1  UNL11      -0.0581
     18 C          -1.7051   -0.5779   -0.2210 C.ar    1  UNL11      -0.0396
     19 C          -2.7504   -0.7436   -1.2551 C.3     1  UNL11       0.0211
     20 C          -3.9896   -0.0220   -0.9128 C.2     1  UNL11       0.1192
     21 N          -5.0359   -0.1115   -1.7862 N.2     1  UNL11      -0.0073
     22 N          -6.1411    0.5564   -1.5758 N.am    1  UNL11      -0.0356
     23 C          -6.2973    1.3482   -0.5092 C.2     1  UNL11       0.4383
     24 O          -7.3810    1.9979   -0.3120 O.2     1  UNL11      -0.2116
     25 C          -5.2789    1.4822    0.4150 C.ar    1  UNL11       0.1004
     26 C          -5.4208    2.2704    1.5309 C.ar    1  UNL11      -0.0441
     27 C          -4.3803    2.3556    2.4468 C.ar    1  UNL11      -0.0608
     28 C          -3.2060    1.6449    2.2296 C.ar    1  UNL11      -0.0611
     29 C          -3.0560    0.8585    1.1179 C.ar    1  UNL11      -0.0518
     30 C          -4.1005    0.7738    0.1965 C.ar    1  UNL11       0.0192
     31 C          -0.3485   -0.6637   -0.6207 C.ar    1  UNL11      -0.0363
     32 H           4.7099   -2.1363   -1.5071 H       1  UNL11       0.0677
     33 H           6.1396   -0.6058   -2.4046 H       1  UNL11       0.0624
     34 H           8.3808    0.4327   -2.4989 H       1  UNL11       0.0618
     35 H           9.1762    2.0157   -0.8207 H       1  UNL11       0.0618
     36 H           7.6164    2.5876    1.0756 H       1  UNL11       0.0618
     37 H           5.3908    1.5437    1.1548 H       1  UNL11       0.0624
     38 H           1.1124   -0.2732    2.3414 H       1  UNL11       0.0636
     39 H          -1.2460   -0.1111    3.1285 H       1  UNL11       0.0618
     40 H          -2.9915   -0.2910    1.5130 H       1  UNL11       0.0620
     41 H          -2.3301   -0.2821   -2.2011 H       1  UNL11       0.0379
     42 H          -2.9309   -1.8145   -1.4069 H       1  UNL11       0.0379
     43 H          -6.9407    0.4797   -2.2525 H       1  UNL11       0.4829
     44 H          -6.3514    2.8103    1.6680 H       1  UNL11       0.0627
     45 H          -4.4991    2.9806    3.3209 H       1  UNL11       0.0618
     46 H          -2.3770    1.7047    2.9488 H       1  UNL11       0.0618
     47 H          -2.1175    0.3075    0.9625 H       1  UNL11       0.0624
     48 H          -0.1412   -0.8092   -1.6618 H       1  UNL11       0.0639
@<TRIPOS>BOND
     1     1     2    2
     2     2     3    1
     3     3     4    2
     4     3    32    1
     5     4     5    1
     6     4    11    1
     7     5     6   ar
     8     6     7   ar
     9     6    33    1
    10     7     8   ar
    11     7    34    1
    12     8     9   ar
    13     8    35    1
    14     9    10   ar
    15     9    36    1
    16    10     5   ar
    17    10    37    1
    18    11    12    2
    19    11    13   am
    20    13    14    1
    21    13     2   am
    22    14    15   ar
    23    15    16   ar
    24    15    38    1
    25    16    17   ar
    26    16    39    1
    27    17    18   ar
    28    17    40    1
    29    18    19    1
    30    18    31   ar
    31    19    20    1
    32    19    41    1
    33    19    42    1
    34    20    21    2
    35    21    22    1
    36    22    23   am
    37    22    43    1
    38    23    24    2
    39    23    25    1
    40    25    26   ar
    41    26    27   ar
    42    26    44    1
    43    27    28   ar
    44    27    45    1
    45    28    29   ar
    46    28    46    1
    47    29    30   ar
    48    29    47    1
    49    30    20    1
    50    30    25   ar
    51    31    14   ar
    52    31    48    1
@<TRIPOS>MOLECULE
*****
 48 52 0 0 0
SMALL
GASTEIGER

@<TRIPOS>ATOM
      1 O           2.7345   -2.5797    1.0814 O.2     1  UNL11      -0.2698
      2 C           2.9561   -1.6421    0.2827 C.2     1  UNL11       0.2511
      3 C           4.2331   -1.3462   -0.4055 C.2     1  UNL11       0.0138
      4 C           4.0943   -0.2815   -1.1701 C.2     1  UNL11       0.0497
      5 C           5.1763    0.2779   -1.9896 C.ar    1  UNL11      -0.0127
      6 C           4.9559    1.4029   -2.7516 C.ar    1  UNL11      -0.0539
      7 C           5.9703    1.9092   -3.5326 C.ar    1  UNL11      -0.0612
      8 C           7.2256    1.3366   -3.5949 C.ar    1  UNL11      -0.0617
      9 C           7.4560    0.2125   -2.8371 C.ar    1  UNL11      -0.0612
     10 C           6.4342   -0.2899   -2.0553 C.ar    1  UNL11      -0.0539
     11 C           2.7215    0.1787   -1.0268 C.2     1  UNL11       0.2582
     12 O           2.2103    1.1716   -1.6045 O.2     1  UNL11      -0.2692
     13 N           2.0116   -0.6638   -0.1247 N.am    1  UNL11      -0.2028
     14 C           0.6390   -0.5555    0.3044 C.ar    1  UNL11       0.0448
     15 C           0.2956   -0.3611    1.6231 C.ar    1  UNL11      -0.0398
     16 C          -0.9969   -0.2670    2.0830 C.ar    1  UNL11      -0.0597
     17 C          -2.0029   -0.3841    1.0930 C.ar    1  UNL11      -0.0581
     18 C          -1.7051   -0.5779   -0.2210 C.ar    1  UNL11      -0.0396
     19 C          -2.7504   -0.7436   -1.2551 C.3     1  UNL11       0.0211
     20 C          -2.6475   -2.0420   -1.9458 C.2     1  UNL11       0.1192
     21 N          -2.4449   -2.0260   -3.2965 N.2     1  UNL11      -0.0073
     22 N          -2.4093   -3.1410   -3.9802 N.am    1  UNL11      -0.0356
     23 C          -2.5672   -4.3342   -3.3968 C.2     1  UNL11       0.4383
     24 O          -2.5316   -5.4189   -4.0732 O.2     1  UNL11      -0.2116
     25 C          -2.7736   -4.4220   -2.0333 C.ar    1  UNL11       0.1004
     26 C          -2.9159   -5.6352   -1.4052 C.ar    1  UNL11      -0.0441
     27 C          -3.0960   -5.6774   -0.0287 C.ar    1  UNL11      -0.0608
     28 C          -3.1305   -4.4959    0.7023 C.ar    1  UNL11      -0.0611
     29 C          -2.9916   -3.2820    0.0826 C.ar    1  UNL11      -0.0518
     30 C          -2.8123   -3.2389   -1.3006 C.ar    1  UNL11       0.0192
     31 C          -0.3485   -0.6637   -0.6207 C.ar    1  UNL11      -0.0363
     32 H           5.1161   -1.9702   -0.2498 H       1  UNL11       0.0677
     33 H           3.9689    1.8692   -2.7114 H       1  UNL11       0.0624
     34 H           5.7801    2.7862   -4.1216 H       1  UNL11       0.0618
     35 H           8.0008    1.7814   -4.2402 H       1  UNL11       0.0618
     36 H           8.4242   -0.2803   -2.8525 H       1  UNL11       0.0618
     37 H           6.6101   -1.1801   -1.4565 H       1  UNL11       0.0624
     38 H           1.1124   -0.2732    2.3414 H       1  UNL11       0.0636
     39 H          -1.2460   -0.1111    3.1285 H       1  UNL11       0.0618
     40 H          -2.9915   -0.2910    1.5130 H       1  UNL11       0.0620
     41 H          -3.7409   -0.7209   -0.7047 H       1  UNL11       0.0379
     42 H          -2.6903    0.0972   -1.9565 H       1  UNL11       0.0379
     43 H          -2.2514   -3.1183   -5.0183 H       1  UNL11       0.4829
     44 H          -2.8832   -6.5365   -2.0074 H       1  UNL11       0.0627
     45 H          -3.2102   -6.6362    0.4574 H       1  UNL11       0.0618
     46 H          -3.2715   -4.5185    1.7921 H       1  UNL11       0.0618
     47 H          -3.0259   -2.3587    0.6784 H       1  UNL11       0.0624
     48 H          -0.1412   -0.8092   -1.6618 H       1  UNL11       0.0639
@<TRIPOS>BOND
     1     1     2    2
     2     2     3    1
     3     3     4    2
     4     3    32    1
     5     4     5    1
     6     4    11    1
     7     5     6   ar
     8     6     7   ar
     9     6    33    1
    10     7     8   ar
    11     7    34    1
    12     8     9   ar
    13     8    35    1
    14     9    10   ar
    15     9    36    1
    16    10     5   ar
    17    10    37    1
    18    11    12    2
    19    11    13   am
    20    13    14    1
    21    13     2   am
    22    14    15   ar
    23    15    16   ar
    24    15    38    1
    25    16    17   ar
    26    16    39    1
    27    17    18   ar
    28    17    40    1
    29    18    19    1
    30    18    31   ar
    31    19    20    1
    32    19    41    1
    33    19    42    1
    34    20    21    2
    35    21    22    1
    36    22    23   am
    37    22    43    1
    38    23    24    2
    39    23    25    1
    40    25    26   ar
    41    26    27   ar
    42    26    44    1
    43    27    28   ar
    44    27    45    1
    45    28    29   ar
    46    28    46    1
    47    29    30   ar
    48    29    47    1
    49    30    20    1
    50    30    25   ar
    51    31    14   ar
    52    31    48    1
@<TRIPOS>MOLECULE
*****
 48 52 0 0 0
SMALL
GASTEIGER

@<TRIPOS>ATOM
      1 O           3.1007   -1.2266    1.9113 O.2     1  UNL11      -0.2698
      2 C           3.1340   -0.9801    0.6848 C.2     1  UNL11       0.2511
      3 C           4.3325   -0.9625   -0.1842 C.2     1  UNL11       0.0138
      4 C           3.9861   -0.6625   -1.4201 C.2     1  UNL11       0.0497
      5 C           4.9408   -0.5627   -2.5309 C.ar    1  UNL11      -0.0127
      6 C           5.2299   -1.6699   -3.2959 C.ar    1  UNL11      -0.0539
      7 C           6.1414   -1.5722   -4.3231 C.ar    1  UNL11      -0.0612
      8 C           6.7967   -0.3970   -4.6346 C.ar    1  UNL11      -0.0617
      9 C           6.5145    0.7149   -3.8764 C.ar    1  UNL11      -0.0612
     10 C           5.5987    0.6102   -2.8478 C.ar    1  UNL11      -0.0539
     11 C           2.5442   -0.4678   -1.4306 C.2     1  UNL11       0.2582
     12 O           1.8455   -0.1705   -2.4327 O.2     1  UNL11      -0.2692
     13 N           2.0116   -0.6638   -0.1247 N.am    1  UNL11      -0.2028
     14 C           0.6390   -0.5555    0.3044 C.ar    1  UNL11       0.0448
     15 C           0.2956   -0.3611    1.6231 C.ar    1  UNL11      -0.0398
     16 C          -0.9969   -0.2670    2.0830 C.ar    1  UNL11      -0.0597
     17 C          -2.0029   -0.3841    1.0930 C.ar    1  UNL11      -0.0581
     18 C          -1.7051   -0.5779   -0.2210 C.ar    1  UNL11      -0.0396
     19 C          -2.7504   -0.7436   -1.2551 C.3     1  UNL11       0.0211
     20 C          -4.1092   -0.6726   -0.6876 C.2     1  UNL11       0.1192
     21 N          -4.2785   -1.0864    0.6030 N.2     1  UNL11      -0.0073
     22 N          -5.4686   -1.1110    1.1463 N.am    1  UNL11      -0.0356
     23 C          -6.5618   -0.7366    0.4728 C.2     1  UNL11       0.4383
     24 O          -7.7212   -0.7645    1.0118 O.2     1  UNL11      -0.2116
     25 C          -6.4610   -0.3050   -0.8360 C.ar    1  UNL11       0.1004
     26 C          -7.5640    0.1068   -1.5434 C.ar    1  UNL11      -0.0441
     27 C          -7.4125    0.5572   -2.8483 C.ar    1  UNL11      -0.0608
     28 C          -6.1500    0.5889   -3.4284 C.ar    1  UNL11      -0.0611
     29 C          -5.0454    0.1777   -2.7300 C.ar    1  UNL11      -0.0518
     30 C          -5.1973   -0.2765   -1.4193 C.ar    1  UNL11       0.0192
     31 C          -0.3485   -0.6637   -0.6207 C.ar    1  UNL11      -0.0363
     32 H           5.3246   -1.1801    0.2179 H       1  UNL11       0.0677
     33 H           4.7180   -2.6066   -3.0638 H       1  UNL11       0.0624
     34 H           6.3558   -2.4461   -4.9082 H       1  UNL11       0.0618
     35 H           7.5203   -0.3754   -5.4659 H       1  UNL11       0.0618
     36 H           7.0051    1.6637   -4.0758 H       1  UNL11       0.0618
     37 H           5.3742    1.4856   -2.2434 H       1  UNL11       0.0624
     38 H           1.1124   -0.2732    2.3414 H       1  UNL11       0.0636
     39 H          -1.2460   -0.1111    3.1285 H       1  UNL11       0.0618
     40 H          -2.9915   -0.2910    1.5130 H       1  UNL11       0.0620
     41 H          -2.6260    0.1287   -1.9678 H       1  UNL11       0.0379
     42 H          -2.5782   -1.6888   -1.7836 H       1  UNL11       0.0379
     43 H          -5.5882   -1.4293    2.1400 H       1  UNL11       0.4829
     44 H          -8.5334    0.0689   -1.0585 H       1  UNL11       0.0627
     45 H          -8.2862    0.8767   -3.3991 H       1  UNL11       0.0618
     46 H          -6.0192    0.9445   -4.4601 H       1  UNL11       0.0618
     47 H          -4.0560    0.2066   -3.2084 H       1  UNL11       0.0624
     48 H          -0.1412   -0.8092   -1.6618 H       1  UNL11       0.0639
@<TRIPOS>BOND
     1     1     2    2
     2     2     3    1
     3     3     4    2
     4     3    32    1
     5     4     5    1
     6     4    11    1
     7     5     6   ar
     8     6     7   ar
     9     6    33    1
    10     7     8   ar
    11     7    34    1
    12     8     9   ar
    13     8    35    1
    14     9    10   ar
    15     9    36    1
    16    10     5   ar
    17    10    37    1
    18    11    12    2
    19    11    13   am
    20    13    14    1
    21    13     2   am
    22    14    15   ar
    23    15    16   ar
    24    15    38    1
    25    16    17   ar
    26    16    39    1
    27    17    18   ar
    28    17    40    1
    29    18    19    1
    30    18    31   ar
    31    19    20    1
    32    19    41    1
    33    19    42    1
    34    20    21    2
    35    21    22    1
    36    22    23   am
    37    22    43    1
    38    23    24    2
    39    23    25    1
    40    25    26   ar
    41    26    27   ar
    42    26    44    1
    43    27    28   ar
    44    27    45    1
    45    28    29   ar
    46    28    46    1
    47    29    30   ar
    48    29    47    1
    49    30    20    1
    50    30    25   ar
    51    31    14   ar
    52    31    48    1
@<TRIPOS>MOLECULE
*****
 48 52 0 0 0
SMALL
GASTEIGER

@<TRIPOS>ATOM
      1 O           3.1007   -1.2266    1.9113 O.2     1  UNL11      -0.2698
      2 C           3.1340   -0.9801    0.6848 C.2     1  UNL11       0.2511
      3 C           4.3325   -0.9625   -0.1842 C.2     1  UNL11       0.0138
      4 C           3.9861   -0.6625   -1.4201 C.2     1  UNL11       0.0497
      5 C           4.9408   -0.5627   -2.5309 C.ar    1  UNL11      -0.0127
      6 C           4.7002    0.3028   -3.5739 C.ar    1  UNL11      -0.0539
      7 C           5.5907    0.3755   -4.6213 C.ar    1  UNL11      -0.0612
      8 C           6.7383   -0.3904   -4.6842 C.ar    1  UNL11      -0.0617
      9 C           6.9878   -1.2580   -3.6469 C.ar    1  UNL11      -0.0612
     10 C           6.0907   -1.3256   -2.5989 C.ar    1  UNL11      -0.0539
     11 C           2.5442   -0.4678   -1.4306 C.2     1  UNL11       0.2582
     12 O           1.8455   -0.1705   -2.4327 O.2     1  UNL11      -0.2692
     13 N           2.0116   -0.6638   -0.1247 N.am    1  UNL11      -0.2028
     14 C           0.6390   -0.5555    0.3044 C.ar    1  UNL11       0.0448
     15 C           0.2956   -0.3611    1.6231 C.ar    1  UNL11      -0.0398
     16 C          -0.9969   -0.2670    2.0830 C.ar    1  UNL11      -0.0597
     17 C          -2.0029   -0.3841    1.0930 C.ar    1  UNL11      -0.0581
     18 C          -1.7051   -0.5779   -0.2210 C.ar    1  UNL11      -0.0396
     19 C          -2.7504   -0.7436   -1.2551 C.3     1  UNL11       0.0211
     20 C          -2.1762   -0.9556   -2.5963 C.2     1  UNL11       0.1192
     21 N          -1.9347   -2.2426   -2.9851 N.2     1  UNL11      -0.0073
     22 N          -1.3663   -2.4975   -4.1357 N.am    1  UNL11      -0.0356
     23 C          -0.9996   -1.5231   -4.9753 C.2     1  UNL11       0.4383
     24 O          -0.4440   -1.7818   -6.0977 O.2     1  UNL11      -0.2116
     25 C          -1.2170   -0.1992   -4.6446 C.ar    1  UNL11       0.1004
     26 C          -0.8712    0.8202   -5.4978 C.ar    1  UNL11      -0.0441
     27 C          -1.1316    2.1354   -5.1354 C.ar    1  UNL11      -0.0608
     28 C          -1.7388    2.4110   -3.9161 C.ar    1  UNL11      -0.0611
     29 C          -2.0845    1.3998   -3.0588 C.ar    1  UNL11      -0.0518
     30 C          -1.8216    0.0783   -3.4217 C.ar    1  UNL11       0.0192
     31 C          -0.3485   -0.6637   -0.6207 C.ar    1  UNL11      -0.0363
     32 H           5.3246   -1.1801    0.2179 H       1  UNL11       0.0677
     33 H           3.7979    0.9175   -3.5379 H       1  UNL11       0.0624
     34 H           5.3863    1.0548   -5.4269 H       1  UNL11       0.0618
     35 H           7.4157   -0.2949   -5.5486 H       1  UNL11       0.0618
     36 H           7.8738   -1.8870   -3.6483 H       1  UNL11       0.0618
     37 H           6.2817   -2.0120   -1.7777 H       1  UNL11       0.0624
     38 H           1.1124   -0.2732    2.3414 H       1  UNL11       0.0636
     39 H          -1.2460   -0.1111    3.1285 H       1  UNL11       0.0618
     40 H          -2.9915   -0.2910    1.5130 H       1  UNL11       0.0620
     41 H          -3.3248   -1.6786   -0.9718 H       1  UNL11       0.0379
     42 H          -3.4147    0.1285   -1.2292 H       1  UNL11       0.0379
     43 H          -1.1863   -3.4906   -4.4264 H       1  UNL11       0.4829
     44 H          -0.3996    0.5678   -6.4412 H       1  UNL11       0.0627
     45 H          -0.8537    2.9319   -5.8114 H       1  UNL11       0.0618
     46 H          -1.9501    3.4483   -3.6203 H       1  UNL11       0.0618
     47 H          -2.5602    1.6393   -2.0970 H       1  UNL11       0.0624
     48 H          -0.1412   -0.8092   -1.6618 H       1  UNL11       0.0639
@<TRIPOS>BOND
     1     1     2    2
     2     2     3    1
     3     3     4    2
     4     3    32    1
     5     4     5    1
     6     4    11    1
     7     5     6   ar
     8     6     7   ar
     9     6    33    1
    10     7     8   ar
    11     7    34    1
    12     8     9   ar
    13     8    35    1
    14     9    10   ar
    15     9    36    1
    16    10     5   ar
    17    10    37    1
    18    11    12    2
    19    11    13   am
    20    13    14    1
    21    13     2   am
    22    14    15   ar
    23    15    16   ar
    24    15    38    1
    25    16    17   ar
    26    16    39    1
    27    17    18   ar
    28    17    40    1
    29    18    19    1
    30    18    31   ar
    31    19    20    1
    32    19    41    1
    33    19    42    1
    34    20    21    2
    35    21    22    1
    36    22    23   am
    37    22    43    1
    38    23    24    2
    39    23    25    1
    40    25    26   ar
    41    26    27   ar
    42    26    44    1
    43    27    28   ar
    44    27    45    1
    45    28    29   ar
    46    28    46    1
    47    29    30   ar
    48    29    47    1
    49    30    20    1
    50    30    25   ar
    51    31    14   ar
    52    31    48    1
@<TRIPOS>MOLECULE
*****
 48 52 0 0 0
SMALL
GASTEIGER

@<TRIPOS>ATOM
      1 O           2.0330   -2.8314   -1.0988 O.2     1  UNL11      -0.2698
      2 C           2.6137   -1.7696   -0.7801 C.2     1  UNL11       0.2511
      3 C           4.0371   -1.4334   -1.0105 C.2     1  UNL11       0.0138
      4 C           4.2951   -0.2292   -0.5409 C.2     1  UNL11       0.0497
      5 C           5.6173    0.4051   -0.6111 C.ar    1  UNL11      -0.0127
      6 C           6.4771    0.0996   -1.6417 C.ar    1  UNL11      -0.0539
      7 C           7.7228    0.6838   -1.6888 C.ar    1  UNL11      -0.0612
      8 C           8.1671    1.5799   -0.7365 C.ar    1  UNL11      -0.0617
      9 C           7.3154    1.8919    0.2972 C.ar    1  UNL11      -0.0612
     10 C           6.0669    1.3027    0.3382 C.ar    1  UNL11      -0.0539
     11 C           3.0581    0.2907    0.0217 C.2     1  UNL11       0.2582
     12 O           2.9071    1.4155    0.5629 O.2     1  UNL11      -0.2692
     13 N           2.0116   -0.6638   -0.1247 N.am    1  UNL11      -0.2028
     14 C           0.6390   -0.5555    0.3044 C.ar    1  UNL11       0.0448
     15 C           0.2956   -0.3611    1.6231 C.ar    1  UNL11      -0.0398
     16 C          -0.9969   -0.2670    2.0830 C.ar    1  UNL11      -0.0597
     17 C          -2.0029   -0.3841    1.0930 C.ar    1  UNL11      -0.0581
     18 C          -1.7051   -0.5779   -0.2210 C.ar    1  UNL11      -0.0396
     19 C          -2.7504   -0.7436   -1.2551 C.3     1  UNL11       0.0211
     20 C          -3.6243   -1.8989   -0.9813 C.2     1  UNL11       0.1192
     21 N          -4.7462   -1.6807   -0.2333 N.2     1  UNL11      -0.0073
     22 N          -5.5299   -2.6736    0.1012 N.am    1  UNL11      -0.0356
     23 C          -5.2736   -3.9331   -0.2688 C.2     1  UNL11       0.4383
     24 O          -6.0451   -4.8974    0.0634 O.2     1  UNL11      -0.2116
     25 C          -4.1565   -4.2233   -1.0284 C.ar    1  UNL11       0.1004
     26 C          -3.8817   -5.5041   -1.4413 C.ar    1  UNL11      -0.0441
     27 C          -2.7612   -5.7460   -2.2253 C.ar    1  UNL11      -0.0608
     28 C          -1.9279   -4.6941   -2.5865 C.ar    1  UNL11      -0.0611
     29 C          -2.1941   -3.4143   -2.1766 C.ar    1  UNL11      -0.0518
     30 C          -3.3189   -3.1709   -1.3875 C.ar    1  UNL11       0.0192
     31 C          -0.3485   -0.6637   -0.6207 C.ar    1  UNL11      -0.0363
     32 H           4.7099   -2.1363   -1.5071 H       1  UNL11       0.0677
     33 H           6.1396   -0.6058   -2.4046 H       1  UNL11       0.0624
     34 H           8.3808    0.4327   -2.4989 H       1  UNL11       0.0618
     35 H           9.1762    2.0157   -0.8207 H       1  UNL11       0.0618
     36 H           7.6164    2.5876    1.0756 H       1  UNL11       0.0618
     37 H           5.3908    1.5437    1.1548 H       1  UNL11       0.0624
     38 H           1.1124   -0.2732    2.3414 H       1  UNL11       0.0636
     39 H          -1.2460   -0.1111    3.1285 H       1  UNL11       0.0618
     40 H          -2.9915   -0.2910    1.5130 H       1  UNL11       0.0620
     41 H          -3.3877    0.1924   -1.2081 H       1  UNL11       0.0379
     42 H          -2.2676   -0.8211   -2.2366 H       1  UNL11       0.0379
     43 H          -6.3912   -2.4952    0.6753 H       1  UNL11       0.4829
     44 H          -4.5544   -6.3001   -1.1410 H       1  UNL11       0.0627
     45 H          -2.5505   -6.7575   -2.5436 H       1  UNL11       0.0618
     46 H          -1.0392   -4.8748   -3.2075 H       1  UNL11       0.0618
     47 H          -1.5200   -2.5967   -2.4697 H       1  UNL11       0.0624
     48 H          -0.1412   -0.8092   -1.6618 H       1  UNL11       0.0639
@<TRIPOS>BOND
     1     1     2    2
     2     2     3    1
     3     3     4    2
     4     3    32    1
     5     4     5    1
     6     4    11    1
     7     5     6   ar
     8     6     7   ar
     9     6    33    1
    10     7     8   ar
    11     7    34    1
    12     8     9   ar
    13     8    35    1
    14     9    10   ar
    15     9    36    1
    16    10     5   ar
    17    10    37    1
    18    11    12    2
    19    11    13   am
    20    13    14    1
    21    13     2   am
    22    14    15   ar
    23    15    16   ar
    24    15    38    1
    25    16    17   ar
    26    16    39    1
    27    17    18   ar
    28    17    40    1
    29    18    19    1
    30    18    31   ar
    31    19    20    1
    32    19    41    1
    33    19    42    1
    34    20    21    2
    35    21    22    1
    36    22    23   am
    37    22    43    1
    38    23    24    2
    39    23    25    1
    40    25    26   ar
    41    26    27   ar
    42    26    44    1
    43    27    28   ar
    44    27    45    1
    45    28    29   ar
    46    28    46    1
    47    29    30   ar
    48    29    47    1
    49    30    20    1
    50    30    25   ar
    51    31    14   ar
    52    31    48    1
@<TRIPOS>MOLECULE
*****
 48 52 0 0 0
SMALL
GASTEIGER

@<TRIPOS>ATOM
      1 O           2.1810    1.1641   -1.6340 O.2     1  UNL11      -0.2698
      2 C           2.6833    0.1783   -1.0492 C.2     1  UNL11       0.2511
      3 C           4.0691   -0.3241   -1.1882 C.2     1  UNL11       0.0138
      4 C           4.2418   -1.3815   -0.4205 C.2     1  UNL11       0.0497
      5 C           5.5071   -2.1203   -0.3264 C.ar    1  UNL11      -0.0127
      6 C           6.5982   -1.7199   -1.0639 C.ar    1  UNL11      -0.0539
      7 C           7.7748   -2.4303   -0.9848 C.ar    1  UNL11      -0.0612
      8 C           7.9233   -3.5484   -0.1879 C.ar    1  UNL11      -0.0617
      9 C           6.8391   -3.9564    0.5531 C.ar    1  UNL11      -0.0612
     10 C           5.6619   -3.2390    0.4696 C.ar    1  UNL11      -0.0539
     11 C           2.9822   -1.6305    0.2638 C.2     1  UNL11       0.2582
     12 O           2.7567   -2.5563    1.0842 O.2     1  UNL11      -0.2692
     13 N           2.0116   -0.6638   -0.1247 N.am    1  UNL11      -0.2028
     14 C           0.6390   -0.5555    0.3044 C.ar    1  UNL11       0.0448
     15 C           0.2956   -0.3611    1.6231 C.ar    1  UNL11      -0.0398
     16 C          -0.9969   -0.2670    2.0830 C.ar    1  UNL11      -0.0597
     17 C          -2.0029   -0.3841    1.0930 C.ar    1  UNL11      -0.0581
     18 C          -1.7051   -0.5779   -0.2210 C.ar    1  UNL11      -0.0396
     19 C          -2.7504   -0.7436   -1.2551 C.3     1  UNL11       0.0211
     20 C          -3.9896   -0.0220   -0.9128 C.2     1  UNL11       0.1192
     21 N          -4.7524    0.4498   -1.9430 N.2     1  UNL11      -0.0073
     22 N          -5.8295    1.1547   -1.7087 N.am    1  UNL11      -0.0356
     23 C          -6.2301    1.4429   -0.4656 C.2     1  UNL11       0.4383
     24 O          -7.2840    2.1332   -0.2462 O.2     1  UNL11      -0.2116
     25 C          -5.5056    0.9945    0.6222 C.ar    1  UNL11       0.1004
     26 C          -5.9067    1.2565    1.9095 C.ar    1  UNL11      -0.0441
     27 C          -5.1617    0.7641    2.9731 C.ar    1  UNL11      -0.0608
     28 C          -4.0191    0.0116    2.7293 C.ar    1  UNL11      -0.0611
     29 C          -3.6114   -0.2519    1.4482 C.ar    1  UNL11      -0.0518
     30 C          -4.3587    0.2439    0.3792 C.ar    1  UNL11       0.0192
     31 C          -0.3485   -0.6637   -0.6207 C.ar    1  UNL11      -0.0363
     32 H           4.7843    0.1685   -1.8508 H       1  UNL11       0.0677
     33 H           6.4977   -0.8357   -1.6974 H       1  UNL11       0.0624
     34 H           8.6150   -2.1046   -1.5681 H       1  UNL11       0.0618
     35 H           8.8875   -4.0823   -0.1648 H       1  UNL11       0.0618
     36 H           6.9002   -4.8323    1.1931 H       1  UNL11       0.0618
     37 H           4.8008   -3.5589    1.0510 H       1  UNL11       0.0624
     38 H           1.1124   -0.2732    2.3414 H       1  UNL11       0.0636
     39 H          -1.2460   -0.1111    3.1285 H       1  UNL11       0.0618
     40 H          -2.9915   -0.2910    1.5130 H       1  UNL11       0.0620
     41 H          -2.3301   -0.2821   -2.2011 H       1  UNL11       0.0379
     42 H          -2.9309   -1.8145   -1.4069 H       1  UNL11       0.0379
     43 H          -6.4102    1.5117   -2.5077 H       1  UNL11       0.4829
     44 H          -6.8038    1.8466    2.0620 H       1  UNL11       0.0627
     45 H          -5.4827    0.9774    3.9832 H       1  UNL11       0.0618
     46 H          -3.4231   -0.3835    3.5641 H       1  UNL11       0.0618
     47 H          -2.7022   -0.8458    1.2768 H       1  UNL11       0.0624
     48 H          -0.1412   -0.8092   -1.6618 H       1  UNL11       0.0639
@<TRIPOS>BOND
     1     1     2    2
     2     2     3    1
     3     3     4    2
     4     3    32    1
     5     4     5    1
     6     4    11    1
     7     5     6   ar
     8     6     7   ar
     9     6    33    1
    10     7     8   ar
    11     7    34    1
    12     8     9   ar
    13     8    35    1
    14     9    10   ar
    15     9    36    1
    16    10     5   ar
    17    10    37    1
    18    11    12    2
    19    11    13   am
    20    13    14    1
    21    13     2   am
    22    14    15   ar
    23    15    16   ar
    24    15    38    1
    25    16    17   ar
    26    16    39    1
    27    17    18   ar
    28    17    40    1
    29    18    19    1
    30    18    31   ar
    31    19    20    1
    32    19    41    1
    33    19    42    1
    34    20    21    2
    35    21    22    1
    36    22    23   am
    37    22    43    1
    38    23    24    2
    39    23    25    1
    40    25    26   ar
    41    26    27   ar
    42    26    44    1
    43    27    28   ar
    44    27    45    1
    45    28    29   ar
    46    28    46    1
    47    29    30   ar
    48    29    47    1
    49    30    20    1
    50    30    25   ar
    51    31    14   ar
    52    31    48    1
@<TRIPOS>MOLECULE
*****
 48 52 0 0 0
SMALL
GASTEIGER

@<TRIPOS>ATOM
      1 O           3.1007   -1.2266    1.9113 O.2     1  UNL11      -0.2698
      2 C           3.1340   -0.9801    0.6848 C.2     1  UNL11       0.2511
      3 C           4.3325   -0.9625   -0.1842 C.2     1  UNL11       0.0138
      4 C           3.9861   -0.6625   -1.4201 C.2     1  UNL11       0.0497
      5 C           4.9408   -0.5627   -2.5309 C.ar    1  UNL11      -0.0127
      6 C           4.7002    0.3028   -3.5739 C.ar    1  UNL11      -0.0539
      7 C           5.5907    0.3755   -4.6213 C.ar    1  UNL11      -0.0612
      8 C           6.7383   -0.3904   -4.6842 C.ar    1  UNL11      -0.0617
      9 C           6.9878   -1.2580   -3.6469 C.ar    1  UNL11      -0.0612
     10 C           6.0907   -1.3256   -2.5989 C.ar    1  UNL11      -0.0539
     11 C           2.5442   -0.4678   -1.4306 C.2     1  UNL11       0.2582
     12 O           1.8455   -0.1705   -2.4327 O.2     1  UNL11      -0.2692
     13 N           2.0116   -0.6638   -0.1247 N.am    1  UNL11      -0.2028
     14 C           0.6390   -0.5555    0.3044 C.ar    1  UNL11       0.0448
     15 C           0.2956   -0.3611    1.6231 C.ar    1  UNL11      -0.0398
     16 C          -0.9969   -0.2670    2.0830 C.ar    1  UNL11      -0.0597
     17 C          -2.0029   -0.3841    1.0930 C.ar    1  UNL11      -0.0581
     18 C          -1.7051   -0.5779   -0.2210 C.ar    1  UNL11      -0.0396
     19 C          -2.7504   -0.7436   -1.2551 C.3     1  UNL11       0.0211
     20 C          -2.3158   -0.2383   -2.5701 C.2     1  UNL11       0.1192
     21 N          -2.5793    1.0692   -2.8643 N.2     1  UNL11      -0.0073
     22 N          -2.2792    1.5637   -4.0379 N.am    1  UNL11      -0.0356
     23 C          -1.7072    0.8224   -4.9930 C.2     1  UNL11       0.4383
     24 O          -1.4180    1.3142   -6.1375 O.2     1  UNL11      -0.2116
     25 C          -1.4115   -0.5072   -4.7605 C.ar    1  UNL11       0.1004
     26 C          -0.8036   -1.2852   -5.7153 C.ar    1  UNL11      -0.0441
     27 C          -0.5015   -2.6103   -5.4293 C.ar    1  UNL11      -0.0608
     28 C          -0.8147   -3.1389   -4.1827 C.ar    1  UNL11      -0.0611
     29 C          -1.4232   -2.3698   -3.2261 C.ar    1  UNL11      -0.0518
     30 C          -1.7284   -1.0389   -3.5136 C.ar    1  UNL11       0.0192
     31 C          -0.3485   -0.6637   -0.6207 C.ar    1  UNL11      -0.0363
     32 H           5.3246   -1.1801    0.2179 H       1  UNL11       0.0677
     33 H           3.7979    0.9175   -3.5379 H       1  UNL11       0.0624
     34 H           5.3863    1.0548   -5.4269 H       1  UNL11       0.0618
     35 H           7.4157   -0.2949   -5.5486 H       1  UNL11       0.0618
     36 H           7.8738   -1.8870   -3.6483 H       1  UNL11       0.0618
     37 H           6.2817   -2.0120   -1.7777 H       1  UNL11       0.0624
     38 H           1.1124   -0.2732    2.3414 H       1  UNL11       0.0636
     39 H          -1.2460   -0.1111    3.1285 H       1  UNL11       0.0618
     40 H          -2.9915   -0.2910    1.5130 H       1  UNL11       0.0620
     41 H          -2.9206   -1.8599   -1.3513 H       1  UNL11       0.0379
     42 H          -3.6682   -0.2512   -0.9121 H       1  UNL11       0.0379
     43 H          -2.4844    2.5709   -4.2539 H       1  UNL11       0.4829
     44 H          -0.5733   -0.8390   -6.6766 H       1  UNL11       0.0627
     45 H          -0.0257   -3.2165   -6.1874 H       1  UNL11       0.0618
     46 H          -0.5790   -4.1861   -3.9461 H       1  UNL11       0.0618
     47 H          -1.6664   -2.8083   -2.2477 H       1  UNL11       0.0624
     48 H          -0.1412   -0.8092   -1.6618 H       1  UNL11       0.0639
@<TRIPOS>BOND
     1     1     2    2
     2     2     3    1
     3     3     4    2
     4     3    32    1
     5     4     5    1
     6     4    11    1
     7     5     6   ar
     8     6     7   ar
     9     6    33    1
    10     7     8   ar
    11     7    34    1
    12     8     9   ar
    13     8    35    1
    14     9    10   ar
    15     9    36    1
    16    10     5   ar
    17    10    37    1
    18    11    12    2
    19    11    13   am
    20    13    14    1
    21    13     2   am
    22    14    15   ar
    23    15    16   ar
    24    15    38    1
    25    16    17   ar
    26    16    39    1
    27    17    18   ar
    28    17    40    1
    29    18    19    1
    30    18    31   ar
    31    19    20    1
    32    19    41    1
    33    19    42    1
    34    20    21    2
    35    21    22    1
    36    22    23   am
    37    22    43    1
    38    23    24    2
    39    23    25    1
    40    25    26   ar
    41    26    27   ar
    42    26    44    1
    43    27    28   ar
    44    27    45    1
    45    28    29   ar
    46    28    46    1
    47    29    30   ar
    48    29    47    1
    49    30    20    1
    50    30    25   ar
    51    31    14   ar
    52    31    48    1
@<TRIPOS>MOLECULE
*****
 48 52 0 0 0
SMALL
GASTEIGER

@<TRIPOS>ATOM
      1 O           2.0330   -2.8314   -1.0988 O.2     1  UNL11      -0.2698
      2 C           2.6137   -1.7696   -0.7801 C.2     1  UNL11       0.2511
      3 C           4.0371   -1.4334   -1.0105 C.2     1  UNL11       0.0138
      4 C           4.2951   -0.2292   -0.5409 C.2     1  UNL11       0.0497
      5 C           5.6173    0.4051   -0.6111 C.ar    1  UNL11      -0.0127
      6 C           6.6735   -0.2601   -1.1913 C.ar    1  UNL11      -0.0539
      7 C           7.9147    0.3339   -1.2349 C.ar    1  UNL11      -0.0612
      8 C           8.1636    1.5894   -0.7161 C.ar    1  UNL11      -0.0617
      9 C           7.1148    2.2624   -0.1346 C.ar    1  UNL11      -0.0612
     10 C           5.8721    1.6610   -0.0946 C.ar    1  UNL11      -0.0539
     11 C           3.0581    0.2907    0.0217 C.2     1  UNL11       0.2582
     12 O           2.9071    1.4155    0.5629 O.2     1  UNL11      -0.2692
     13 N           2.0116   -0.6638   -0.1247 N.am    1  UNL11      -0.2028
     14 C           0.6390   -0.5555    0.3044 C.ar    1  UNL11       0.0448
     15 C           0.2956   -0.3611    1.6231 C.ar    1  UNL11      -0.0398
     16 C          -0.9969   -0.2670    2.0830 C.ar    1  UNL11      -0.0597
     17 C          -2.0029   -0.3841    1.0930 C.ar    1  UNL11      -0.0581
     18 C          -1.7051   -0.5779   -0.2210 C.ar    1  UNL11      -0.0396
     19 C          -2.7504   -0.7436   -1.2551 C.3     1  UNL11       0.0211
     20 C          -3.6278    0.4372   -1.3521 C.2     1  UNL11       0.1192
     21 N          -3.3743    1.4847   -0.5130 N.2     1  UNL11      -0.0073
     22 N          -4.1536    2.5356   -0.5017 N.am    1  UNL11      -0.0356
     23 C          -5.2215    2.6334   -1.3011 C.2     1  UNL11       0.4383
     24 O          -5.9780    3.6643   -1.2827 O.2     1  UNL11      -0.2116
     25 C          -5.5337    1.6105   -2.1759 C.ar    1  UNL11       0.1004
     26 C          -6.6110    1.6945   -3.0239 C.ar    1  UNL11      -0.0441
     27 C          -6.8726    0.6533   -3.9049 C.ar    1  UNL11      -0.0608
     28 C          -6.0454   -0.4633   -3.9234 C.ar    1  UNL11      -0.0611
     29 C          -4.9705   -0.5554   -3.0791 C.ar    1  UNL11      -0.0518
     30 C          -4.7081    0.4897   -2.1925 C.ar    1  UNL11       0.0192
     31 C          -0.3485   -0.6637   -0.6207 C.ar    1  UNL11      -0.0363
     32 H           4.7099   -2.1363   -1.5071 H       1  UNL11       0.0677
     33 H           6.4925   -1.2533   -1.6086 H       1  UNL11       0.0624
     34 H           8.7272   -0.2001   -1.6897 H       1  UNL11       0.0618
     35 H           9.1781    2.0168   -0.7747 H       1  UNL11       0.0618
     36 H           7.2566    3.2511    0.2931 H       1  UNL11       0.0618
     37 H           5.0402    2.1874    0.3667 H       1  UNL11       0.0624
     38 H           1.1124   -0.2732    2.3414 H       1  UNL11       0.0636
     39 H          -1.2460   -0.1111    3.1285 H       1  UNL11       0.0618
     40 H          -2.9915   -0.2910    1.5130 H       1  UNL11       0.0620
     41 H          -2.2010   -0.8496   -2.2407 H       1  UNL11       0.0379
     42 H          -3.3182   -1.6569   -1.0407 H       1  UNL11       0.0379
     43 H          -3.9493    3.3367    0.1461 H       1  UNL11       0.4829
     44 H          -7.2343    2.5810   -2.9823 H       1  UNL11       0.0627
     45 H          -7.7242    0.7261   -4.5670 H       1  UNL11       0.0618
     46 H          -6.2432   -1.2923   -4.6175 H       1  UNL11       0.0618
     47 H          -4.3308   -1.4491   -3.1065 H       1  UNL11       0.0624
     48 H          -0.1412   -0.8092   -1.6618 H       1  UNL11       0.0639
@<TRIPOS>BOND
     1     1     2    2
     2     2     3    1
     3     3     4    2
     4     3    32    1
     5     4     5    1
     6     4    11    1
     7     5     6   ar
     8     6     7   ar
     9     6    33    1
    10     7     8   ar
    11     7    34    1
    12     8     9   ar
    13     8    35    1
    14     9    10   ar
    15     9    36    1
    16    10     5   ar
    17    10    37    1
    18    11    12    2
    19    11    13   am
    20    13    14    1
    21    13     2   am
    22    14    15   ar
    23    15    16   ar
    24    15    38    1
    25    16    17   ar
    26    16    39    1
    27    17    18   ar
    28    17    40    1
    29    18    19    1
    30    18    31   ar
    31    19    20    1
    32    19    41    1
    33    19    42    1
    34    20    21    2
    35    21    22    1
    36    22    23   am
    37    22    43    1
    38    23    24    2
    39    23    25    1
    40    25    26   ar
    41    26    27   ar
    42    26    44    1
    43    27    28   ar
    44    27    45    1
    45    28    29   ar
    46    28    46    1
    47    29    30   ar
    48    29    47    1
    49    30    20    1
    50    30    25   ar
    51    31    14   ar
    52    31    48    1
@<TRIPOS>MOLECULE
*****
 48 52 0 0 0
SMALL
GASTEIGER

@<TRIPOS>ATOM
      1 O           2.3720   -3.0078    0.0300 O.2     1  UNL11      -0.2698
      2 C           2.7794   -1.8532   -0.2292 C.2     1  UNL11       0.2511
      3 C           4.1325   -1.4737   -0.6951 C.2     1  UNL11       0.0138
      4 C           4.1989   -0.1682   -0.8641 C.2     1  UNL11       0.0497
      5 C           5.4055    0.5325   -1.3207 C.ar    1  UNL11      -0.0127
      6 C           5.6527    1.8230   -0.9108 C.ar    1  UNL11      -0.0539
      7 C           6.7764    2.4796   -1.3597 C.ar    1  UNL11      -0.0612
      8 C           7.6898    1.9009   -2.2189 C.ar    1  UNL11      -0.0617
      9 C           7.4520    0.6117   -2.6341 C.ar    1  UNL11      -0.0612
     10 C           6.3232   -0.0415   -2.1795 C.ar    1  UNL11      -0.0539
     11 C           2.8958    0.3800   -0.5200 C.2     1  UNL11       0.2582
     12 O           2.5706    1.5939   -0.5584 O.2     1  UNL11      -0.2692
     13 N           2.0116   -0.6638   -0.1247 N.am    1  UNL11      -0.2028
     14 C           0.6390   -0.5555    0.3044 C.ar    1  UNL11       0.0448
     15 C           0.2956   -0.3611    1.6231 C.ar    1  UNL11      -0.0398
     16 C          -0.9969   -0.2670    2.0830 C.ar    1  UNL11      -0.0597
     17 C          -2.0029   -0.3841    1.0930 C.ar    1  UNL11      -0.0581
     18 C          -1.7051   -0.5779   -0.2210 C.ar    1  UNL11      -0.0396
     19 C          -2.7504   -0.7436   -1.2551 C.3     1  UNL11       0.0211
     20 C          -2.6716    0.2972   -2.2963 C.2     1  UNL11       0.1192
     21 N          -2.7961    1.5986   -1.9009 N.2     1  UNL11      -0.0073
     22 N          -2.8007    2.5669   -2.7809 N.am    1  UNL11      -0.0356
     23 C          -2.6850    2.3317   -4.0925 C.2     1  UNL11       0.4383
     24 O          -2.6912    3.2845   -4.9454 O.2     1  UNL11      -0.2116
     25 C          -2.5532    1.0382   -4.5601 C.ar    1  UNL11       0.1004
     26 C          -2.4097    0.7699   -5.8995 C.ar    1  UNL11      -0.0441
     27 C          -2.2545   -0.5437   -6.3226 C.ar    1  UNL11      -0.0608
     28 C          -2.2450   -1.5753   -5.3913 C.ar    1  UNL11      -0.0611
     29 C          -2.3898   -1.3158   -4.0540 C.ar    1  UNL11      -0.0518
     30 C          -2.5475    0.0038   -3.6284 C.ar    1  UNL11       0.0192
     31 C          -0.3485   -0.6637   -0.6207 C.ar    1  UNL11      -0.0363
     32 H           4.9070   -2.2276   -0.8535 H       1  UNL11       0.0677
     33 H           4.9409    2.2942   -0.2290 H       1  UNL11       0.0624
     34 H           6.9524    3.4862   -1.0310 H       1  UNL11       0.0618
     35 H           8.5715    2.4737   -2.5503 H       1  UNL11       0.0618
     36 H           8.1361    0.1107   -3.3135 H       1  UNL11       0.0618
     37 H           6.1289   -1.0598   -2.5070 H       1  UNL11       0.0624
     38 H           1.1124   -0.2732    2.3414 H       1  UNL11       0.0636
     39 H          -1.2460   -0.1111    3.1285 H       1  UNL11       0.0618
     40 H          -2.9915   -0.2910    1.5130 H       1  UNL11       0.0620
     41 H          -2.5467   -1.7436   -1.7480 H       1  UNL11       0.0379
     42 H          -3.7320   -0.7579   -0.7665 H       1  UNL11       0.0379
     43 H          -2.8954    3.5646   -2.4667 H       1  UNL11       0.4829
     44 H          -2.4213    1.5998   -6.5975 H       1  UNL11       0.0627
     45 H          -2.1451   -0.7465   -7.3789 H       1  UNL11       0.0618
     46 H          -2.1218   -2.6182   -5.7158 H       1  UNL11       0.0618
     47 H          -2.3837   -2.1464   -3.3338 H       1  UNL11       0.0624
     48 H          -0.1412   -0.8092   -1.6618 H       1  UNL11       0.0639
@<TRIPOS>BOND
     1     1     2    2
     2     2     3    1
     3     3     4    2
     4     3    32    1
     5     4     5    1
     6     4    11    1
     7     5     6   ar
     8     6     7   ar
     9     6    33    1
    10     7     8   ar
    11     7    34    1
    12     8     9   ar
    13     8    35    1
    14     9    10   ar
    15     9    36    1
    16    10     5   ar
    17    10    37    1
    18    11    12    2
    19    11    13   am
    20    13    14    1
    21    13     2   am
    22    14    15   ar
    23    15    16   ar
    24    15    38    1
    25    16    17   ar
    26    16    39    1
    27    17    18   ar
    28    17    40    1
    29    18    19    1
    30    18    31   ar
    31    19    20    1
    32    19    41    1
    33    19    42    1
    34    20    21    2
    35    21    22    1
    36    22    23   am
    37    22    43    1
    38    23    24    2
    39    23    25    1
    40    25    26   ar
    41    26    27   ar
    42    26    44    1
    43    27    28   ar
    44    27    45    1
    45    28    29   ar
    46    28    46    1
    47    29    30   ar
    48    29    47    1
    49    30    20    1
    50    30    25   ar
    51    31    14   ar
    52    31    48    1
@<TRIPOS>MOLECULE
*****
 48 52 0 0 0
SMALL
GASTEIGER

@<TRIPOS>ATOM
      1 O           2.0330   -2.8314   -1.0988 O.2     1  UNL11      -0.2698
      2 C           2.6137   -1.7696   -0.7801 C.2     1  UNL11       0.2511
      3 C           4.0371   -1.4334   -1.0105 C.2     1  UNL11       0.0138
      4 C           4.2951   -0.2292   -0.5409 C.2     1  UNL11       0.0497
      5 C           5.6173    0.4051   -0.6111 C.ar    1  UNL11      -0.0127
      6 C           6.0089    1.2971    0.3613 C.ar    1  UNL11      -0.0539
      7 C           7.2425    1.9024    0.2771 C.ar    1  UNL11      -0.0612
      8 C           8.1287    1.6581   -0.7537 C.ar    1  UNL11      -0.0617
      9 C           7.7469    0.7682   -1.7300 C.ar    1  UNL11      -0.0612
     10 C           6.5083    0.1640   -1.6392 C.ar    1  UNL11      -0.0539
     11 C           3.0581    0.2907    0.0217 C.2     1  UNL11       0.2582
     12 O           2.9071    1.4155    0.5629 O.2     1  UNL11      -0.2692
     13 N           2.0116   -0.6638   -0.1247 N.am    1  UNL11      -0.2028
     14 C           0.6390   -0.5555    0.3044 C.ar    1  UNL11       0.0448
     15 C           0.2956   -0.3611    1.6231 C.ar    1  UNL11      -0.0398
     16 C          -0.9969   -0.2670    2.0830 C.ar    1  UNL11      -0.0597
     17 C          -2.0029   -0.3841    1.0930 C.ar    1  UNL11      -0.0581
     18 C          -1.7051   -0.5779   -0.2210 C.ar    1  UNL11      -0.0396
     19 C          -2.7504   -0.7436   -1.2551 C.3     1  UNL11       0.0211
     20 C          -2.6475   -2.0420   -1.9458 C.2     1  UNL11       0.1192
     21 N          -3.8013   -2.6023   -2.4154 N.2     1  UNL11      -0.0073
     22 N          -3.7895   -3.7827   -2.9797 N.am    1  UNL11      -0.0356
     23 C          -2.6619   -4.4878   -3.1222 C.2     1  UNL11       0.4383
     24 O          -2.6600   -5.6411   -3.6745 O.2     1  UNL11      -0.2116
     25 C          -1.4592   -3.9784   -2.6712 C.ar    1  UNL11       0.1004
     26 C          -0.2830   -4.6709   -2.8253 C.ar    1  UNL11      -0.0441
     27 C           0.9065   -4.1093   -2.3799 C.ar    1  UNL11      -0.0608
     28 C           0.8996   -2.8541   -1.7834 C.ar    1  UNL11      -0.0611
     29 C          -0.2697   -2.1582   -1.6242 C.ar    1  UNL11      -0.0518
     30 C          -1.4654   -2.7228   -2.0701 C.ar    1  UNL11       0.0192
     31 C          -0.3485   -0.6637   -0.6207 C.ar    1  UNL11      -0.0363
     32 H           4.7099   -2.1363   -1.5071 H       1  UNL11       0.0677
     33 H           5.3202    1.4994    1.1849 H       1  UNL11       0.0624
     34 H           7.5307    2.5966    1.0434 H       1  UNL11       0.0618
     35 H           9.1030    2.1733   -0.7741 H       1  UNL11       0.0618
     36 H           8.4040    0.5431   -2.5657 H       1  UNL11       0.0618
     37 H           6.2003   -0.5382   -2.4100 H       1  UNL11       0.0624
     38 H           1.1124   -0.2732    2.3414 H       1  UNL11       0.0636
     39 H          -1.2460   -0.1111    3.1285 H       1  UNL11       0.0618
     40 H          -2.9915   -0.2910    1.5130 H       1  UNL11       0.0620
     41 H          -3.7409   -0.7209   -0.7047 H       1  UNL11       0.0379
     42 H          -2.6903    0.0972   -1.9565 H       1  UNL11       0.0379
     43 H          -4.6818   -4.2044   -3.3390 H       1  UNL11       0.4829
     44 H          -0.3155   -5.6476   -3.2958 H       1  UNL11       0.0627
     45 H           1.8273   -4.6623   -2.5023 H       1  UNL11       0.0618
     46 H           1.8357   -2.4004   -1.4284 H       1  UNL11       0.0618
     47 H          -0.2543   -1.1684   -1.1460 H       1  UNL11       0.0624
     48 H          -0.1412   -0.8092   -1.6618 H       1  UNL11       0.0639
@<TRIPOS>BOND
     1     1     2    2
     2     2     3    1
     3     3     4    2
     4     3    32    1
     5     4     5    1
     6     4    11    1
     7     5     6   ar
     8     6     7   ar
     9     6    33    1
    10     7     8   ar
    11     7    34    1
    12     8     9   ar
    13     8    35    1
    14     9    10   ar
    15     9    36    1
    16    10     5   ar
    17    10    37    1
    18    11    12    2
    19    11    13   am
    20    13    14    1
    21    13     2   am
    22    14    15   ar
    23    15    16   ar
    24    15    38    1
    25    16    17   ar
    26    16    39    1
    27    17    18   ar
    28    17    40    1
    29    18    19    1
    30    18    31   ar
    31    19    20    1
    32    19    41    1
    33    19    42    1
    34    20    21    2
    35    21    22    1
    36    22    23   am
    37    22    43    1
    38    23    24    2
    39    23    25    1
    40    25    26   ar
    41    26    27   ar
    42    26    44    1
    43    27    28   ar
    44    27    45    1
    45    28    29   ar
    46    28    46    1
    47    29    30   ar
    48    29    47    1
    49    30    20    1
    50    30    25   ar
    51    31    14   ar
    52    31    48    1
@<TRIPOS>MOLECULE
*****
 48 52 0 0 0
SMALL
GASTEIGER

@<TRIPOS>ATOM
      1 O           2.0330   -2.8314   -1.0988 O.2     1  UNL11      -0.2698
      2 C           2.6137   -1.7696   -0.7801 C.2     1  UNL11       0.2511
      3 C           4.0371   -1.4334   -1.0105 C.2     1  UNL11       0.0138
      4 C           4.2951   -0.2292   -0.5409 C.2     1  UNL11       0.0497
      5 C           5.6173    0.4051   -0.6111 C.ar    1  UNL11      -0.0127
      6 C           6.5199    0.2377    0.4146 C.ar    1  UNL11      -0.0539
      7 C           7.7501    0.8524    0.3499 C.ar    1  UNL11      -0.0612
      8 C           8.1366    1.6462   -0.7121 C.ar    1  UNL11      -0.0617
      9 C           7.2420    1.8194   -1.7421 C.ar    1  UNL11      -0.0612
     10 C           6.0099    1.1995   -1.6712 C.ar    1  UNL11      -0.0539
     11 C           3.0581    0.2907    0.0217 C.2     1  UNL11       0.2582
     12 O           2.9071    1.4155    0.5629 O.2     1  UNL11      -0.2692
     13 N           2.0116   -0.6638   -0.1247 N.am    1  UNL11      -0.2028
     14 C           0.6390   -0.5555    0.3044 C.ar    1  UNL11       0.0448
     15 C           0.2956   -0.3611    1.6231 C.ar    1  UNL11      -0.0398
     16 C          -0.9969   -0.2670    2.0830 C.ar    1  UNL11      -0.0597
     17 C          -2.0029   -0.3841    1.0930 C.ar    1  UNL11      -0.0581
     18 C          -1.7051   -0.5779   -0.2210 C.ar    1  UNL11      -0.0396
     19 C          -2.7504   -0.7436   -1.2551 C.3     1  UNL11       0.0211
     20 C          -3.1507    0.5438   -1.8515 C.2     1  UNL11       0.1192
     21 N          -2.2127    1.5353   -1.9053 N.2     1  UNL11      -0.0073
     22 N          -2.5203    2.7222   -2.3620 N.am    1  UNL11      -0.0356
     23 C          -3.7516    3.0175   -2.7927 C.2     1  UNL11       0.4383
     24 O          -4.0433    4.1807   -3.2369 O.2     1  UNL11      -0.2116
     25 C          -4.7475    2.0599   -2.7679 C.ar    1  UNL11       0.1004
     26 C          -6.0143    2.3292   -3.2253 C.ar    1  UNL11      -0.0441
     27 C          -6.9774    1.3288   -3.2054 C.ar    1  UNL11      -0.0608
     28 C          -6.6544    0.0654   -2.7249 C.ar    1  UNL11      -0.0611
     29 C          -5.3937   -0.2102   -2.2649 C.ar    1  UNL11      -0.0518
     30 C          -4.4261    0.7951   -2.2832 C.ar    1  UNL11       0.0192
     31 C          -0.3485   -0.6637   -0.6207 C.ar    1  UNL11      -0.0363
     32 H           4.7099   -2.1363   -1.5071 H       1  UNL11       0.0677
     33 H           6.2303   -0.3894    1.2609 H       1  UNL11       0.0624
     34 H           8.4408    0.7121    1.1595 H       1  UNL11       0.0618
     35 H           9.1330    2.1179   -0.7113 H       1  UNL11       0.0618
     36 H           7.4934    2.4375   -2.5996 H       1  UNL11       0.0618
     37 H           5.2978    1.3355   -2.4814 H       1  UNL11       0.0624
     38 H           1.1124   -0.2732    2.3414 H       1  UNL11       0.0636
     39 H          -1.2460   -0.1111    3.1285 H       1  UNL11       0.0618
     40 H          -2.9915   -0.2910    1.5130 H       1  UNL11       0.0620
     41 H          -2.2839   -1.3746   -2.0728 H       1  UNL11       0.0379
     42 H          -3.6042   -1.2713   -0.8134 H       1  UNL11       0.0379
     43 H          -1.7915    3.4775   -2.4008 H       1  UNL11       0.4829
     44 H          -6.2303    3.3262   -3.5936 H       1  UNL11       0.0627
     45 H          -7.9728    1.5500   -3.5644 H       1  UNL11       0.0618
     46 H          -7.4090   -0.7335   -2.7058 H       1  UNL11       0.0618
     47 H          -5.1596   -1.2150   -1.8850 H       1  UNL11       0.0624
     48 H          -0.1412   -0.8092   -1.6618 H       1  UNL11       0.0639
@<TRIPOS>BOND
     1     1     2    2
     2     2     3    1
     3     3     4    2
     4     3    32    1
     5     4     5    1
     6     4    11    1
     7     5     6   ar
     8     6     7   ar
     9     6    33    1
    10     7     8   ar
    11     7    34    1
    12     8     9   ar
    13     8    35    1
    14     9    10   ar
    15     9    36    1
    16    10     5   ar
    17    10    37    1
    18    11    12    2
    19    11    13   am
    20    13    14    1
    21    13     2   am
    22    14    15   ar
    23    15    16   ar
    24    15    38    1
    25    16    17   ar
    26    16    39    1
    27    17    18   ar
    28    17    40    1
    29    18    19    1
    30    18    31   ar
    31    19    20    1
    32    19    41    1
    33    19    42    1
    34    20    21    2
    35    21    22    1
    36    22    23   am
    37    22    43    1
    38    23    24    2
    39    23    25    1
    40    25    26   ar
    41    26    27   ar
    42    26    44    1
    43    27    28   ar
    44    27    45    1
    45    28    29   ar
    46    28    46    1
    47    29    30   ar
    48    29    47    1
    49    30    20    1
    50    30    25   ar
    51    31    14   ar
    52    31    48    1
@<TRIPOS>MOLECULE
*****
 48 52 0 0 0
SMALL
GASTEIGER

@<TRIPOS>ATOM
      1 O           3.1714   -0.4307    1.9365 O.2     1  UNL11      -0.2698
      2 C           3.1680   -0.5918    0.6955 C.2     1  UNL11       0.2511
      3 C           4.3505   -0.7405   -0.1829 C.2     1  UNL11       0.0138
      4 C           3.9637   -0.8908   -1.4340 C.2     1  UNL11       0.0497
      5 C           4.8930   -1.0638   -2.5574 C.ar    1  UNL11      -0.0127
      6 C           6.1135   -1.6683   -2.3585 C.ar    1  UNL11      -0.0539
      7 C           6.9870   -1.8085   -3.4133 C.ar    1  UNL11      -0.0612
      8 C           6.6990   -1.3652   -4.6892 C.ar    1  UNL11      -0.0617
      9 C           5.4819   -0.7602   -4.8983 C.ar    1  UNL11      -0.0612
     10 C           4.6101   -0.6232   -3.8360 C.ar    1  UNL11      -0.0539
     11 C           2.5093   -0.8500   -1.4457 C.2     1  UNL11       0.2582
     12 O           1.7746   -0.9613   -2.4599 O.2     1  UNL11      -0.2692
     13 N           2.0116   -0.6638   -0.1247 N.am    1  UNL11      -0.2028
     14 C           0.6390   -0.5555    0.3044 C.ar    1  UNL11       0.0448
     15 C           0.2956   -0.3611    1.6231 C.ar    1  UNL11      -0.0398
     16 C          -0.9969   -0.2670    2.0830 C.ar    1  UNL11      -0.0597
     17 C          -2.0029   -0.3841    1.0930 C.ar    1  UNL11      -0.0581
     18 C          -1.7051   -0.5779   -0.2210 C.ar    1  UNL11      -0.0396
     19 C          -2.7504   -0.7436   -1.2551 C.3     1  UNL11       0.0211
     20 C          -2.1762   -0.9556   -2.5963 C.2     1  UNL11       0.1192
     21 N          -1.9347   -2.2426   -2.9851 N.2     1  UNL11      -0.0073
     22 N          -1.3663   -2.4975   -4.1357 N.am    1  UNL11      -0.0356
     23 C          -0.9996   -1.5231   -4.9753 C.2     1  UNL11       0.4383
     24 O          -0.4440   -1.7818   -6.0977 O.2     1  UNL11      -0.2116
     25 C          -1.2170   -0.1992   -4.6446 C.ar    1  UNL11       0.1004
     26 C          -0.8712    0.8202   -5.4978 C.ar    1  UNL11      -0.0441
     27 C          -1.1316    2.1354   -5.1354 C.ar    1  UNL11      -0.0608
     28 C          -1.7388    2.4110   -3.9161 C.ar    1  UNL11      -0.0611
     29 C          -2.0845    1.3998   -3.0588 C.ar    1  UNL11      -0.0518
     30 C          -1.8216    0.0783   -3.4217 C.ar    1  UNL11       0.0192
     31 C          -0.3485   -0.6637   -0.6207 C.ar    1  UNL11      -0.0363
     32 H           5.3633   -0.7198    0.2256 H       1  UNL11       0.0677
     33 H           6.3555   -2.0268   -1.3553 H       1  UNL11       0.0624
     34 H           7.9351   -2.2809   -3.2396 H       1  UNL11       0.0618
     35 H           7.4368   -1.4998   -5.4971 H       1  UNL11       0.0618
     36 H           5.2065   -0.3891   -5.8817 H       1  UNL11       0.0618
     37 H           3.6478   -0.1430   -3.9952 H       1  UNL11       0.0624
     38 H           1.1124   -0.2732    2.3414 H       1  UNL11       0.0636
     39 H          -1.2460   -0.1111    3.1285 H       1  UNL11       0.0618
     40 H          -2.9915   -0.2910    1.5130 H       1  UNL11       0.0620
     41 H          -3.3248   -1.6786   -0.9718 H       1  UNL11       0.0379
     42 H          -3.4147    0.1285   -1.2292 H       1  UNL11       0.0379
     43 H          -1.1863   -3.4906   -4.4264 H       1  UNL11       0.4829
     44 H          -0.3996    0.5678   -6.4412 H       1  UNL11       0.0627
     45 H          -0.8537    2.9319   -5.8114 H       1  UNL11       0.0618
     46 H          -1.9501    3.4483   -3.6203 H       1  UNL11       0.0618
     47 H          -2.5602    1.6393   -2.0970 H       1  UNL11       0.0624
     48 H          -0.1412   -0.8092   -1.6618 H       1  UNL11       0.0639
@<TRIPOS>BOND
     1     1     2    2
     2     2     3    1
     3     3     4    2
     4     3    32    1
     5     4     5    1
     6     4    11    1
     7     5     6   ar
     8     6     7   ar
     9     6    33    1
    10     7     8   ar
    11     7    34    1
    12     8     9   ar
    13     8    35    1
    14     9    10   ar
    15     9    36    1
    16    10     5   ar
    17    10    37    1
    18    11    12    2
    19    11    13   am
    20    13    14    1
    21    13     2   am
    22    14    15   ar
    23    15    16   ar
    24    15    38    1
    25    16    17   ar
    26    16    39    1
    27    17    18   ar
    28    17    40    1
    29    18    19    1
    30    18    31   ar
    31    19    20    1
    32    19    41    1
    33    19    42    1
    34    20    21    2
    35    21    22    1
    36    22    23   am
    37    22    43    1
    38    23    24    2
    39    23    25    1
    40    25    26   ar
    41    26    27   ar
    42    26    44    1
    43    27    28   ar
    44    27    45    1
    45    28    29   ar
    46    28    46    1
    47    29    30   ar
    48    29    47    1
    49    30    20    1
    50    30    25   ar
    51    31    14   ar
    52    31    48    1
@<TRIPOS>MOLECULE
*****
 48 52 0 0 0
SMALL
GASTEIGER

@<TRIPOS>ATOM
      1 O           2.8976    1.4213    0.5933 O.2     1  UNL11      -0.2698
      2 C           3.0331    0.3086    0.0366 C.2     1  UNL11       0.2511
      3 C           4.2693   -0.2350   -0.5701 C.2     1  UNL11       0.0138
      4 C           4.0367   -1.4350   -1.0632 C.2     1  UNL11       0.0497
      5 C           5.0566   -2.2501   -1.7346 C.ar    1  UNL11      -0.0127
      6 C           4.9953   -3.6238   -1.6722 C.ar    1  UNL11      -0.0539
      7 C           5.9669   -4.3803   -2.2879 C.ar    1  UNL11      -0.0612
      8 C           7.0242   -3.8232   -2.9802 C.ar    1  UNL11      -0.0617
      9 C           7.0942   -2.4515   -3.0486 C.ar    1  UNL11      -0.0612
     10 C           6.1159   -1.6986   -2.4293 C.ar    1  UNL11      -0.0539
     11 C           2.6383   -1.7449   -0.8073 C.2     1  UNL11       0.2582
     12 O           2.0448   -2.8054   -1.1299 O.2     1  UNL11      -0.2692
     13 N           2.0116   -0.6638   -0.1247 N.am    1  UNL11      -0.2028
     14 C           0.6390   -0.5555    0.3044 C.ar    1  UNL11       0.0448
     15 C           0.2956   -0.3611    1.6231 C.ar    1  UNL11      -0.0398
     16 C          -0.9969   -0.2670    2.0830 C.ar    1  UNL11      -0.0597
     17 C          -2.0029   -0.3841    1.0930 C.ar    1  UNL11      -0.0581
     18 C          -1.7051   -0.5779   -0.2210 C.ar    1  UNL11      -0.0396
     19 C          -2.7504   -0.7436   -1.2551 C.3     1  UNL11       0.0211
     20 C          -2.1762   -0.9556   -2.5963 C.2     1  UNL11       0.1192
     21 N          -1.9347   -2.2426   -2.9851 N.2     1  UNL11      -0.0073
     22 N          -1.3663   -2.4975   -4.1357 N.am    1  UNL11      -0.0356
     23 C          -0.9996   -1.5231   -4.9753 C.2     1  UNL11       0.4383
     24 O          -0.4440   -1.7818   -6.0977 O.2     1  UNL11      -0.2116
     25 C          -1.2170   -0.1992   -4.6446 C.ar    1  UNL11       0.1004
     26 C          -0.8712    0.8202   -5.4978 C.ar    1  UNL11      -0.0441
     27 C          -1.1316    2.1354   -5.1354 C.ar    1  UNL11      -0.0608
     28 C          -1.7388    2.4110   -3.9161 C.ar    1  UNL11      -0.0611
     29 C          -2.0845    1.3998   -3.0588 C.ar    1  UNL11      -0.0518
     30 C          -1.8216    0.0783   -3.4217 C.ar    1  UNL11       0.0192
     31 C          -0.3485   -0.6637   -0.6207 C.ar    1  UNL11      -0.0363
     32 H           5.1992    0.3382   -0.5664 H       1  UNL11       0.0677
     33 H           4.1636   -4.0801   -1.1303 H       1  UNL11       0.0624
     34 H           5.9041   -5.4501   -2.2276 H       1  UNL11       0.0618
     35 H           7.7769   -4.4761   -3.4517 H       1  UNL11       0.0618
     36 H           7.9075   -1.9615   -3.5768 H       1  UNL11       0.0618
     37 H           6.1682   -0.6137   -2.4778 H       1  UNL11       0.0624
     38 H           1.1124   -0.2732    2.3414 H       1  UNL11       0.0636
     39 H          -1.2460   -0.1111    3.1285 H       1  UNL11       0.0618
     40 H          -2.9915   -0.2910    1.5130 H       1  UNL11       0.0620
     41 H          -3.3248   -1.6786   -0.9718 H       1  UNL11       0.0379
     42 H          -3.4147    0.1285   -1.2292 H       1  UNL11       0.0379
     43 H          -1.1863   -3.4906   -4.4264 H       1  UNL11       0.4829
     44 H          -0.3996    0.5678   -6.4412 H       1  UNL11       0.0627
     45 H          -0.8537    2.9319   -5.8114 H       1  UNL11       0.0618
     46 H          -1.9501    3.4483   -3.6203 H       1  UNL11       0.0618
     47 H          -2.5602    1.6393   -2.0970 H       1  UNL11       0.0624
     48 H          -0.1412   -0.8092   -1.6618 H       1  UNL11       0.0639
@<TRIPOS>BOND
     1     1     2    2
     2     2     3    1
     3     3     4    2
     4     3    32    1
     5     4     5    1
     6     4    11    1
     7     5     6   ar
     8     6     7   ar
     9     6    33    1
    10     7     8   ar
    11     7    34    1
    12     8     9   ar
    13     8    35    1
    14     9    10   ar
    15     9    36    1
    16    10     5   ar
    17    10    37    1
    18    11    12    2
    19    11    13   am
    20    13    14    1
    21    13     2   am
    22    14    15   ar
    23    15    16   ar
    24    15    38    1
    25    16    17   ar
    26    16    39    1
    27    17    18   ar
    28    17    40    1
    29    18    19    1
    30    18    31   ar
    31    19    20    1
    32    19    41    1
    33    19    42    1
    34    20    21    2
    35    21    22    1
    36    22    23   am
    37    22    43    1
    38    23    24    2
    39    23    25    1
    40    25    26   ar
    41    26    27   ar
    42    26    44    1
    43    27    28   ar
    44    27    45    1
    45    28    29   ar
    46    28    46    1
    47    29    30   ar
    48    29    47    1
    49    30    20    1
    50    30    25   ar
    51    31    14   ar
    52    31    48    1
@<TRIPOS>MOLECULE
*****
 48 52 0 0 0
SMALL
GASTEIGER

@<TRIPOS>ATOM
      1 O           3.1584    0.3336    1.7023 O.2     1  UNL11      -0.2698
      2 C           3.1612   -0.2195    0.5797 C.2     1  UNL11       0.2511
      3 C           4.3450   -0.5294   -0.2536 C.2     1  UNL11       0.0138
      4 C           3.9653   -1.1125   -1.3731 C.2     1  UNL11       0.0497
      5 C           4.8977   -1.5488   -2.4198 C.ar    1  UNL11      -0.0127
      6 C           6.0875   -0.8825   -2.6076 C.ar    1  UNL11      -0.0539
      7 C           6.9470   -1.2859   -3.6045 C.ar    1  UNL11      -0.0612
      8 C           6.6741   -2.3466   -4.4459 C.ar    1  UNL11      -0.0617
      9 C           5.4881   -3.0190   -4.2662 C.ar    1  UNL11      -0.0612
     10 C           4.6306   -2.6095   -3.2639 C.ar    1  UNL11      -0.0539
     11 C           2.5146   -1.2180   -1.3361 C.2     1  UNL11       0.2582
     12 O           1.7867   -1.7214   -2.2292 O.2     1  UNL11      -0.2692
     13 N           2.0116   -0.6638   -0.1247 N.am    1  UNL11      -0.2028
     14 C           0.6390   -0.5555    0.3044 C.ar    1  UNL11       0.0448
     15 C           0.2956   -0.3611    1.6231 C.ar    1  UNL11      -0.0398
     16 C          -0.9969   -0.2670    2.0830 C.ar    1  UNL11      -0.0597
     17 C          -2.0029   -0.3841    1.0930 C.ar    1  UNL11      -0.0581
     18 C          -1.7051   -0.5779   -0.2210 C.ar    1  UNL11      -0.0396
     19 C          -2.7504   -0.7436   -1.2551 C.3     1  UNL11       0.0211
     20 C          -2.6475   -2.0420   -1.9458 C.2     1  UNL11       0.1192
     21 N          -1.4818   -2.3193   -2.6016 N.2     1  UNL11      -0.0073
     22 N          -1.3484   -3.4247   -3.2889 N.am    1  UNL11      -0.0356
     23 C          -2.3339   -4.3242   -3.3807 C.2     1  UNL11       0.4383
     24 O          -2.1947   -5.4016   -4.0554 O.2     1  UNL11      -0.2116
     25 C          -3.5385   -4.1068   -2.7397 C.ar    1  UNL11       0.1004
     26 C          -4.5591   -5.0243   -2.7984 C.ar    1  UNL11      -0.0441
     27 C          -5.7438   -4.7762   -2.1174 C.ar    1  UNL11      -0.0608
     28 C          -5.8888   -3.6054   -1.3828 C.ar    1  UNL11      -0.0611
     29 C          -4.8762   -2.6846   -1.3213 C.ar    1  UNL11      -0.0518
     30 C          -3.6864   -2.9326   -2.0067 C.ar    1  UNL11       0.0192
     31 C          -0.3485   -0.6637   -0.6207 C.ar    1  UNL11      -0.0363
     32 H           5.3536   -0.2802    0.0837 H       1  UNL11       0.0677
     33 H           6.3193   -0.0427   -1.9486 H       1  UNL11       0.0624
     34 H           7.8697   -0.7538   -3.7377 H       1  UNL11       0.0618
     35 H           7.3965   -2.6252   -5.2306 H       1  UNL11       0.0618
     36 H           5.2218   -3.8579   -4.9033 H       1  UNL11       0.0618
     37 H           3.6903   -3.1357   -3.1194 H       1  UNL11       0.0624
     38 H           1.1124   -0.2732    2.3414 H       1  UNL11       0.0636
     39 H          -1.2460   -0.1111    3.1285 H       1  UNL11       0.0618
     40 H          -2.9915   -0.2910    1.5130 H       1  UNL11       0.0620
     41 H          -3.7409   -0.7209   -0.7047 H       1  UNL11       0.0379
     42 H          -2.6903    0.0972   -1.9565 H       1  UNL11       0.0379
     43 H          -0.4475   -3.6296   -3.7883 H       1  UNL11       0.4829
     44 H          -4.4104   -5.9270   -3.3808 H       1  UNL11       0.0627
     45 H          -6.5431   -5.5021   -2.1712 H       1  UNL11       0.0618
     46 H          -6.8219   -3.4001   -0.8395 H       1  UNL11       0.0618
     47 H          -5.0125   -1.7627   -0.7380 H       1  UNL11       0.0624
     48 H          -0.1412   -0.8092   -1.6618 H       1  UNL11       0.0639
@<TRIPOS>BOND
     1     1     2    2
     2     2     3    1
     3     3     4    2
     4     3    32    1
     5     4     5    1
     6     4    11    1
     7     5     6   ar
     8     6     7   ar
     9     6    33    1
    10     7     8   ar
    11     7    34    1
    12     8     9   ar
    13     8    35    1
    14     9    10   ar
    15     9    36    1
    16    10     5   ar
    17    10    37    1
    18    11    12    2
    19    11    13   am
    20    13    14    1
    21    13     2   am
    22    14    15   ar
    23    15    16   ar
    24    15    38    1
    25    16    17   ar
    26    16    39    1
    27    17    18   ar
    28    17    40    1
    29    18    19    1
    30    18    31   ar
    31    19    20    1
    32    19    41    1
    33    19    42    1
    34    20    21    2
    35    21    22    1
    36    22    23   am
    37    22    43    1
    38    23    24    2
    39    23    25    1
    40    25    26   ar
    41    26    27   ar
    42    26    44    1
    43    27    28   ar
    44    27    45    1
    45    28    29   ar
    46    28    46    1
    47    29    30   ar
    48    29    47    1
    49    30    20    1
    50    30    25   ar
    51    31    14   ar
    52    31    48    1
@<TRIPOS>MOLECULE
*****
 48 52 0 0 0
SMALL
GASTEIGER

@<TRIPOS>ATOM
      1 O           2.0330   -2.8314   -1.0988 O.2     1  UNL11      -0.2698
      2 C           2.6137   -1.7696   -0.7801 C.2     1  UNL11       0.2511
      3 C           4.0371   -1.4334   -1.0105 C.2     1  UNL11       0.0138
      4 C           4.2951   -0.2292   -0.5409 C.2     1  UNL11       0.0497
      5 C           5.6173    0.4051   -0.6111 C.ar    1  UNL11      -0.0127
      6 C           5.7235    1.7742   -0.7053 C.ar    1  UNL11      -0.0539
      7 C           6.9667    2.3593   -0.7907 C.ar    1  UNL11      -0.0612
      8 C           8.1400    1.6307   -0.7874 C.ar    1  UNL11      -0.0617
      9 C           8.0447    0.2621   -0.6933 C.ar    1  UNL11      -0.0612
     10 C           6.7944   -0.3184   -0.6073 C.ar    1  UNL11      -0.0539
     11 C           3.0581    0.2907    0.0217 C.2     1  UNL11       0.2582
     12 O           2.9071    1.4155    0.5629 O.2     1  UNL11      -0.2692
     13 N           2.0116   -0.6638   -0.1247 N.am    1  UNL11      -0.2028
     14 C           0.6390   -0.5555    0.3044 C.ar    1  UNL11       0.0448
     15 C           0.2956   -0.3611    1.6231 C.ar    1  UNL11      -0.0398
     16 C          -0.9969   -0.2670    2.0830 C.ar    1  UNL11      -0.0597
     17 C          -2.0029   -0.3841    1.0930 C.ar    1  UNL11      -0.0581
     18 C          -1.7051   -0.5779   -0.2210 C.ar    1  UNL11      -0.0396
     19 C          -2.7504   -0.7436   -1.2551 C.3     1  UNL11       0.0211
     20 C          -2.3017   -1.6032   -2.3656 C.2     1  UNL11       0.1192
     21 N          -2.8216   -1.3590   -3.6049 N.2     1  UNL11      -0.0073
     22 N          -2.5160   -2.1251   -4.6206 N.am    1  UNL11      -0.0356
     23 C          -1.6905   -3.1700   -4.4957 C.2     1  UNL11       0.4383
     24 O          -1.3980   -3.9137   -5.4941 O.2     1  UNL11      -0.2116
     25 C          -1.1278   -3.4717   -3.2703 C.ar    1  UNL11       0.1004
     26 C          -0.2592   -4.5249   -3.1187 C.ar    1  UNL11      -0.0441
     27 C           0.3029   -4.7760   -1.8738 C.ar    1  UNL11      -0.0608
     28 C          -0.0156   -3.9627   -0.7928 C.ar    1  UNL11      -0.0611
     29 C          -0.8829   -2.9119   -0.9357 C.ar    1  UNL11      -0.0518
     30 C          -1.4491   -2.6601   -2.1859 C.ar    1  UNL11       0.0192
     31 C          -0.3485   -0.6637   -0.6207 C.ar    1  UNL11      -0.0363
     32 H           4.7099   -2.1363   -1.5071 H       1  UNL11       0.0677
     33 H           4.8046    2.3651   -0.7067 H       1  UNL11       0.0624
     34 H           7.0305    3.4282   -0.8652 H       1  UNL11       0.0618
     35 H           9.1094    2.1503   -0.8618 H       1  UNL11       0.0618
     36 H           8.9362   -0.3590   -0.6909 H       1  UNL11       0.0618
     37 H           6.7133   -1.4002   -0.5357 H       1  UNL11       0.0624
     38 H           1.1124   -0.2732    2.3414 H       1  UNL11       0.0636
     39 H          -1.2460   -0.1111    3.1285 H       1  UNL11       0.0618
     40 H          -2.9915   -0.2910    1.5130 H       1  UNL11       0.0620
     41 H          -3.6175   -1.2632   -0.7426 H       1  UNL11       0.0379
     42 H          -3.0604    0.2478   -1.6065 H       1  UNL11       0.0379
     43 H          -2.9197   -1.9281   -5.5700 H       1  UNL11       0.4829
     44 H          -0.0332   -5.1379   -3.9843 H       1  UNL11       0.0627
     45 H           0.9833   -5.6087   -1.7624 H       1  UNL11       0.0618
     46 H           0.4245   -4.1524    0.1963 H       1  UNL11       0.0618
     47 H          -1.1250   -2.2829   -0.0670 H       1  UNL11       0.0624
     48 H          -0.1412   -0.8092   -1.6618 H       1  UNL11       0.0639
@<TRIPOS>BOND
     1     1     2    2
     2     2     3    1
     3     3     4    2
     4     3    32    1
     5     4     5    1
     6     4    11    1
     7     5     6   ar
     8     6     7   ar
     9     6    33    1
    10     7     8   ar
    11     7    34    1
    12     8     9   ar
    13     8    35    1
    14     9    10   ar
    15     9    36    1
    16    10     5   ar
    17    10    37    1
    18    11    12    2
    19    11    13   am
    20    13    14    1
    21    13     2   am
    22    14    15   ar
    23    15    16   ar
    24    15    38    1
    25    16    17   ar
    26    16    39    1
    27    17    18   ar
    28    17    40    1
    29    18    19    1
    30    18    31   ar
    31    19    20    1
    32    19    41    1
    33    19    42    1
    34    20    21    2
    35    21    22    1
    36    22    23   am
    37    22    43    1
    38    23    24    2
    39    23    25    1
    40    25    26   ar
    41    26    27   ar
    42    26    44    1
    43    27    28   ar
    44    27    45    1
    45    28    29   ar
    46    28    46    1
    47    29    30   ar
    48    29    47    1
    49    30    20    1
    50    30    25   ar
    51    31    14   ar
    52    31    48    1
@<TRIPOS>MOLECULE
*****
 48 52 0 0 0
SMALL
GASTEIGER

@<TRIPOS>ATOM
      1 O           3.1007   -1.2266    1.9113 O.2     1  UNL11      -0.2698
      2 C           3.1340   -0.9801    0.6848 C.2     1  UNL11       0.2511
      3 C           4.3325   -0.9625   -0.1842 C.2     1  UNL11       0.0138
      4 C           3.9861   -0.6625   -1.4201 C.2     1  UNL11       0.0497
      5 C           4.9408   -0.5627   -2.5309 C.ar    1  UNL11      -0.0127
      6 C           6.0879   -1.3235   -2.5274 C.ar    1  UNL11      -0.0539
      7 C           6.9874   -1.2089   -3.5633 C.ar    1  UNL11      -0.0612
      8 C           6.7974   -0.3524   -4.6300 C.ar    1  UNL11      -0.0617
      9 C           5.6543    0.4118   -4.6429 C.ar    1  UNL11      -0.0612
     10 C           4.7557    0.2916   -3.6009 C.ar    1  UNL11      -0.0539
     11 C           2.5442   -0.4678   -1.4306 C.2     1  UNL11       0.2582
     12 O           1.8455   -0.1705   -2.4327 O.2     1  UNL11      -0.2692
     13 N           2.0116   -0.6638   -0.1247 N.am    1  UNL11      -0.2028
     14 C           0.6390   -0.5555    0.3044 C.ar    1  UNL11       0.0448
     15 C           0.2956   -0.3611    1.6231 C.ar    1  UNL11      -0.0398
     16 C          -0.9969   -0.2670    2.0830 C.ar    1  UNL11      -0.0597
     17 C          -2.0029   -0.3841    1.0930 C.ar    1  UNL11      -0.0581
     18 C          -1.7051   -0.5779   -0.2210 C.ar    1  UNL11      -0.0396
     19 C          -2.7504   -0.7436   -1.2551 C.3     1  UNL11       0.0211
     20 C          -2.6716    0.2972   -2.2963 C.2     1  UNL11       0.1192
     21 N          -3.7602    1.1039   -2.4684 N.2     1  UNL11      -0.0073
     22 N          -3.7814    2.0042   -3.4176 N.am    1  UNL11      -0.0356
     23 C          -2.7515    2.1756   -4.2536 C.2     1  UNL11       0.4383
     24 O          -2.7814    3.0577   -5.1790 O.2     1  UNL11      -0.2116
     25 C          -1.6182    1.3943   -4.1333 C.ar    1  UNL11       0.1004
     26 C          -0.5371    1.5645   -4.9634 C.ar    1  UNL11      -0.0441
     27 C           0.5914    0.7740   -4.7899 C.ar    1  UNL11      -0.0608
     28 C           0.6202   -0.1809   -3.7805 C.ar    1  UNL11      -0.0611
     29 C          -0.4549   -0.3581   -2.9501 C.ar    1  UNL11      -0.0518
     30 C          -1.5897    0.4348   -3.1250 C.ar    1  UNL11       0.0192
     31 C          -0.3485   -0.6637   -0.6207 C.ar    1  UNL11      -0.0363
     32 H           5.3246   -1.1801    0.2179 H       1  UNL11       0.0677
     33 H           6.2518   -2.0078   -1.6918 H       1  UNL11       0.0624
     34 H           7.8774   -1.8087   -3.5433 H       1  UNL11       0.0618
     35 H           7.5522   -0.2976   -5.4316 H       1  UNL11       0.0618
     36 H           5.4575    1.1052   -5.4560 H       1  UNL11       0.0618
     37 H           3.8518    0.8956   -3.6048 H       1  UNL11       0.0624
     38 H           1.1124   -0.2732    2.3414 H       1  UNL11       0.0636
     39 H          -1.2460   -0.1111    3.1285 H       1  UNL11       0.0618
     40 H          -2.9915   -0.2910    1.5130 H       1  UNL11       0.0620
     41 H          -2.5467   -1.7436   -1.7480 H       1  UNL11       0.0379
     42 H          -3.7320   -0.7579   -0.7665 H       1  UNL11       0.0379
     43 H          -4.6227    2.6208   -3.5409 H       1  UNL11       0.4829
     44 H          -0.5948    2.3197   -5.7397 H       1  UNL11       0.0627
     45 H           1.4368    0.9124   -5.4494 H       1  UNL11       0.0618
     46 H           1.5089   -0.8109   -3.6343 H       1  UNL11       0.0618
     47 H          -0.4136   -1.1218   -2.1604 H       1  UNL11       0.0624
     48 H          -0.1412   -0.8092   -1.6618 H       1  UNL11       0.0639
@<TRIPOS>BOND
     1     1     2    2
     2     2     3    1
     3     3     4    2
     4     3    32    1
     5     4     5    1
     6     4    11    1
     7     5     6   ar
     8     6     7   ar
     9     6    33    1
    10     7     8   ar
    11     7    34    1
    12     8     9   ar
    13     8    35    1
    14     9    10   ar
    15     9    36    1
    16    10     5   ar
    17    10    37    1
    18    11    12    2
    19    11    13   am
    20    13    14    1
    21    13     2   am
    22    14    15   ar
    23    15    16   ar
    24    15    38    1
    25    16    17   ar
    26    16    39    1
    27    17    18   ar
    28    17    40    1
    29    18    19    1
    30    18    31   ar
    31    19    20    1
    32    19    41    1
    33    19    42    1
    34    20    21    2
    35    21    22    1
    36    22    23   am
    37    22    43    1
    38    23    24    2
    39    23    25    1
    40    25    26   ar
    41    26    27   ar
    42    26    44    1
    43    27    28   ar
    44    27    45    1
    45    28    29   ar
    46    28    46    1
    47    29    30   ar
    48    29    47    1
    49    30    20    1
    50    30    25   ar
    51    31    14   ar
    52    31    48    1
@<TRIPOS>MOLECULE
*****
 48 52 0 0 0
SMALL
GASTEIGER

@<TRIPOS>ATOM
      1 O           2.0330   -2.8314   -1.0988 O.2     1  UNL11      -0.2698
      2 C           2.6137   -1.7696   -0.7801 C.2     1  UNL11       0.2511
      3 C           4.0371   -1.4334   -1.0105 C.2     1  UNL11       0.0138
      4 C           4.2951   -0.2292   -0.5409 C.2     1  UNL11       0.0497
      5 C           5.6173    0.4051   -0.6111 C.ar    1  UNL11      -0.0127
      6 C           6.5199    0.2377    0.4146 C.ar    1  UNL11      -0.0539
      7 C           7.7501    0.8524    0.3499 C.ar    1  UNL11      -0.0612
      8 C           8.1366    1.6462   -0.7121 C.ar    1  UNL11      -0.0617
      9 C           7.2420    1.8194   -1.7421 C.ar    1  UNL11      -0.0612
     10 C           6.0099    1.1995   -1.6712 C.ar    1  UNL11      -0.0539
     11 C           3.0581    0.2907    0.0217 C.2     1  UNL11       0.2582
     12 O           2.9071    1.4155    0.5629 O.2     1  UNL11      -0.2692
     13 N           2.0116   -0.6638   -0.1247 N.am    1  UNL11      -0.2028
     14 C           0.6390   -0.5555    0.3044 C.ar    1  UNL11       0.0448
     15 C           0.2956   -0.3611    1.6231 C.ar    1  UNL11      -0.0398
     16 C          -0.9969   -0.2670    2.0830 C.ar    1  UNL11      -0.0597
     17 C          -2.0029   -0.3841    1.0930 C.ar    1  UNL11      -0.0581
     18 C          -1.7051   -0.5779   -0.2210 C.ar    1  UNL11      -0.0396
     19 C          -2.7504   -0.7436   -1.2551 C.3     1  UNL11       0.0211
     20 C          -2.1762   -0.9556   -2.5963 C.2     1  UNL11       0.1192
     21 N          -0.8148   -0.9711   -2.7067 N.2     1  UNL11      -0.0073
     22 N          -0.2405   -1.0894   -3.8763 N.am    1  UNL11      -0.0356
     23 C          -0.9496   -1.1997   -5.0050 C.2     1  UNL11       0.4383
     24 O          -0.3796   -1.3143   -6.1440 O.2     1  UNL11      -0.2116
     25 C          -2.3308   -1.1935   -4.9643 C.ar    1  UNL11       0.1004
     26 C          -3.0835   -1.3282   -6.1053 C.ar    1  UNL11      -0.0441
     27 C          -4.4692   -1.3422   -6.0146 C.ar    1  UNL11      -0.0608
     28 C          -5.0838   -1.2209   -4.7740 C.ar    1  UNL11      -0.0611
     29 C          -4.3399   -1.0839   -3.6318 C.ar    1  UNL11      -0.0518
     30 C          -2.9476   -1.0681   -3.7226 C.ar    1  UNL11       0.0192
     31 C          -0.3485   -0.6637   -0.6207 C.ar    1  UNL11      -0.0363
     32 H           4.7099   -2.1363   -1.5071 H       1  UNL11       0.0677
     33 H           6.2303   -0.3894    1.2609 H       1  UNL11       0.0624
     34 H           8.4408    0.7121    1.1595 H       1  UNL11       0.0618
     35 H           9.1330    2.1179   -0.7113 H       1  UNL11       0.0618
     36 H           7.4934    2.4375   -2.5996 H       1  UNL11       0.0618
     37 H           5.2978    1.3355   -2.4814 H       1  UNL11       0.0624
     38 H           1.1124   -0.2732    2.3414 H       1  UNL11       0.0636
     39 H          -1.2460   -0.1111    3.1285 H       1  UNL11       0.0618
     40 H          -2.9915   -0.2910    1.5130 H       1  UNL11       0.0620
     41 H          -3.3248   -1.6786   -0.9718 H       1  UNL11       0.0379
     42 H          -3.4147    0.1285   -1.2292 H       1  UNL11       0.0379
     43 H           0.8071   -1.1019   -3.9506 H       1  UNL11       0.4829
     44 H          -2.5698   -1.4211   -7.0560 H       1  UNL11       0.0627
     45 H          -5.0542   -1.4457   -6.9178 H       1  UNL11       0.0618
     46 H          -6.1798   -1.2319   -4.6914 H       1  UNL11       0.0618
     47 H          -4.8455   -0.9851   -2.6606 H       1  UNL11       0.0624
     48 H          -0.1412   -0.8092   -1.6618 H       1  UNL11       0.0639
@<TRIPOS>BOND
     1     1     2    2
     2     2     3    1
     3     3     4    2
     4     3    32    1
     5     4     5    1
     6     4    11    1
     7     5     6   ar
     8     6     7   ar
     9     6    33    1
    10     7     8   ar
    11     7    34    1
    12     8     9   ar
    13     8    35    1
    14     9    10   ar
    15     9    36    1
    16    10     5   ar
    17    10    37    1
    18    11    12    2
    19    11    13   am
    20    13    14    1
    21    13     2   am
    22    14    15   ar
    23    15    16   ar
    24    15    38    1
    25    16    17   ar
    26    16    39    1
    27    17    18   ar
    28    17    40    1
    29    18    19    1
    30    18    31   ar
    31    19    20    1
    32    19    41    1
    33    19    42    1
    34    20    21    2
    35    21    22    1
    36    22    23   am
    37    22    43    1
    38    23    24    2
    39    23    25    1
    40    25    26   ar
    41    26    27   ar
    42    26    44    1
    43    27    28   ar
    44    27    45    1
    45    28    29   ar
    46    28    46    1
    47    29    30   ar
    48    29    47    1
    49    30    20    1
    50    30    25   ar
    51    31    14   ar
    52    31    48    1
@<TRIPOS>MOLECULE
*****
 48 52 0 0 0
SMALL
GASTEIGER

@<TRIPOS>ATOM
      1 O           2.8976    1.4213    0.5933 O.2     1  UNL11      -0.2698
      2 C           3.0331    0.3086    0.0366 C.2     1  UNL11       0.2511
      3 C           4.2693   -0.2350   -0.5701 C.2     1  UNL11       0.0138
      4 C           4.0367   -1.4350   -1.0632 C.2     1  UNL11       0.0497
      5 C           5.0566   -2.2501   -1.7346 C.ar    1  UNL11      -0.0127
      6 C           5.8303   -3.1263   -1.0078 C.ar    1  UNL11      -0.0539
      7 C           6.7979   -3.8723   -1.6423 C.ar    1  UNL11      -0.0612
      8 C           7.0404   -3.7871   -2.9993 C.ar    1  UNL11      -0.0617
      9 C           6.2725   -2.9148   -3.7344 C.ar    1  UNL11      -0.0612
     10 C           5.3031   -2.1699   -3.0918 C.ar    1  UNL11      -0.0539
     11 C           2.6383   -1.7449   -0.8073 C.2     1  UNL11       0.2582
     12 O           2.0448   -2.8054   -1.1299 O.2     1  UNL11      -0.2692
     13 N           2.0116   -0.6638   -0.1247 N.am    1  UNL11      -0.2028
     14 C           0.6390   -0.5555    0.3044 C.ar    1  UNL11       0.0448
     15 C           0.2956   -0.3611    1.6231 C.ar    1  UNL11      -0.0398
     16 C          -0.9969   -0.2670    2.0830 C.ar    1  UNL11      -0.0597
     17 C          -2.0029   -0.3841    1.0930 C.ar    1  UNL11      -0.0581
     18 C          -1.7051   -0.5779   -0.2210 C.ar    1  UNL11      -0.0396
     19 C          -2.7504   -0.7436   -1.2551 C.3     1  UNL11       0.0211
     20 C          -3.1229   -2.1571   -1.4468 C.2     1  UNL11       0.1192
     21 N          -3.0123   -2.9922   -0.3716 N.2     1  UNL11      -0.0073
     22 N          -3.2641   -4.2707   -0.4897 N.am    1  UNL11      -0.0356
     23 C          -3.6372   -4.8139   -1.6536 C.2     1  UNL11       0.4383
     24 O          -3.8806   -6.0648   -1.7598 O.2     1  UNL11      -0.2116
     25 C          -3.7706   -4.0253   -2.7803 C.ar    1  UNL11       0.1004
     26 C          -4.1743   -4.5529   -3.9825 C.ar    1  UNL11      -0.0441
     27 C          -4.3197   -3.7184   -5.0830 C.ar    1  UNL11      -0.0608
     28 C          -4.0573   -2.3591   -4.9615 C.ar    1  UNL11      -0.0611
     29 C          -3.6521   -1.8259   -3.7664 C.ar    1  UNL11      -0.0518
     30 C          -3.5042   -2.6641   -2.6607 C.ar    1  UNL11       0.0192
     31 C          -0.3485   -0.6637   -0.6207 C.ar    1  UNL11      -0.0363
     32 H           5.1992    0.3382   -0.5664 H       1  UNL11       0.0677
     33 H           5.6492   -3.2072    0.0665 H       1  UNL11       0.0624
     34 H           7.3931   -4.5493   -1.0595 H       1  UNL11       0.0618
     35 H           7.8307   -4.4053   -3.4559 H       1  UNL11       0.0618
     36 H           6.4246   -2.8055   -4.8047 H       1  UNL11       0.0618
     37 H           4.6952   -1.4766   -3.6678 H       1  UNL11       0.0624
     38 H           1.1124   -0.2732    2.3414 H       1  UNL11       0.0636
     39 H          -1.2460   -0.1111    3.1285 H       1  UNL11       0.0618
     40 H          -2.9915   -0.2910    1.5130 H       1  UNL11       0.0620
     41 H          -3.6628   -0.1938   -0.8682 H       1  UNL11       0.0379
     42 H          -2.4014   -0.2839   -2.1875 H       1  UNL11       0.0379
     43 H          -3.1777   -4.9043    0.3435 H       1  UNL11       0.4829
     44 H          -4.3708   -5.6180   -4.0402 H       1  UNL11       0.0627
     45 H          -4.6350   -4.1423   -6.0263 H       1  UNL11       0.0618
     46 H          -4.1704   -1.6900   -5.8262 H       1  UNL11       0.0618
     47 H          -3.4456   -0.7486   -3.6923 H       1  UNL11       0.0624
     48 H          -0.1412   -0.8092   -1.6618 H       1  UNL11       0.0639
@<TRIPOS>BOND
     1     1     2    2
     2     2     3    1
     3     3     4    2
     4     3    32    1
     5     4     5    1
     6     4    11    1
     7     5     6   ar
     8     6     7   ar
     9     6    33    1
    10     7     8   ar
    11     7    34    1
    12     8     9   ar
    13     8    35    1
    14     9    10   ar
    15     9    36    1
    16    10     5   ar
    17    10    37    1
    18    11    12    2
    19    11    13   am
    20    13    14    1
    21    13     2   am
    22    14    15   ar
    23    15    16   ar
    24    15    38    1
    25    16    17   ar
    26    16    39    1
    27    17    18   ar
    28    17    40    1
    29    18    19    1
    30    18    31   ar
    31    19    20    1
    32    19    41    1
    33    19    42    1
    34    20    21    2
    35    21    22    1
    36    22    23   am
    37    22    43    1
    38    23    24    2
    39    23    25    1
    40    25    26   ar
    41    26    27   ar
    42    26    44    1
    43    27    28   ar
    44    27    45    1
    45    28    29   ar
    46    28    46    1
    47    29    30   ar
    48    29    47    1
    49    30    20    1
    50    30    25   ar
    51    31    14   ar
    52    31    48    1
@<TRIPOS>MOLECULE
*****
 48 52 0 0 0
SMALL
GASTEIGER

@<TRIPOS>ATOM
      1 O           2.8976    1.4213    0.5933 O.2     1  UNL11      -0.2698
      2 C           3.0331    0.3086    0.0366 C.2     1  UNL11       0.2511
      3 C           4.2693   -0.2350   -0.5701 C.2     1  UNL11       0.0138
      4 C           4.0367   -1.4350   -1.0632 C.2     1  UNL11       0.0497
      5 C           5.0566   -2.2501   -1.7346 C.ar    1  UNL11      -0.0127
      6 C           5.8303   -3.1263   -1.0078 C.ar    1  UNL11      -0.0539
      7 C           6.7979   -3.8723   -1.6423 C.ar    1  UNL11      -0.0612
      8 C           7.0404   -3.7871   -2.9993 C.ar    1  UNL11      -0.0617
      9 C           6.2725   -2.9148   -3.7344 C.ar    1  UNL11      -0.0612
     10 C           5.3031   -2.1699   -3.0918 C.ar    1  UNL11      -0.0539
     11 C           2.6383   -1.7449   -0.8073 C.2     1  UNL11       0.2582
     12 O           2.0448   -2.8054   -1.1299 O.2     1  UNL11      -0.2692
     13 N           2.0116   -0.6638   -0.1247 N.am    1  UNL11      -0.2028
     14 C           0.6390   -0.5555    0.3044 C.ar    1  UNL11       0.0448
     15 C           0.2956   -0.3611    1.6231 C.ar    1  UNL11      -0.0398
     16 C          -0.9969   -0.2670    2.0830 C.ar    1  UNL11      -0.0597
     17 C          -2.0029   -0.3841    1.0930 C.ar    1  UNL11      -0.0581
     18 C          -1.7051   -0.5779   -0.2210 C.ar    1  UNL11      -0.0396
     19 C          -2.7504   -0.7436   -1.2551 C.3     1  UNL11       0.0211
     20 C          -3.1229   -2.1571   -1.4468 C.2     1  UNL11       0.1192
     21 N          -2.1649   -3.1017   -1.2106 N.2     1  UNL11      -0.0073
     22 N          -2.4093   -4.3692   -1.4241 N.am    1  UNL11      -0.0356
     23 C          -3.5933   -4.7951   -1.8776 C.2     1  UNL11       0.4383
     24 O          -3.8228   -6.0361   -2.0841 O.2     1  UNL11      -0.2116
     25 C          -4.6072   -3.8923   -2.1350 C.ar    1  UNL11       0.1004
     26 C          -5.8399   -4.3043   -2.5794 C.ar    1  UNL11      -0.0441
     27 C          -6.8380   -3.3644   -2.8007 C.ar    1  UNL11      -0.0608
     28 C          -6.5845   -2.0173   -2.5715 C.ar    1  UNL11      -0.0611
     29 C          -5.3569   -1.5985   -2.1305 C.ar    1  UNL11      -0.0518
     30 C          -4.3532   -2.5423   -1.9095 C.ar    1  UNL11       0.0192
     31 C          -0.3485   -0.6637   -0.6207 C.ar    1  UNL11      -0.0363
     32 H           5.1992    0.3382   -0.5664 H       1  UNL11       0.0677
     33 H           5.6492   -3.2072    0.0665 H       1  UNL11       0.0624
     34 H           7.3931   -4.5493   -1.0595 H       1  UNL11       0.0618
     35 H           7.8307   -4.4053   -3.4559 H       1  UNL11       0.0618
     36 H           6.4246   -2.8055   -4.8047 H       1  UNL11       0.0618
     37 H           4.6952   -1.4766   -3.6678 H       1  UNL11       0.0624
     38 H           1.1124   -0.2732    2.3414 H       1  UNL11       0.0636
     39 H          -1.2460   -0.1111    3.1285 H       1  UNL11       0.0618
     40 H          -2.9915   -0.2910    1.5130 H       1  UNL11       0.0620
     41 H          -3.6628   -0.1938   -0.8682 H       1  UNL11       0.0379
     42 H          -2.4014   -0.2839   -2.1875 H       1  UNL11       0.0379
     43 H          -1.6665   -5.0881   -1.2379 H       1  UNL11       0.4829
     44 H          -6.0020   -5.3635   -2.7468 H       1  UNL11       0.0627
     45 H          -7.8044   -3.6967   -3.1532 H       1  UNL11       0.0618
     46 H          -7.3679   -1.2656   -2.7427 H       1  UNL11       0.0618
     47 H          -5.1754   -0.5278   -1.9593 H       1  UNL11       0.0624
     48 H          -0.1412   -0.8092   -1.6618 H       1  UNL11       0.0639
@<TRIPOS>BOND
     1     1     2    2
     2     2     3    1
     3     3     4    2
     4     3    32    1
     5     4     5    1
     6     4    11    1
     7     5     6   ar
     8     6     7   ar
     9     6    33    1
    10     7     8   ar
    11     7    34    1
    12     8     9   ar
    13     8    35    1
    14     9    10   ar
    15     9    36    1
    16    10     5   ar
    17    10    37    1
    18    11    12    2
    19    11    13   am
    20    13    14    1
    21    13     2   am
    22    14    15   ar
    23    15    16   ar
    24    15    38    1
    25    16    17   ar
    26    16    39    1
    27    17    18   ar
    28    17    40    1
    29    18    19    1
    30    18    31   ar
    31    19    20    1
    32    19    41    1
    33    19    42    1
    34    20    21    2
    35    21    22    1
    36    22    23   am
    37    22    43    1
    38    23    24    2
    39    23    25    1
    40    25    26   ar
    41    26    27   ar
    42    26    44    1
    43    27    28   ar
    44    27    45    1
    45    28    29   ar
    46    28    46    1
    47    29    30   ar
    48    29    47    1
    49    30    20    1
    50    30    25   ar
    51    31    14   ar
    52    31    48    1
@<TRIPOS>MOLECULE
*****
 48 52 0 0 0
SMALL
GASTEIGER

@<TRIPOS>ATOM
      1 O           2.8976    1.4213    0.5933 O.2     1  UNL11      -0.2698
      2 C           3.0331    0.3086    0.0366 C.2     1  UNL11       0.2511
      3 C           4.2693   -0.2350   -0.5701 C.2     1  UNL11       0.0138
      4 C           4.0367   -1.4350   -1.0632 C.2     1  UNL11       0.0497
      5 C           5.0566   -2.2501   -1.7346 C.ar    1  UNL11      -0.0127
      6 C           6.3394   -1.7723   -1.8783 C.ar    1  UNL11      -0.0539
      7 C           7.2845   -2.5350   -2.5268 C.ar    1  UNL11      -0.0612
      8 C           7.0091   -3.7816   -3.0536 C.ar    1  UNL11      -0.0617
      9 C           5.7303   -4.2681   -2.9150 C.ar    1  UNL11      -0.0612
     10 C           4.7872   -3.4982   -2.2628 C.ar    1  UNL11      -0.0539
     11 C           2.6383   -1.7449   -0.8073 C.2     1  UNL11       0.2582
     12 O           2.0448   -2.8054   -1.1299 O.2     1  UNL11      -0.2692
     13 N           2.0116   -0.6638   -0.1247 N.am    1  UNL11      -0.2028
     14 C           0.6390   -0.5555    0.3044 C.ar    1  UNL11       0.0448
     15 C           0.2956   -0.3611    1.6231 C.ar    1  UNL11      -0.0398
     16 C          -0.9969   -0.2670    2.0830 C.ar    1  UNL11      -0.0597
     17 C          -2.0029   -0.3841    1.0930 C.ar    1  UNL11      -0.0581
     18 C          -1.7051   -0.5779   -0.2210 C.ar    1  UNL11      -0.0396
     19 C          -2.7504   -0.7436   -1.2551 C.3     1  UNL11       0.0211
     20 C          -3.6243   -1.8989   -0.9813 C.2     1  UNL11       0.1192
     21 N          -3.0384   -3.1300   -0.8982 N.2     1  UNL11      -0.0073
     22 N          -3.7637   -4.2047   -0.7224 N.am    1  UNL11      -0.0356
     23 C          -5.0959   -4.1501   -0.6168 C.2     1  UNL11       0.4383
     24 O          -5.7967   -5.2060   -0.4458 O.2     1  UNL11      -0.2116
     25 C          -5.7520   -2.9362   -0.6898 C.ar    1  UNL11       0.1004
     26 C          -7.1167   -2.8487   -0.5616 C.ar    1  UNL11      -0.0441
     27 C          -7.7319   -1.6048   -0.6159 C.ar    1  UNL11      -0.0608
     28 C          -6.9654   -0.4599   -0.7984 C.ar    1  UNL11      -0.0611
     29 C          -5.6040   -0.5394   -0.9294 C.ar    1  UNL11      -0.0518
     30 C          -4.9856   -1.7891   -0.8766 C.ar    1  UNL11       0.0192
     31 C          -0.3485   -0.6637   -0.6207 C.ar    1  UNL11      -0.0363
     32 H           5.1992    0.3382   -0.5664 H       1  UNL11       0.0677
     33 H           6.5740   -0.7887   -1.4649 H       1  UNL11       0.0624
     34 H           8.2794   -2.1459   -2.6311 H       1  UNL11       0.0618
     35 H           7.8030   -4.3487   -3.5668 H       1  UNL11       0.0618
     36 H           5.4587   -5.2412   -3.3147 H       1  UNL11       0.0618
     37 H           3.7740   -3.8767   -2.1531 H       1  UNL11       0.0624
     38 H           1.1124   -0.2732    2.3414 H       1  UNL11       0.0636
     39 H          -1.2460   -0.1111    3.1285 H       1  UNL11       0.0618
     40 H          -2.9915   -0.2910    1.5130 H       1  UNL11       0.0620
     41 H          -3.3877    0.1924   -1.2081 H       1  UNL11       0.0379
     42 H          -2.2676   -0.8211   -2.2366 H       1  UNL11       0.0379
     43 H          -3.3036   -5.1467   -0.6582 H       1  UNL11       0.4829
     44 H          -7.6827   -3.7629   -0.4198 H       1  UNL11       0.0627
     45 H          -8.8068   -1.5450   -0.5171 H       1  UNL11       0.0618
     46 H          -7.4425    0.5293   -0.8418 H       1  UNL11       0.0618
     47 H          -5.0162    0.3778   -1.0772 H       1  UNL11       0.0624
     48 H          -0.1412   -0.8092   -1.6618 H       1  UNL11       0.0639
@<TRIPOS>BOND
     1     1     2    2
     2     2     3    1
     3     3     4    2
     4     3    32    1
     5     4     5    1
     6     4    11    1
     7     5     6   ar
     8     6     7   ar
     9     6    33    1
    10     7     8   ar
    11     7    34    1
    12     8     9   ar
    13     8    35    1
    14     9    10   ar
    15     9    36    1
    16    10     5   ar
    17    10    37    1
    18    11    12    2
    19    11    13   am
    20    13    14    1
    21    13     2   am
    22    14    15   ar
    23    15    16   ar
    24    15    38    1
    25    16    17   ar
    26    16    39    1
    27    17    18   ar
    28    17    40    1
    29    18    19    1
    30    18    31   ar
    31    19    20    1
    32    19    41    1
    33    19    42    1
    34    20    21    2
    35    21    22    1
    36    22    23   am
    37    22    43    1
    38    23    24    2
    39    23    25    1
    40    25    26   ar
    41    26    27   ar
    42    26    44    1
    43    27    28   ar
    44    27    45    1
    45    28    29   ar
    46    28    46    1
    47    29    30   ar
    48    29    47    1
    49    30    20    1
    50    30    25   ar
    51    31    14   ar
    52    31    48    1
@<TRIPOS>MOLECULE
*****
 48 52 0 0 0
SMALL
GASTEIGER

@<TRIPOS>ATOM
      1 O           2.1810    1.1641   -1.6340 O.2     1  UNL11      -0.2698
      2 C           2.6833    0.1783   -1.0492 C.2     1  UNL11       0.2511
      3 C           4.0691   -0.3241   -1.1882 C.2     1  UNL11       0.0138
      4 C           4.2418   -1.3815   -0.4205 C.2     1  UNL11       0.0497
      5 C           5.5071   -2.1203   -0.3264 C.ar    1  UNL11      -0.0127
      6 C           6.3625   -2.1669   -1.4038 C.ar    1  UNL11      -0.0539
      7 C           7.5376   -2.8785   -1.3135 C.ar    1  UNL11      -0.0612
      8 C           7.9132   -3.5642   -0.1750 C.ar    1  UNL11      -0.0617
      9 C           7.0655   -3.5236    0.9070 C.ar    1  UNL11      -0.0612
     10 C           5.8886   -2.8073    0.8100 C.ar    1  UNL11      -0.0539
     11 C           2.9822   -1.6305    0.2638 C.2     1  UNL11       0.2582
     12 O           2.7567   -2.5563    1.0842 O.2     1  UNL11      -0.2692
     13 N           2.0116   -0.6638   -0.1247 N.am    1  UNL11      -0.2028
     14 C           0.6390   -0.5555    0.3044 C.ar    1  UNL11       0.0448
     15 C           0.2956   -0.3611    1.6231 C.ar    1  UNL11      -0.0398
     16 C          -0.9969   -0.2670    2.0830 C.ar    1  UNL11      -0.0597
     17 C          -2.0029   -0.3841    1.0930 C.ar    1  UNL11      -0.0581
     18 C          -1.7051   -0.5779   -0.2210 C.ar    1  UNL11      -0.0396
     19 C          -2.7504   -0.7436   -1.2551 C.3     1  UNL11       0.0211
     20 C          -3.6243   -1.8989   -0.9813 C.2     1  UNL11       0.1192
     21 N          -3.0384   -3.1300   -0.8982 N.2     1  UNL11      -0.0073
     22 N          -3.7637   -4.2047   -0.7224 N.am    1  UNL11      -0.0356
     23 C          -5.0959   -4.1501   -0.6168 C.2     1  UNL11       0.4383
     24 O          -5.7967   -5.2060   -0.4458 O.2     1  UNL11      -0.2116
     25 C          -5.7520   -2.9362   -0.6898 C.ar    1  UNL11       0.1004
     26 C          -7.1167   -2.8487   -0.5616 C.ar    1  UNL11      -0.0441
     27 C          -7.7319   -1.6048   -0.6159 C.ar    1  UNL11      -0.0608
     28 C          -6.9654   -0.4599   -0.7984 C.ar    1  UNL11      -0.0611
     29 C          -5.6040   -0.5394   -0.9294 C.ar    1  UNL11      -0.0518
     30 C          -4.9856   -1.7891   -0.8766 C.ar    1  UNL11       0.0192
     31 C          -0.3485   -0.6637   -0.6207 C.ar    1  UNL11      -0.0363
     32 H           4.7843    0.1685   -1.8508 H       1  UNL11       0.0677
     33 H           6.0809   -1.6276   -2.3111 H       1  UNL11       0.0624
     34 H           8.1919   -2.9053   -2.1640 H       1  UNL11       0.0618
     35 H           8.8642   -4.1214   -0.1581 H       1  UNL11       0.0618
     36 H           7.3104   -4.0491    1.8259 H       1  UNL11       0.0618
     37 H           5.2134   -2.7744    1.6615 H       1  UNL11       0.0624
     38 H           1.1124   -0.2732    2.3414 H       1  UNL11       0.0636
     39 H          -1.2460   -0.1111    3.1285 H       1  UNL11       0.0618
     40 H          -2.9915   -0.2910    1.5130 H       1  UNL11       0.0620
     41 H          -3.3877    0.1924   -1.2081 H       1  UNL11       0.0379
     42 H          -2.2676   -0.8211   -2.2366 H       1  UNL11       0.0379
     43 H          -3.3036   -5.1467   -0.6582 H       1  UNL11       0.4829
     44 H          -7.6827   -3.7629   -0.4198 H       1  UNL11       0.0627
     45 H          -8.8068   -1.5450   -0.5171 H       1  UNL11       0.0618
     46 H          -7.4425    0.5293   -0.8418 H       1  UNL11       0.0618
     47 H          -5.0162    0.3778   -1.0772 H       1  UNL11       0.0624
     48 H          -0.1412   -0.8092   -1.6618 H       1  UNL11       0.0639
@<TRIPOS>BOND
     1     1     2    2
     2     2     3    1
     3     3     4    2
     4     3    32    1
     5     4     5    1
     6     4    11    1
     7     5     6   ar
     8     6     7   ar
     9     6    33    1
    10     7     8   ar
    11     7    34    1
    12     8     9   ar
    13     8    35    1
    14     9    10   ar
    15     9    36    1
    16    10     5   ar
    17    10    37    1
    18    11    12    2
    19    11    13   am
    20    13    14    1
    21    13     2   am
    22    14    15   ar
    23    15    16   ar
    24    15    38    1
    25    16    17   ar
    26    16    39    1
    27    17    18   ar
    28    17    40    1
    29    18    19    1
    30    18    31   ar
    31    19    20    1
    32    19    41    1
    33    19    42    1
    34    20    21    2
    35    21    22    1
    36    22    23   am
    37    22    43    1
    38    23    24    2
    39    23    25    1
    40    25    26   ar
    41    26    27   ar
    42    26    44    1
    43    27    28   ar
    44    27    45    1
    45    28    29   ar
    46    28    46    1
    47    29    30   ar
    48    29    47    1
    49    30    20    1
    50    30    25   ar
    51    31    14   ar
    52    31    48    1
@<TRIPOS>MOLECULE
*****
 48 52 0 0 0
SMALL
GASTEIGER

@<TRIPOS>ATOM
      1 O           2.5428    1.6058   -0.5880 O.2     1  UNL11      -0.2698
      2 C           2.8597    0.3961   -0.5399 C.2     1  UNL11       0.2511
      3 C           4.1694   -0.1928   -0.9002 C.2     1  UNL11       0.0138
      4 C           4.1374   -1.4988   -0.7251 C.2     1  UNL11       0.0497
      5 C           5.2782   -2.3835   -0.9920 C.ar    1  UNL11      -0.0127
      6 C           5.0666   -3.6821   -1.3963 C.ar    1  UNL11      -0.0539
      7 C           6.1418   -4.5108   -1.6252 C.ar    1  UNL11      -0.0612
      8 C           7.4512   -4.1009   -1.4673 C.ar    1  UNL11      -0.0617
      9 C           7.6733   -2.8051   -1.0639 C.ar    1  UNL11      -0.0612
     10 C           6.5901   -1.9789   -0.8365 C.ar    1  UNL11      -0.0539
     11 C           2.8082   -1.8384   -0.2404 C.2     1  UNL11       0.2582
     12 O           2.3969   -2.9922    0.0435 O.2     1  UNL11      -0.2692
     13 N           2.0116   -0.6638   -0.1247 N.am    1  UNL11      -0.2028
     14 C           0.6390   -0.5555    0.3044 C.ar    1  UNL11       0.0448
     15 C           0.2956   -0.3611    1.6231 C.ar    1  UNL11      -0.0398
     16 C          -0.9969   -0.2670    2.0830 C.ar    1  UNL11      -0.0597
     17 C          -2.0029   -0.3841    1.0930 C.ar    1  UNL11      -0.0581
     18 C          -1.7051   -0.5779   -0.2210 C.ar    1  UNL11      -0.0396
     19 C          -2.7504   -0.7436   -1.2551 C.3     1  UNL11       0.0211
     20 C          -2.6475   -2.0420   -1.9458 C.2     1  UNL11       0.1192
     21 N          -1.4818   -2.3193   -2.6016 N.2     1  UNL11      -0.0073
     22 N          -1.3484   -3.4247   -3.2889 N.am    1  UNL11      -0.0356
     23 C          -2.3339   -4.3242   -3.3807 C.2     1  UNL11       0.4383
     24 O          -2.1947   -5.4016   -4.0554 O.2     1  UNL11      -0.2116
     25 C          -3.5385   -4.1068   -2.7397 C.ar    1  UNL11       0.1004
     26 C          -4.5591   -5.0243   -2.7984 C.ar    1  UNL11      -0.0441
     27 C          -5.7438   -4.7762   -2.1174 C.ar    1  UNL11      -0.0608
     28 C          -5.8888   -3.6054   -1.3828 C.ar    1  UNL11      -0.0611
     29 C          -4.8762   -2.6846   -1.3213 C.ar    1  UNL11      -0.0518
     30 C          -3.6864   -2.9326   -2.0067 C.ar    1  UNL11       0.0192
     31 C          -0.3485   -0.6637   -0.6207 C.ar    1  UNL11      -0.0363
     32 H           4.9929    0.4337   -1.2503 H       1  UNL11       0.0677
     33 H           4.0365   -4.0211   -1.5283 H       1  UNL11       0.0624
     34 H           5.9580   -5.5209   -1.9384 H       1  UNL11       0.0618
     35 H           8.2751   -4.8073   -1.6608 H       1  UNL11       0.0618
     36 H           8.6837   -2.4324   -0.9199 H       1  UNL11       0.0618
     37 H           6.7600   -0.9544   -0.5147 H       1  UNL11       0.0624
     38 H           1.1124   -0.2732    2.3414 H       1  UNL11       0.0636
     39 H          -1.2460   -0.1111    3.1285 H       1  UNL11       0.0618
     40 H          -2.9915   -0.2910    1.5130 H       1  UNL11       0.0620
     41 H          -3.7409   -0.7209   -0.7047 H       1  UNL11       0.0379
     42 H          -2.6903    0.0972   -1.9565 H       1  UNL11       0.0379
     43 H          -0.4475   -3.6296   -3.7883 H       1  UNL11       0.4829
     44 H          -4.4104   -5.9270   -3.3808 H       1  UNL11       0.0627
     45 H          -6.5431   -5.5021   -2.1712 H       1  UNL11       0.0618
     46 H          -6.8219   -3.4001   -0.8395 H       1  UNL11       0.0618
     47 H          -5.0125   -1.7627   -0.7380 H       1  UNL11       0.0624
     48 H          -0.1412   -0.8092   -1.6618 H       1  UNL11       0.0639
@<TRIPOS>BOND
     1     1     2    2
     2     2     3    1
     3     3     4    2
     4     3    32    1
     5     4     5    1
     6     4    11    1
     7     5     6   ar
     8     6     7   ar
     9     6    33    1
    10     7     8   ar
    11     7    34    1
    12     8     9   ar
    13     8    35    1
    14     9    10   ar
    15     9    36    1
    16    10     5   ar
    17    10    37    1
    18    11    12    2
    19    11    13   am
    20    13    14    1
    21    13     2   am
    22    14    15   ar
    23    15    16   ar
    24    15    38    1
    25    16    17   ar
    26    16    39    1
    27    17    18   ar
    28    17    40    1
    29    18    19    1
    30    18    31   ar
    31    19    20    1
    32    19    41    1
    33    19    42    1
    34    20    21    2
    35    21    22    1
    36    22    23   am
    37    22    43    1
    38    23    24    2
    39    23    25    1
    40    25    26   ar
    41    26    27   ar
    42    26    44    1
    43    27    28   ar
    44    27    45    1
    45    28    29   ar
    46    28    46    1
    47    29    30   ar
    48    29    47    1
    49    30    20    1
    50    30    25   ar
    51    31    14   ar
    52    31    48    1
@<TRIPOS>MOLECULE
*****
 48 52 0 0 0
SMALL
GASTEIGER

@<TRIPOS>ATOM
      1 O           3.1584    0.3336    1.7023 O.2     1  UNL11      -0.2698
      2 C           3.1612   -0.2195    0.5797 C.2     1  UNL11       0.2511
      3 C           4.3450   -0.5294   -0.2536 C.2     1  UNL11       0.0138
      4 C           3.9653   -1.1125   -1.3731 C.2     1  UNL11       0.0497
      5 C           4.8977   -1.5488   -2.4198 C.ar    1  UNL11      -0.0127
      6 C           4.5020   -1.5589   -3.7381 C.ar    1  UNL11      -0.0539
      7 C           5.3762   -1.9884   -4.7111 C.ar    1  UNL11      -0.0612
      8 C           6.6576   -2.4200   -4.4300 C.ar    1  UNL11      -0.0617
      9 C           7.0627   -2.4135   -3.1159 C.ar    1  UNL11      -0.0612
     10 C           6.1810   -1.9808   -2.1448 C.ar    1  UNL11      -0.0539
     11 C           2.5146   -1.2180   -1.3361 C.2     1  UNL11       0.2582
     12 O           1.7867   -1.7214   -2.2292 O.2     1  UNL11      -0.2692
     13 N           2.0116   -0.6638   -0.1247 N.am    1  UNL11      -0.2028
     14 C           0.6390   -0.5555    0.3044 C.ar    1  UNL11       0.0448
     15 C           0.2956   -0.3611    1.6231 C.ar    1  UNL11      -0.0398
     16 C          -0.9969   -0.2670    2.0830 C.ar    1  UNL11      -0.0597
     17 C          -2.0029   -0.3841    1.0930 C.ar    1  UNL11      -0.0581
     18 C          -1.7051   -0.5779   -0.2210 C.ar    1  UNL11      -0.0396
     19 C          -2.7504   -0.7436   -1.2551 C.3     1  UNL11       0.0211
     20 C          -2.6475   -2.0420   -1.9458 C.2     1  UNL11       0.1192
     21 N          -1.4818   -2.3193   -2.6016 N.2     1  UNL11      -0.0073
     22 N          -1.3484   -3.4247   -3.2889 N.am    1  UNL11      -0.0356
     23 C          -2.3339   -4.3242   -3.3807 C.2     1  UNL11       0.4383
     24 O          -2.1947   -5.4016   -4.0554 O.2     1  UNL11      -0.2116
     25 C          -3.5385   -4.1068   -2.7397 C.ar    1  UNL11       0.1004
     26 C          -4.5591   -5.0243   -2.7984 C.ar    1  UNL11      -0.0441
     27 C          -5.7438   -4.7762   -2.1174 C.ar    1  UNL11      -0.0608
     28 C          -5.8888   -3.6054   -1.3828 C.ar    1  UNL11      -0.0611
     29 C          -4.8762   -2.6846   -1.3213 C.ar    1  UNL11      -0.0518
     30 C          -3.6864   -2.9326   -2.0067 C.ar    1  UNL11       0.0192
     31 C          -0.3485   -0.6637   -0.6207 C.ar    1  UNL11      -0.0363
     32 H           5.3536   -0.2802    0.0837 H       1  UNL11       0.0677
     33 H           3.4920   -1.2181   -3.9773 H       1  UNL11       0.0624
     34 H           5.0501   -1.9911   -5.7337 H       1  UNL11       0.0618
     35 H           7.3154   -2.7571   -5.2478 H       1  UNL11       0.0618
     36 H           8.0590   -2.7470   -2.8389 H       1  UNL11       0.0618
     37 H           6.4952   -1.9763   -1.1040 H       1  UNL11       0.0624
     38 H           1.1124   -0.2732    2.3414 H       1  UNL11       0.0636
     39 H          -1.2460   -0.1111    3.1285 H       1  UNL11       0.0618
     40 H          -2.9915   -0.2910    1.5130 H       1  UNL11       0.0620
     41 H          -3.7409   -0.7209   -0.7047 H       1  UNL11       0.0379
     42 H          -2.6903    0.0972   -1.9565 H       1  UNL11       0.0379
     43 H          -0.4475   -3.6296   -3.7883 H       1  UNL11       0.4829
     44 H          -4.4104   -5.9270   -3.3808 H       1  UNL11       0.0627
     45 H          -6.5431   -5.5021   -2.1712 H       1  UNL11       0.0618
     46 H          -6.8219   -3.4001   -0.8395 H       1  UNL11       0.0618
     47 H          -5.0125   -1.7627   -0.7380 H       1  UNL11       0.0624
     48 H          -0.1412   -0.8092   -1.6618 H       1  UNL11       0.0639
@<TRIPOS>BOND
     1     1     2    2
     2     2     3    1
     3     3     4    2
     4     3    32    1
     5     4     5    1
     6     4    11    1
     7     5     6   ar
     8     6     7   ar
     9     6    33    1
    10     7     8   ar
    11     7    34    1
    12     8     9   ar
    13     8    35    1
    14     9    10   ar
    15     9    36    1
    16    10     5   ar
    17    10    37    1
    18    11    12    2
    19    11    13   am
    20    13    14    1
    21    13     2   am
    22    14    15   ar
    23    15    16   ar
    24    15    38    1
    25    16    17   ar
    26    16    39    1
    27    17    18   ar
    28    17    40    1
    29    18    19    1
    30    18    31   ar
    31    19    20    1
    32    19    41    1
    33    19    42    1
    34    20    21    2
    35    21    22    1
    36    22    23   am
    37    22    43    1
    38    23    24    2
    39    23    25    1
    40    25    26   ar
    41    26    27   ar
    42    26    44    1
    43    27    28   ar
    44    27    45    1
    45    28    29   ar
    46    28    46    1
    47    29    30   ar
    48    29    47    1
    49    30    20    1
    50    30    25   ar
    51    31    14   ar
    52    31    48    1
