@<TRIPOS>MOLECULE
*****
 49 52 0 0 0
SMALL
GASTEIGER

@<TRIPOS>ATOM
      1 O          -1.0052    1.6535    0.3355 O.2     1  UNL11      -0.2756
      2 C           0.0847    2.2662    0.2280 C.2     1  UNL11       0.2162
      3 C           0.0807    3.7337    0.2037 C.3     1  UNL11       0.0351
      4 C           1.3023    4.3896    0.7701 C.3     1  UNL11       0.0594
      5 C           2.5042    3.9526   -0.0399 C.2     1  UNL11       0.2951
      6 N           2.3262    3.6462   -1.3429 N.2     1  UNL11      -0.0454
      7 C           3.3650    3.2987   -2.1211 C.ar    1  UNL11       0.1903
      8 C           3.1609    2.9950   -3.4438 C.ar    1  UNL11      -0.0100
      9 C           4.2491    2.6488   -4.2061 C.ar    1  UNL11      -0.0576
     10 C           5.5109    2.5940   -3.7059 C.ar    1  UNL11      -0.0607
     11 C           5.7453    2.8978   -2.3603 C.ar    1  UNL11      -0.0432
     12 C           4.6299    3.2488   -1.5952 C.ar    1  UNL11       0.1121
     13 C           4.8204    3.5596   -0.2615 C.2     1  UNL11       0.3368
     14 O           5.9726    3.5084    0.2018 O.2     1  UNL11      -0.2416
     15 N           3.7355    3.9021    0.4679 N.am    1  UNL11      -0.1702
     16 N           1.2921    1.5197    0.1427 N.am    1  UNL11      -0.2985
     17 C           2.5536    2.1870    0.0345 C.3     1  UNL11       0.0304
     18 C           3.6096    1.3412   -0.6323 C.3     1  UNL11       0.0280
     19 N           3.7114   -0.0038   -0.1132 N.pl3   1  UNL11      -0.3269
     20 C           4.6950   -0.9359   -0.5007 C.ar    1  UNL11       0.0299
     21 C           5.9450   -0.4935   -0.9084 C.ar    1  UNL11      -0.0379
     22 C           6.9240   -1.3884   -1.2756 C.ar    1  UNL11      -0.0247
     23 C           6.6471   -2.7584   -1.2334 C.ar    1  UNL11       0.1235
     24 F           7.6448   -3.5888   -1.6141 F       1  UNL11      -0.2055
     25 C           5.4132   -3.1860   -0.8308 C.ar    1  UNL11      -0.0247
     26 C           4.4011   -2.2689   -0.4533 C.ar    1  UNL11      -0.0379
     27 C           2.6617   -0.3513    0.8563 C.3     1  UNL11       0.0280
     28 C           1.3068    0.0584    0.2433 C.3     1  UNL11       0.0304
     29 H           0.0876    4.0222   -0.8990 H       1  UNL11       0.0364
     30 H          -0.8560    4.1956    0.5815 H       1  UNL11       0.0364
     31 H           1.2865    5.4928    0.7114 H       1  UNL11       0.0392
     32 H           1.4739    4.0766    1.8096 H       1  UNL11       0.0392
     33 H           2.1365    3.0425   -3.8397 H       1  UNL11       0.0661
     34 H           4.0305    2.4196   -5.2610 H       1  UNL11       0.0619
     35 H           6.3405    2.3122   -4.3505 H       1  UNL11       0.0618
     36 H           6.7379    2.8589   -1.9429 H       1  UNL11       0.0627
     37 H           3.9180    4.1403    1.4845 H       1  UNL11       0.3013
     38 H           2.9320    2.5837    0.9929 H       1  UNL11       0.0480
     39 H           2.3647    3.0920   -0.6259 H       1  UNL11       0.0480
     40 H           3.3115    1.1988   -1.7134 H       1  UNL11       0.0479
     41 H           4.5600    1.8978   -0.6456 H       1  UNL11       0.0479
     42 H           6.0927    0.5805   -0.9256 H       1  UNL11       0.0637
     43 H           7.8895   -1.0098   -1.5984 H       1  UNL11       0.0647
     44 H           5.2097   -4.2399   -0.8007 H       1  UNL11       0.0647
     45 H           3.4425   -2.6457   -0.1407 H       1  UNL11       0.0637
     46 H           2.7178   -1.4333    1.0192 H       1  UNL11       0.0479
     47 H           2.7364    0.1725    1.8004 H       1  UNL11       0.0479
     48 H           1.2630   -0.3880   -0.7579 H       1  UNL11       0.0480
     49 H           0.4607   -0.2060    0.9051 H       1  UNL11       0.0480
@<TRIPOS>BOND
     1     1     2    2
     2     2     3    1
     3     2    16   am
     4     3     4    1
     5     3    29    1
     6     3    30    1
     7     4     5    1
     8     4    31    1
     9     4    32    1
    10     5     6    2
    11     6     7    1
    12     7     8   ar
    13     8     9   ar
    14     8    33    1
    15     9    10   ar
    16     9    34    1
    17    10    11   ar
    18    10    35    1
    19    11    12   ar
    20    11    36    1
    21    12    13    1
    22    12     7   ar
    23    13    14    2
    24    13    15   am
    25    15     5    1
    26    15    37    1
    27    16    17    1
    28    17    18    1
    29    17    38    1
    30    17    39    1
    31    18    19    1
    32    18    40    1
    33    18    41    1
    34    19    20    1
    35    19    27    1
    36    20    21   ar
    37    21    22   ar
    38    21    42    1
    39    22    23   ar
    40    22    43    1
    41    23    24    1
    42    23    25   ar
    43    25    26   ar
    44    25    44    1
    45    26    20   ar
    46    26    45    1
    47    27    28    1
    48    27    46    1
    49    27    47    1
    50    28    16    1
    51    28    48    1
    52    28    49    1
@<TRIPOS>MOLECULE
*****
 49 52 0 0 0
SMALL
GASTEIGER

@<TRIPOS>ATOM
      1 O           0.1396    3.5198    0.2072 O.2     1  UNL11      -0.2756
      2 C           0.0847    2.2662    0.2280 C.2     1  UNL11       0.2162
      3 C          -1.2238    1.6093    0.3296 C.3     1  UNL11       0.0351
      4 C          -1.3234    0.2685   -0.3305 C.3     1  UNL11       0.0594
      5 C          -0.3254   -0.6652    0.3205 C.2     1  UNL11       0.2951
      6 N          -0.0064   -0.4648    1.6171 N.2     1  UNL11      -0.0454
      7 C           0.8367   -1.2911    2.2590 C.ar    1  UNL11       0.1903
      8 C           1.1436   -1.0702    3.5782 C.ar    1  UNL11      -0.0100
      9 C           2.0058   -1.9399    4.1988 C.ar    1  UNL11      -0.0576
     10 C           2.5644   -3.0023    3.5628 C.ar    1  UNL11      -0.0607
     11 C           2.2686   -3.2486    2.2175 C.ar    1  UNL11      -0.0432
     12 C           1.3898   -2.3566    1.5973 C.ar    1  UNL11       0.1121
     13 C           1.0694   -2.5678    0.2689 C.2     1  UNL11       0.3368
     14 O           1.5799   -3.5370   -0.3186 O.2     1  UNL11      -0.2416
     15 N           0.2152   -1.7018   -0.3197 N.am    1  UNL11      -0.1702
     16 N           1.2921    1.5197    0.1427 N.am    1  UNL11      -0.2985
     17 C           2.5536    2.1870    0.0345 C.3     1  UNL11       0.0304
     18 C           3.6096    1.3412   -0.6323 C.3     1  UNL11       0.0280
     19 N           3.7114   -0.0038   -0.1132 N.pl3   1  UNL11      -0.3269
     20 C           4.6950   -0.9359   -0.5007 C.ar    1  UNL11       0.0299
     21 C           4.4059   -2.2926   -0.4874 C.ar    1  UNL11      -0.0379
     22 C           5.3475   -3.2176   -0.8772 C.ar    1  UNL11      -0.0247
     23 C           6.6081   -2.7757   -1.2909 C.ar    1  UNL11       0.1235
     24 F           7.4946   -3.7310   -1.6536 F       1  UNL11      -0.2055
     25 C           6.8850   -1.4375   -1.3008 C.ar    1  UNL11      -0.0247
     26 C           5.9197   -0.4810   -0.8991 C.ar    1  UNL11      -0.0379
     27 C           2.6617   -0.3513    0.8563 C.3     1  UNL11       0.0280
     28 C           1.3068    0.0584    0.2433 C.3     1  UNL11       0.0304
     29 H          -1.3730    1.3928    1.4387 H       1  UNL11       0.0364
     30 H          -2.0857    2.2639    0.0803 H       1  UNL11       0.0364
     31 H          -2.3089   -0.2169   -0.2126 H       1  UNL11       0.0392
     32 H          -1.0675    0.3326   -1.3975 H       1  UNL11       0.0392
     33 H           0.6865   -0.2082    4.0847 H       1  UNL11       0.0661
     34 H           2.2144   -1.7198    5.2577 H       1  UNL11       0.0619
     35 H           3.2437   -3.6620    4.0981 H       1  UNL11       0.0618
     36 H           2.7019   -4.0845    1.6936 H       1  UNL11       0.0627
     37 H          -0.0137   -1.8965   -1.3362 H       1  UNL11       0.3013
     38 H           2.9320    2.5837    0.9929 H       1  UNL11       0.0480
     39 H           2.3647    3.0920   -0.6259 H       1  UNL11       0.0480
     40 H           3.3115    1.1988   -1.7134 H       1  UNL11       0.0479
     41 H           4.5600    1.8978   -0.6456 H       1  UNL11       0.0479
     42 H           3.4136   -2.5694   -0.1494 H       1  UNL11       0.0637
     43 H           5.0930   -4.2731   -0.8471 H       1  UNL11       0.0647
     44 H           7.8553   -1.1072   -1.6209 H       1  UNL11       0.0647
     45 H           6.1762    0.5641   -0.9225 H       1  UNL11       0.0637
     46 H           2.7178   -1.4333    1.0192 H       1  UNL11       0.0479
     47 H           2.7364    0.1725    1.8004 H       1  UNL11       0.0479
     48 H           1.2630   -0.3880   -0.7579 H       1  UNL11       0.0480
     49 H           0.4607   -0.2060    0.9051 H       1  UNL11       0.0480
@<TRIPOS>BOND
     1     1     2    2
     2     2     3    1
     3     2    16   am
     4     3     4    1
     5     3    29    1
     6     3    30    1
     7     4     5    1
     8     4    31    1
     9     4    32    1
    10     5     6    2
    11     6     7    1
    12     7     8   ar
    13     8     9   ar
    14     8    33    1
    15     9    10   ar
    16     9    34    1
    17    10    11   ar
    18    10    35    1
    19    11    12   ar
    20    11    36    1
    21    12    13    1
    22    12     7   ar
    23    13    14    2
    24    13    15   am
    25    15     5    1
    26    15    37    1
    27    16    17    1
    28    17    18    1
    29    17    38    1
    30    17    39    1
    31    18    19    1
    32    18    40    1
    33    18    41    1
    34    19    20    1
    35    19    27    1
    36    20    21   ar
    37    21    22   ar
    38    21    42    1
    39    22    23   ar
    40    22    43    1
    41    23    24    1
    42    23    25   ar
    43    25    26   ar
    44    25    44    1
    45    26    20   ar
    46    26    45    1
    47    27    28    1
    48    27    46    1
    49    27    47    1
    50    28    16    1
    51    28    48    1
    52    28    49    1
@<TRIPOS>MOLECULE
*****
 49 52 0 0 0
SMALL
GASTEIGER

@<TRIPOS>ATOM
      1 O          -1.0052    1.6535    0.3355 O.2     1  UNL11      -0.2756
      2 C           0.0847    2.2662    0.2280 C.2     1  UNL11       0.2162
      3 C           0.0807    3.7337    0.2037 C.3     1  UNL11       0.0351
      4 C           1.4247    4.3781    0.0562 C.3     1  UNL11       0.0594
      5 C           2.2972    3.9452    1.2150 C.2     1  UNL11       0.2951
      6 N           2.7887    4.8936    2.0411 N.2     1  UNL11      -0.0454
      7 C           3.5289    4.5632    3.1127 C.ar    1  UNL11       0.1903
      8 C           4.0148    5.5439    3.9407 C.ar    1  UNL11      -0.0100
      9 C           4.7633    5.1645    5.0273 C.ar    1  UNL11      -0.0576
     10 C           5.0413    3.8657    5.3126 C.ar    1  UNL11      -0.0607
     11 C           4.5586    2.8472    4.4834 C.ar    1  UNL11      -0.0432
     12 C           3.7981    3.2462    3.3811 C.ar    1  UNL11       0.1121
     13 C           3.2999    2.2690    2.5392 C.2     1  UNL11       0.3368
     14 O           3.5535    1.0793    2.7942 O.2     1  UNL11      -0.2416
     15 N           2.5619    2.6658    1.4789 N.am    1  UNL11      -0.1702
     16 N           1.2921    1.5197    0.1427 N.am    1  UNL11      -0.2985
     17 C           2.5536    2.1870    0.0345 C.3     1  UNL11       0.0304
     18 C           3.6096    1.3412   -0.6323 C.3     1  UNL11       0.0280
     19 N           3.7114   -0.0038   -0.1132 N.pl3   1  UNL11      -0.3269
     20 C           4.6950   -0.9359   -0.5007 C.ar    1  UNL11       0.0299
     21 C           5.2332   -0.8831   -1.7782 C.ar    1  UNL11      -0.0379
     22 C           6.2058   -1.7742   -2.1705 C.ar    1  UNL11      -0.0247
     23 C           6.6517   -2.7409   -1.2639 C.ar    1  UNL11       0.1235
     24 F           7.6021   -3.5945   -1.7089 F       1  UNL11      -0.2055
     25 C           6.1163   -2.7864   -0.0073 C.ar    1  UNL11      -0.0247
     26 C           5.1136   -1.8723    0.4013 C.ar    1  UNL11      -0.0379
     27 C           2.6617   -0.3513    0.8563 C.3     1  UNL11       0.0280
     28 C           1.3068    0.0584    0.2433 C.3     1  UNL11       0.0304
     29 H          -0.4799    4.0232   -0.7456 H       1  UNL11       0.0364
     30 H          -0.5230    4.2036    1.0088 H       1  UNL11       0.0364
     31 H           1.9684    4.0767   -0.8571 H       1  UNL11       0.0392
     32 H           1.3448    5.4737    0.0951 H       1  UNL11       0.0392
     33 H           3.7844    6.5919    3.7020 H       1  UNL11       0.0661
     34 H           5.1244    5.9899    5.6609 H       1  UNL11       0.0619
     35 H           5.6408    3.6161    6.1851 H       1  UNL11       0.0618
     36 H           4.7687    1.8109    4.6904 H       1  UNL11       0.0627
     37 H           2.1904    1.8912    0.8580 H       1  UNL11       0.3013
     38 H           2.9320    2.5837    0.9929 H       1  UNL11       0.0480
     39 H           2.3647    3.0920   -0.6259 H       1  UNL11       0.0480
     40 H           3.3115    1.1988   -1.7134 H       1  UNL11       0.0479
     41 H           4.5600    1.8978   -0.6456 H       1  UNL11       0.0479
     42 H           4.8392   -0.1151   -2.4344 H       1  UNL11       0.0637
     43 H           6.6006   -1.7121   -3.1805 H       1  UNL11       0.0647
     44 H           6.4654   -3.5315    0.6826 H       1  UNL11       0.0647
     45 H           4.7182   -1.9400    1.4001 H       1  UNL11       0.0637
     46 H           2.7178   -1.4333    1.0192 H       1  UNL11       0.0479
     47 H           2.7364    0.1725    1.8004 H       1  UNL11       0.0479
     48 H           1.2630   -0.3880   -0.7579 H       1  UNL11       0.0480
     49 H           0.4607   -0.2060    0.9051 H       1  UNL11       0.0480
@<TRIPOS>BOND
     1     1     2    2
     2     2     3    1
     3     2    16   am
     4     3     4    1
     5     3    29    1
     6     3    30    1
     7     4     5    1
     8     4    31    1
     9     4    32    1
    10     5     6    2
    11     6     7    1
    12     7     8   ar
    13     8     9   ar
    14     8    33    1
    15     9    10   ar
    16     9    34    1
    17    10    11   ar
    18    10    35    1
    19    11    12   ar
    20    11    36    1
    21    12    13    1
    22    12     7   ar
    23    13    14    2
    24    13    15   am
    25    15     5    1
    26    15    37    1
    27    16    17    1
    28    17    18    1
    29    17    38    1
    30    17    39    1
    31    18    19    1
    32    18    40    1
    33    18    41    1
    34    19    20    1
    35    19    27    1
    36    20    21   ar
    37    21    22   ar
    38    21    42    1
    39    22    23   ar
    40    22    43    1
    41    23    24    1
    42    23    25   ar
    43    25    26   ar
    44    25    44    1
    45    26    20   ar
    46    26    45    1
    47    27    28    1
    48    27    46    1
    49    27    47    1
    50    28    16    1
    51    28    48    1
    52    28    49    1
@<TRIPOS>MOLECULE
*****
 49 52 0 0 0
SMALL
GASTEIGER

@<TRIPOS>ATOM
      1 O           0.1396    3.5198    0.2072 O.2     1  UNL11      -0.2756
      2 C           0.0847    2.2662    0.2280 C.2     1  UNL11       0.2162
      3 C          -1.2238    1.6093    0.3296 C.3     1  UNL11       0.0351
      4 C          -1.8891    1.2957   -0.9752 C.3     1  UNL11       0.0594
      5 C          -2.0873    2.5878   -1.7386 C.2     1  UNL11       0.2951
      6 N          -1.6679    3.7405   -1.1742 N.2     1  UNL11      -0.0454
      7 C          -1.7748    4.9105   -1.8264 C.ar    1  UNL11       0.1903
      8 C          -1.3381    6.0691   -1.2346 C.ar    1  UNL11      -0.0100
      9 C          -1.4614    7.2430   -1.9360 C.ar    1  UNL11      -0.0576
     10 C          -1.9961    7.3027   -3.1834 C.ar    1  UNL11      -0.0607
     11 C          -2.4497    6.1357   -3.8081 C.ar    1  UNL11      -0.0432
     12 C          -2.3186    4.9477   -3.0841 C.ar    1  UNL11       0.1121
     13 C          -2.7521    3.7719   -3.6685 C.2     1  UNL11       0.3368
     14 O          -3.2445    3.8214   -4.8086 O.2     1  UNL11      -0.2416
     15 N          -2.6164    2.6283   -2.9613 N.am    1  UNL11      -0.1702
     16 N           1.2921    1.5197    0.1427 N.am    1  UNL11      -0.2985
     17 C           2.5536    2.1870    0.0345 C.3     1  UNL11       0.0304
     18 C           3.6096    1.3412   -0.6323 C.3     1  UNL11       0.0280
     19 N           3.7114   -0.0038   -0.1132 N.pl3   1  UNL11      -0.3269
     20 C           4.6950   -0.9359   -0.5007 C.ar    1  UNL11       0.0299
     21 C           5.1331   -1.8946    0.4011 C.ar    1  UNL11      -0.0379
     22 C           6.0813   -2.8234    0.0371 C.ar    1  UNL11      -0.0247
     23 C           6.6034   -2.7936   -1.2597 C.ar    1  UNL11       0.1235
     24 F           7.5382   -3.7252   -1.5567 F       1  UNL11      -0.2055
     25 C           6.1667   -1.8458   -2.1421 C.ar    1  UNL11      -0.0247
     26 C           5.1919   -0.8862   -1.7720 C.ar    1  UNL11      -0.0379
     27 C           2.6617   -0.3513    0.8563 C.3     1  UNL11       0.0280
     28 C           1.3068    0.0584    0.2433 C.3     1  UNL11       0.0304
     29 H          -1.0199    0.5903    0.7977 H       1  UNL11       0.0364
     30 H          -1.9208    2.0857    1.0513 H       1  UNL11       0.0364
     31 H          -1.2912    0.6449   -1.6380 H       1  UNL11       0.0392
     32 H          -2.8817    0.8510   -0.8166 H       1  UNL11       0.0392
     33 H          -0.9066    6.0109   -0.2253 H       1  UNL11       0.0661
     34 H          -1.0916    8.1416   -1.4175 H       1  UNL11       0.0619
     35 H          -2.0737    8.2581   -3.6975 H       1  UNL11       0.0618
     36 H          -2.8786    6.1608   -4.7962 H       1  UNL11       0.0627
     37 H          -2.9528    1.7450   -3.4411 H       1  UNL11       0.3013
     38 H           2.9320    2.5837    0.9929 H       1  UNL11       0.0480
     39 H           2.3647    3.0920   -0.6259 H       1  UNL11       0.0480
     40 H           3.3115    1.1988   -1.7134 H       1  UNL11       0.0479
     41 H           4.5600    1.8978   -0.6456 H       1  UNL11       0.0479
     42 H           4.6942   -1.8588    1.3919 H       1  UNL11       0.0637
     43 H           6.4097   -3.5556    0.7691 H       1  UNL11       0.0647
     44 H           6.5725   -1.8309   -3.1361 H       1  UNL11       0.0647
     45 H           4.8730   -0.1568   -2.4965 H       1  UNL11       0.0637
     46 H           2.7178   -1.4333    1.0192 H       1  UNL11       0.0479
     47 H           2.7364    0.1725    1.8004 H       1  UNL11       0.0479
     48 H           1.2630   -0.3880   -0.7579 H       1  UNL11       0.0480
     49 H           0.4607   -0.2060    0.9051 H       1  UNL11       0.0480
@<TRIPOS>BOND
     1     1     2    2
     2     2     3    1
     3     2    16   am
     4     3     4    1
     5     3    29    1
     6     3    30    1
     7     4     5    1
     8     4    31    1
     9     4    32    1
    10     5     6    2
    11     6     7    1
    12     7     8   ar
    13     8     9   ar
    14     8    33    1
    15     9    10   ar
    16     9    34    1
    17    10    11   ar
    18    10    35    1
    19    11    12   ar
    20    11    36    1
    21    12    13    1
    22    12     7   ar
    23    13    14    2
    24    13    15   am
    25    15     5    1
    26    15    37    1
    27    16    17    1
    28    17    18    1
    29    17    38    1
    30    17    39    1
    31    18    19    1
    32    18    40    1
    33    18    41    1
    34    19    20    1
    35    19    27    1
    36    20    21   ar
    37    21    22   ar
    38    21    42    1
    39    22    23   ar
    40    22    43    1
    41    23    24    1
    42    23    25   ar
    43    25    26   ar
    44    25    44    1
    45    26    20   ar
    46    26    45    1
    47    27    28    1
    48    27    46    1
    49    27    47    1
    50    28    16    1
    51    28    48    1
    52    28    49    1
@<TRIPOS>MOLECULE
*****
 49 52 0 0 0
SMALL
GASTEIGER

@<TRIPOS>ATOM
      1 O           0.1396    3.5198    0.2072 O.2     1  UNL11      -0.2756
      2 C           0.0847    2.2662    0.2280 C.2     1  UNL11       0.2162
      3 C          -1.2238    1.6093    0.3296 C.3     1  UNL11       0.0351
      4 C          -1.1910    0.1123    0.3643 C.3     1  UNL11       0.0594
      5 C          -0.3985   -0.3251    1.5776 C.2     1  UNL11       0.2951
      6 N           0.5886    0.4794    2.0268 N.2     1  UNL11      -0.0454
      7 C           1.2923    0.1645    3.1273 C.ar    1  UNL11       0.1903
      8 C           2.2885    0.9993    3.5677 C.ar    1  UNL11      -0.0100
      9 C           2.9813    0.6436    4.6985 C.ar    1  UNL11      -0.0576
     10 C           2.7223   -0.4947    5.3930 C.ar    1  UNL11      -0.0607
     11 C           1.7124   -1.3631    4.9641 C.ar    1  UNL11      -0.0432
     12 C           1.0147   -0.9899    3.8123 C.ar    1  UNL11       0.1121
     13 C           0.0065   -1.8200    3.3579 C.2     1  UNL11       0.3368
     14 O          -0.2327   -2.8642    3.9883 O.2     1  UNL11      -0.2416
     15 N          -0.6648   -1.4472    2.2459 N.am    1  UNL11      -0.1702
     16 N           1.2921    1.5197    0.1427 N.am    1  UNL11      -0.2985
     17 C           2.5536    2.1870    0.0345 C.3     1  UNL11       0.0304
     18 C           3.6096    1.3412   -0.6323 C.3     1  UNL11       0.0280
     19 N           3.7114   -0.0038   -0.1132 N.pl3   1  UNL11      -0.3269
     20 C           4.6950   -0.9359   -0.5007 C.ar    1  UNL11       0.0299
     21 C           5.2332   -0.8831   -1.7782 C.ar    1  UNL11      -0.0379
     22 C           6.2058   -1.7742   -2.1705 C.ar    1  UNL11      -0.0247
     23 C           6.6517   -2.7409   -1.2639 C.ar    1  UNL11       0.1235
     24 F           7.6021   -3.5945   -1.7089 F       1  UNL11      -0.2055
     25 C           6.1163   -2.7864   -0.0073 C.ar    1  UNL11      -0.0247
     26 C           5.1136   -1.8723    0.4013 C.ar    1  UNL11      -0.0379
     27 C           2.6617   -0.3513    0.8563 C.3     1  UNL11       0.0280
     28 C           1.3068    0.0584    0.2433 C.3     1  UNL11       0.0304
     29 H          -1.6392    1.9089    1.3479 H       1  UNL11       0.0364
     30 H          -1.9865    1.9952   -0.3795 H       1  UNL11       0.0364
     31 H          -2.1862   -0.3553    0.4719 H       1  UNL11       0.0392
     32 H          -0.6854   -0.2933   -0.5234 H       1  UNL11       0.0392
     33 H           2.4907    1.9183    2.9994 H       1  UNL11       0.0661
     34 H           3.7662    1.3503    5.0108 H       1  UNL11       0.0619
     35 H           3.3008   -0.7334    6.2827 H       1  UNL11       0.0618
     36 H           1.4918   -2.2720    5.4991 H       1  UNL11       0.0627
     37 H          -1.4350   -2.1028    1.9289 H       1  UNL11       0.3013
     38 H           2.9320    2.5837    0.9929 H       1  UNL11       0.0480
     39 H           2.3647    3.0920   -0.6259 H       1  UNL11       0.0480
     40 H           3.3115    1.1988   -1.7134 H       1  UNL11       0.0479
     41 H           4.5600    1.8978   -0.6456 H       1  UNL11       0.0479
     42 H           4.8392   -0.1151   -2.4344 H       1  UNL11       0.0637
     43 H           6.6006   -1.7121   -3.1805 H       1  UNL11       0.0647
     44 H           6.4654   -3.5315    0.6826 H       1  UNL11       0.0647
     45 H           4.7182   -1.9400    1.4001 H       1  UNL11       0.0637
     46 H           2.7178   -1.4333    1.0192 H       1  UNL11       0.0479
     47 H           2.7364    0.1725    1.8004 H       1  UNL11       0.0479
     48 H           1.2630   -0.3880   -0.7579 H       1  UNL11       0.0480
     49 H           0.4607   -0.2060    0.9051 H       1  UNL11       0.0480
@<TRIPOS>BOND
     1     1     2    2
     2     2     3    1
     3     2    16   am
     4     3     4    1
     5     3    29    1
     6     3    30    1
     7     4     5    1
     8     4    31    1
     9     4    32    1
    10     5     6    2
    11     6     7    1
    12     7     8   ar
    13     8     9   ar
    14     8    33    1
    15     9    10   ar
    16     9    34    1
    17    10    11   ar
    18    10    35    1
    19    11    12   ar
    20    11    36    1
    21    12    13    1
    22    12     7   ar
    23    13    14    2
    24    13    15   am
    25    15     5    1
    26    15    37    1
    27    16    17    1
    28    17    18    1
    29    17    38    1
    30    17    39    1
    31    18    19    1
    32    18    40    1
    33    18    41    1
    34    19    20    1
    35    19    27    1
    36    20    21   ar
    37    21    22   ar
    38    21    42    1
    39    22    23   ar
    40    22    43    1
    41    23    24    1
    42    23    25   ar
    43    25    26   ar
    44    25    44    1
    45    26    20   ar
    46    26    45    1
    47    27    28    1
    48    27    46    1
    49    27    47    1
    50    28    16    1
    51    28    48    1
    52    28    49    1
@<TRIPOS>MOLECULE
*****
 49 52 0 0 0
SMALL
GASTEIGER

@<TRIPOS>ATOM
      1 O          -1.0052    1.6535    0.3355 O.2     1  UNL11      -0.2756
      2 C           0.0847    2.2662    0.2280 C.2     1  UNL11       0.2162
      3 C           0.0807    3.7337    0.2037 C.3     1  UNL11       0.0351
      4 C          -1.2684    4.3751    0.3132 C.3     1  UNL11       0.0594
      5 C          -2.1242    3.8991   -0.8411 C.2     1  UNL11       0.2951
      6 N          -1.5865    3.0349   -1.7284 N.2     1  UNL11      -0.0454
      7 C          -2.3147    2.5426   -2.7447 C.ar    1  UNL11       0.1903
      8 C          -1.7482    1.6624   -3.6323 C.ar    1  UNL11      -0.0100
      9 C          -2.5272    1.1792   -4.6544 C.ar    1  UNL11      -0.0576
     10 C          -3.8271    1.5365   -4.8216 C.ar    1  UNL11      -0.0607
     11 C          -4.4276    2.4333   -3.9310 C.ar    1  UNL11      -0.0432
     12 C          -3.6245    2.9177   -2.8951 C.ar    1  UNL11       0.1121
     13 C          -4.1822    3.8035   -1.9917 C.2     1  UNL11       0.3368
     14 O          -5.3704    4.1358   -2.1417 O.2     1  UNL11      -0.2416
     15 N          -3.3979    4.2621   -0.9913 N.am    1  UNL11      -0.1702
     16 N           1.2921    1.5197    0.1427 N.am    1  UNL11      -0.2985
     17 C           2.5536    2.1870    0.0345 C.3     1  UNL11       0.0304
     18 C           3.6096    1.3412   -0.6323 C.3     1  UNL11       0.0280
     19 N           3.7114   -0.0038   -0.1132 N.pl3   1  UNL11      -0.3269
     20 C           4.6950   -0.9359   -0.5007 C.ar    1  UNL11       0.0299
     21 C           5.1331   -1.8946    0.4011 C.ar    1  UNL11      -0.0379
     22 C           6.0813   -2.8234    0.0371 C.ar    1  UNL11      -0.0247
     23 C           6.6034   -2.7936   -1.2597 C.ar    1  UNL11       0.1235
     24 F           7.5382   -3.7252   -1.5567 F       1  UNL11      -0.2055
     25 C           6.1667   -1.8458   -2.1421 C.ar    1  UNL11      -0.0247
     26 C           5.1919   -0.8862   -1.7720 C.ar    1  UNL11      -0.0379
     27 C           2.6617   -0.3513    0.8563 C.3     1  UNL11       0.0280
     28 C           1.3068    0.0584    0.2433 C.3     1  UNL11       0.0304
     29 H           0.6280    4.0576    1.1496 H       1  UNL11       0.0364
     30 H           0.6919    4.1801   -0.6091 H       1  UNL11       0.0364
     31 H          -1.8218    4.1010    1.2294 H       1  UNL11       0.0392
     32 H          -1.1938    5.4692    0.2391 H       1  UNL11       0.0392
     33 H          -0.6959    1.3788   -3.4888 H       1  UNL11       0.0661
     34 H          -2.0254    0.4732   -5.3348 H       1  UNL11       0.0619
     35 H          -4.4023    1.1272   -5.6490 H       1  UNL11       0.0618
     36 H          -5.4566    2.7313   -4.0463 H       1  UNL11       0.0627
     37 H          -3.8586    4.9342   -0.3134 H       1  UNL11       0.3013
     38 H           2.9320    2.5837    0.9929 H       1  UNL11       0.0480
     39 H           2.3647    3.0920   -0.6259 H       1  UNL11       0.0480
     40 H           3.3115    1.1988   -1.7134 H       1  UNL11       0.0479
     41 H           4.5600    1.8978   -0.6456 H       1  UNL11       0.0479
     42 H           4.6942   -1.8588    1.3919 H       1  UNL11       0.0637
     43 H           6.4097   -3.5556    0.7691 H       1  UNL11       0.0647
     44 H           6.5725   -1.8309   -3.1361 H       1  UNL11       0.0647
     45 H           4.8730   -0.1568   -2.4965 H       1  UNL11       0.0637
     46 H           2.7178   -1.4333    1.0192 H       1  UNL11       0.0479
     47 H           2.7364    0.1725    1.8004 H       1  UNL11       0.0479
     48 H           1.2630   -0.3880   -0.7579 H       1  UNL11       0.0480
     49 H           0.4607   -0.2060    0.9051 H       1  UNL11       0.0480
@<TRIPOS>BOND
     1     1     2    2
     2     2     3    1
     3     2    16   am
     4     3     4    1
     5     3    29    1
     6     3    30    1
     7     4     5    1
     8     4    31    1
     9     4    32    1
    10     5     6    2
    11     6     7    1
    12     7     8   ar
    13     8     9   ar
    14     8    33    1
    15     9    10   ar
    16     9    34    1
    17    10    11   ar
    18    10    35    1
    19    11    12   ar
    20    11    36    1
    21    12    13    1
    22    12     7   ar
    23    13    14    2
    24    13    15   am
    25    15     5    1
    26    15    37    1
    27    16    17    1
    28    17    18    1
    29    17    38    1
    30    17    39    1
    31    18    19    1
    32    18    40    1
    33    18    41    1
    34    19    20    1
    35    19    27    1
    36    20    21   ar
    37    21    22   ar
    38    21    42    1
    39    22    23   ar
    40    22    43    1
    41    23    24    1
    42    23    25   ar
    43    25    26   ar
    44    25    44    1
    45    26    20   ar
    46    26    45    1
    47    27    28    1
    48    27    46    1
    49    27    47    1
    50    28    16    1
    51    28    48    1
    52    28    49    1
@<TRIPOS>MOLECULE
*****
 49 52 0 0 0
SMALL
GASTEIGER

@<TRIPOS>ATOM
      1 O           0.1396    3.5198    0.2072 O.2     1  UNL11      -0.2756
      2 C           0.0847    2.2662    0.2280 C.2     1  UNL11       0.2162
      3 C          -1.2238    1.6093    0.3296 C.3     1  UNL11       0.0351
      4 C          -1.5775    0.7009   -0.8075 C.3     1  UNL11       0.0594
      5 C          -0.5482   -0.4068   -0.8784 C.2     1  UNL11       0.2951
      6 N           0.7469   -0.0722   -1.0626 N.2     1  UNL11      -0.0454
      7 C           1.7085   -1.0105   -1.0854 C.ar    1  UNL11       0.1903
      8 C           3.0188   -0.6466   -1.2703 C.ar    1  UNL11      -0.0100
      9 C           3.9716   -1.6351   -1.2831 C.ar    1  UNL11      -0.0576
     10 C           3.6706   -2.9500   -1.1226 C.ar    1  UNL11      -0.0607
     11 C           2.3422   -3.3469   -0.9337 C.ar    1  UNL11      -0.0432
     12 C           1.3820   -2.3317   -0.9224 C.ar    1  UNL11       0.1121
     13 C           0.0579   -2.6829   -0.7349 C.2     1  UNL11       0.3368
     14 O          -0.2233   -3.8849   -0.5902 O.2     1  UNL11      -0.2416
     15 N          -0.8617   -1.6927   -0.7212 N.am    1  UNL11      -0.1702
     16 N           1.2921    1.5197    0.1427 N.am    1  UNL11      -0.2985
     17 C           2.5536    2.1870    0.0345 C.3     1  UNL11       0.0304
     18 C           3.6096    1.3412   -0.6323 C.3     1  UNL11       0.0280
     19 N           3.7114   -0.0038   -0.1132 N.pl3   1  UNL11      -0.3269
     20 C           4.6950   -0.9359   -0.5007 C.ar    1  UNL11       0.0299
     21 C           4.6958   -2.2096    0.0488 C.ar    1  UNL11      -0.0379
     22 C           5.6382   -3.1391   -0.3281 C.ar    1  UNL11      -0.0247
     23 C           6.6023   -2.7872   -1.2778 C.ar    1  UNL11       0.1235
     24 F           7.5074   -3.7389   -1.6019 F       1  UNL11      -0.2055
     25 C           6.5948   -1.5303   -1.8142 C.ar    1  UNL11      -0.0247
     26 C           5.6278   -0.5690   -1.4285 C.ar    1  UNL11      -0.0379
     27 C           2.6617   -0.3513    0.8563 C.3     1  UNL11       0.0280
     28 C           1.3068    0.0584    0.2433 C.3     1  UNL11       0.0304
     29 H          -1.1511    0.9191    1.2338 H       1  UNL11       0.0364
     30 H          -2.0591    2.2909    0.5966 H       1  UNL11       0.0364
     31 H          -2.5533    0.1961   -0.6909 H       1  UNL11       0.0392
     32 H          -1.5505    1.2377   -1.7663 H       1  UNL11       0.0392
     33 H           3.2528    0.4197   -1.3989 H       1  UNL11       0.0661
     34 H           5.0067   -1.2885   -1.4300 H       1  UNL11       0.0619
     35 H           4.4618   -3.6961   -1.1423 H       1  UNL11       0.0618
     36 H           2.0813   -4.3845   -0.8061 H       1  UNL11       0.0627
     37 H          -1.8659   -1.9962   -0.5689 H       1  UNL11       0.3013
     38 H           2.9320    2.5837    0.9929 H       1  UNL11       0.0480
     39 H           2.3647    3.0920   -0.6259 H       1  UNL11       0.0480
     40 H           3.3115    1.1988   -1.7134 H       1  UNL11       0.0479
     41 H           4.5600    1.8978   -0.6456 H       1  UNL11       0.0479
     42 H           3.9266   -2.4163    0.7845 H       1  UNL11       0.0637
     43 H           5.6171   -4.1250    0.1272 H       1  UNL11       0.0647
     44 H           7.3384   -1.2691   -2.5435 H       1  UNL11       0.0647
     45 H           5.6547    0.4099   -1.8753 H       1  UNL11       0.0637
     46 H           2.7178   -1.4333    1.0192 H       1  UNL11       0.0479
     47 H           2.7364    0.1725    1.8004 H       1  UNL11       0.0479
     48 H           1.2630   -0.3880   -0.7579 H       1  UNL11       0.0480
     49 H           0.4607   -0.2060    0.9051 H       1  UNL11       0.0480
@<TRIPOS>BOND
     1     1     2    2
     2     2     3    1
     3     2    16   am
     4     3     4    1
     5     3    29    1
     6     3    30    1
     7     4     5    1
     8     4    31    1
     9     4    32    1
    10     5     6    2
    11     6     7    1
    12     7     8   ar
    13     8     9   ar
    14     8    33    1
    15     9    10   ar
    16     9    34    1
    17    10    11   ar
    18    10    35    1
    19    11    12   ar
    20    11    36    1
    21    12    13    1
    22    12     7   ar
    23    13    14    2
    24    13    15   am
    25    15     5    1
    26    15    37    1
    27    16    17    1
    28    17    18    1
    29    17    38    1
    30    17    39    1
    31    18    19    1
    32    18    40    1
    33    18    41    1
    34    19    20    1
    35    19    27    1
    36    20    21   ar
    37    21    22   ar
    38    21    42    1
    39    22    23   ar
    40    22    43    1
    41    23    24    1
    42    23    25   ar
    43    25    26   ar
    44    25    44    1
    45    26    20   ar
    46    26    45    1
    47    27    28    1
    48    27    46    1
    49    27    47    1
    50    28    16    1
    51    28    48    1
    52    28    49    1
@<TRIPOS>MOLECULE
*****
 49 52 0 0 0
SMALL
GASTEIGER

@<TRIPOS>ATOM
      1 O           0.1396    3.5198    0.2072 O.2     1  UNL11      -0.2756
      2 C           0.0847    2.2662    0.2280 C.2     1  UNL11       0.2162
      3 C          -1.2238    1.6093    0.3296 C.3     1  UNL11       0.0351
      4 C          -1.5775    0.7009   -0.8075 C.3     1  UNL11       0.0594
      5 C          -0.5482   -0.4068   -0.8784 C.2     1  UNL11       0.2951
      6 N           0.7469   -0.0722   -1.0626 N.2     1  UNL11      -0.0454
      7 C           1.7085   -1.0105   -1.0854 C.ar    1  UNL11       0.1903
      8 C           3.0188   -0.6466   -1.2703 C.ar    1  UNL11      -0.0100
      9 C           3.9716   -1.6351   -1.2831 C.ar    1  UNL11      -0.0576
     10 C           3.6706   -2.9500   -1.1226 C.ar    1  UNL11      -0.0607
     11 C           2.3422   -3.3469   -0.9337 C.ar    1  UNL11      -0.0432
     12 C           1.3820   -2.3317   -0.9224 C.ar    1  UNL11       0.1121
     13 C           0.0579   -2.6829   -0.7349 C.2     1  UNL11       0.3368
     14 O          -0.2233   -3.8849   -0.5902 O.2     1  UNL11      -0.2416
     15 N          -0.8617   -1.6927   -0.7212 N.am    1  UNL11      -0.1702
     16 N           1.2921    1.5197    0.1427 N.am    1  UNL11      -0.2985
     17 C           2.5536    2.1870    0.0345 C.3     1  UNL11       0.0304
     18 C           3.6096    1.3412   -0.6323 C.3     1  UNL11       0.0280
     19 N           3.7114   -0.0038   -0.1132 N.pl3   1  UNL11      -0.3269
     20 C           4.6950   -0.9359   -0.5007 C.ar    1  UNL11       0.0299
     21 C           5.6510   -0.5821   -1.4416 C.ar    1  UNL11      -0.0379
     22 C           6.6292   -1.4725   -1.8215 C.ar    1  UNL11      -0.0247
     23 C           6.6527   -2.7470   -1.2467 C.ar    1  UNL11       0.1235
     24 F           7.6316   -3.5813   -1.6658 F       1  UNL11      -0.2055
     25 C           5.7072   -3.0878   -0.3206 C.ar    1  UNL11      -0.0247
     26 C           4.6970   -2.1754    0.0730 C.ar    1  UNL11      -0.0379
     27 C           2.6617   -0.3513    0.8563 C.3     1  UNL11       0.0280
     28 C           1.3068    0.0584    0.2433 C.3     1  UNL11       0.0304
     29 H          -1.1511    0.9191    1.2338 H       1  UNL11       0.0364
     30 H          -2.0591    2.2909    0.5966 H       1  UNL11       0.0364
     31 H          -2.5533    0.1961   -0.6909 H       1  UNL11       0.0392
     32 H          -1.5505    1.2377   -1.7663 H       1  UNL11       0.0392
     33 H           3.2528    0.4197   -1.3989 H       1  UNL11       0.0661
     34 H           5.0067   -1.2885   -1.4300 H       1  UNL11       0.0619
     35 H           4.4618   -3.6961   -1.1423 H       1  UNL11       0.0618
     36 H           2.0813   -4.3845   -0.8061 H       1  UNL11       0.0627
     37 H          -1.8659   -1.9962   -0.5689 H       1  UNL11       0.3013
     38 H           2.9320    2.5837    0.9929 H       1  UNL11       0.0480
     39 H           2.3647    3.0920   -0.6259 H       1  UNL11       0.0480
     40 H           3.3115    1.1988   -1.7134 H       1  UNL11       0.0479
     41 H           4.5600    1.8978   -0.6456 H       1  UNL11       0.0479
     42 H           5.5727    0.4177   -1.8540 H       1  UNL11       0.0637
     43 H           7.3579   -1.1679   -2.5671 H       1  UNL11       0.0647
     44 H           5.7335   -4.0684    0.1162 H       1  UNL11       0.0647
     45 H           3.9712   -2.4816    0.8065 H       1  UNL11       0.0637
     46 H           2.7178   -1.4333    1.0192 H       1  UNL11       0.0479
     47 H           2.7364    0.1725    1.8004 H       1  UNL11       0.0479
     48 H           1.2630   -0.3880   -0.7579 H       1  UNL11       0.0480
     49 H           0.4607   -0.2060    0.9051 H       1  UNL11       0.0480
@<TRIPOS>BOND
     1     1     2    2
     2     2     3    1
     3     2    16   am
     4     3     4    1
     5     3    29    1
     6     3    30    1
     7     4     5    1
     8     4    31    1
     9     4    32    1
    10     5     6    2
    11     6     7    1
    12     7     8   ar
    13     8     9   ar
    14     8    33    1
    15     9    10   ar
    16     9    34    1
    17    10    11   ar
    18    10    35    1
    19    11    12   ar
    20    11    36    1
    21    12    13    1
    22    12     7   ar
    23    13    14    2
    24    13    15   am
    25    15     5    1
    26    15    37    1
    27    16    17    1
    28    17    18    1
    29    17    38    1
    30    17    39    1
    31    18    19    1
    32    18    40    1
    33    18    41    1
    34    19    20    1
    35    19    27    1
    36    20    21   ar
    37    21    22   ar
    38    21    42    1
    39    22    23   ar
    40    22    43    1
    41    23    24    1
    42    23    25   ar
    43    25    26   ar
    44    25    44    1
    45    26    20   ar
    46    26    45    1
    47    27    28    1
    48    27    46    1
    49    27    47    1
    50    28    16    1
    51    28    48    1
    52    28    49    1
@<TRIPOS>MOLECULE
*****
 49 52 0 0 0
SMALL
GASTEIGER

@<TRIPOS>ATOM
      1 O           0.1396    3.5198    0.2072 O.2     1  UNL11      -0.2756
      2 C           0.0847    2.2662    0.2280 C.2     1  UNL11       0.2162
      3 C          -1.2238    1.6093    0.3296 C.3     1  UNL11       0.0351
      4 C          -1.4119    0.7325    1.5293 C.3     1  UNL11       0.0594
      5 C          -1.2619    1.5799    2.7747 C.2     1  UNL11       0.2951
      6 N          -0.4511    2.6586    2.7262 N.2     1  UNL11      -0.0454
      7 C          -0.3176    3.4732    3.7865 C.ar    1  UNL11       0.1903
      8 C           0.5093    4.5661    3.7131 C.ar    1  UNL11      -0.0100
      9 C           0.6149    5.3758    4.8168 C.ar    1  UNL11      -0.0576
     10 C          -0.0609    5.1388    5.9712 C.ar    1  UNL11      -0.0607
     11 C          -0.9092    4.0306    6.0719 C.ar    1  UNL11      -0.0432
     12 C          -1.0083    3.2145    4.9419 C.ar    1  UNL11       0.1121
     13 C          -1.8393    2.1110    5.0002 C.2     1  UNL11       0.3368
     14 O          -2.4579    1.8881    6.0550 O.2     1  UNL11      -0.2416
     15 N          -1.9311    1.3313    3.9002 N.am    1  UNL11      -0.1702
     16 N           1.2921    1.5197    0.1427 N.am    1  UNL11      -0.2985
     17 C           2.5536    2.1870    0.0345 C.3     1  UNL11       0.0304
     18 C           3.6096    1.3412   -0.6323 C.3     1  UNL11       0.0280
     19 N           3.7114   -0.0038   -0.1132 N.pl3   1  UNL11      -0.3269
     20 C           4.6950   -0.9359   -0.5007 C.ar    1  UNL11       0.0299
     21 C           4.4059   -2.2926   -0.4874 C.ar    1  UNL11      -0.0379
     22 C           5.3475   -3.2176   -0.8772 C.ar    1  UNL11      -0.0247
     23 C           6.6081   -2.7757   -1.2909 C.ar    1  UNL11       0.1235
     24 F           7.4946   -3.7310   -1.6536 F       1  UNL11      -0.2055
     25 C           6.8850   -1.4375   -1.3008 C.ar    1  UNL11      -0.0247
     26 C           5.9197   -0.4810   -0.8991 C.ar    1  UNL11      -0.0379
     27 C           2.6617   -0.3513    0.8563 C.3     1  UNL11       0.0280
     28 C           1.3068    0.0584    0.2433 C.3     1  UNL11       0.0304
     29 H          -1.9794    2.4510    0.4705 H       1  UNL11       0.0364
     30 H          -1.5632    1.1170   -0.6063 H       1  UNL11       0.0364
     31 H          -2.4153    0.2752    1.5972 H       1  UNL11       0.0392
     32 H          -0.6437   -0.0525    1.5703 H       1  UNL11       0.0392
     33 H           1.0517    4.7500    2.7748 H       1  UNL11       0.0661
     34 H           1.2874    6.2406    4.7029 H       1  UNL11       0.0619
     35 H           0.0579    5.8094    6.8193 H       1  UNL11       0.0618
     36 H          -1.4532    3.8232    6.9785 H       1  UNL11       0.0627
     37 H          -2.5814    0.4978    3.9770 H       1  UNL11       0.3013
     38 H           2.9320    2.5837    0.9929 H       1  UNL11       0.0480
     39 H           2.3647    3.0920   -0.6259 H       1  UNL11       0.0480
     40 H           3.3115    1.1988   -1.7134 H       1  UNL11       0.0479
     41 H           4.5600    1.8978   -0.6456 H       1  UNL11       0.0479
     42 H           3.4136   -2.5694   -0.1494 H       1  UNL11       0.0637
     43 H           5.0930   -4.2731   -0.8471 H       1  UNL11       0.0647
     44 H           7.8553   -1.1072   -1.6209 H       1  UNL11       0.0647
     45 H           6.1762    0.5641   -0.9225 H       1  UNL11       0.0637
     46 H           2.7178   -1.4333    1.0192 H       1  UNL11       0.0479
     47 H           2.7364    0.1725    1.8004 H       1  UNL11       0.0479
     48 H           1.2630   -0.3880   -0.7579 H       1  UNL11       0.0480
     49 H           0.4607   -0.2060    0.9051 H       1  UNL11       0.0480
@<TRIPOS>BOND
     1     1     2    2
     2     2     3    1
     3     2    16   am
     4     3     4    1
     5     3    29    1
     6     3    30    1
     7     4     5    1
     8     4    31    1
     9     4    32    1
    10     5     6    2
    11     6     7    1
    12     7     8   ar
    13     8     9   ar
    14     8    33    1
    15     9    10   ar
    16     9    34    1
    17    10    11   ar
    18    10    35    1
    19    11    12   ar
    20    11    36    1
    21    12    13    1
    22    12     7   ar
    23    13    14    2
    24    13    15   am
    25    15     5    1
    26    15    37    1
    27    16    17    1
    28    17    18    1
    29    17    38    1
    30    17    39    1
    31    18    19    1
    32    18    40    1
    33    18    41    1
    34    19    20    1
    35    19    27    1
    36    20    21   ar
    37    21    22   ar
    38    21    42    1
    39    22    23   ar
    40    22    43    1
    41    23    24    1
    42    23    25   ar
    43    25    26   ar
    44    25    44    1
    45    26    20   ar
    46    26    45    1
    47    27    28    1
    48    27    46    1
    49    27    47    1
    50    28    16    1
    51    28    48    1
    52    28    49    1
@<TRIPOS>MOLECULE
*****
 49 52 0 0 0
SMALL
GASTEIGER

@<TRIPOS>ATOM
      1 O           0.1396    3.5198    0.2072 O.2     1  UNL11      -0.2756
      2 C           0.0847    2.2662    0.2280 C.2     1  UNL11       0.2162
      3 C          -1.2238    1.6093    0.3296 C.3     1  UNL11       0.0351
      4 C          -1.8891    1.2957   -0.9752 C.3     1  UNL11       0.0594
      5 C          -2.0873    2.5878   -1.7386 C.2     1  UNL11       0.2951
      6 N          -2.0693    2.5481   -3.0881 N.2     1  UNL11      -0.0454
      7 C          -2.2874    3.6558   -3.8169 C.ar    1  UNL11       0.1903
      8 C          -2.2682    3.5909   -5.1876 C.ar    1  UNL11      -0.0100
      9 C          -2.4998    4.7441   -5.8957 C.ar    1  UNL11      -0.0576
     10 C          -2.7441    5.9389   -5.2973 C.ar    1  UNL11      -0.0607
     11 C          -2.7679    6.0318   -3.9013 C.ar    1  UNL11      -0.0432
     12 C          -2.5310    4.8513   -3.1921 C.ar    1  UNL11       0.1121
     13 C          -2.5495    4.9007   -1.8105 C.2     1  UNL11       0.3368
     14 O          -2.7700    5.9921   -1.2579 O.2     1  UNL11      -0.2416
     15 N          -2.3236    3.7524   -1.1348 N.am    1  UNL11      -0.1702
     16 N           1.2921    1.5197    0.1427 N.am    1  UNL11      -0.2985
     17 C           2.5536    2.1870    0.0345 C.3     1  UNL11       0.0304
     18 C           3.6096    1.3412   -0.6323 C.3     1  UNL11       0.0280
     19 N           3.7114   -0.0038   -0.1132 N.pl3   1  UNL11      -0.3269
     20 C           4.6950   -0.9359   -0.5007 C.ar    1  UNL11       0.0299
     21 C           5.1331   -1.8946    0.4011 C.ar    1  UNL11      -0.0379
     22 C           6.0813   -2.8234    0.0371 C.ar    1  UNL11      -0.0247
     23 C           6.6034   -2.7936   -1.2597 C.ar    1  UNL11       0.1235
     24 F           7.5382   -3.7252   -1.5567 F       1  UNL11      -0.2055
     25 C           6.1667   -1.8458   -2.1421 C.ar    1  UNL11      -0.0247
     26 C           5.1919   -0.8862   -1.7720 C.ar    1  UNL11      -0.0379
     27 C           2.6617   -0.3513    0.8563 C.3     1  UNL11       0.0280
     28 C           1.3068    0.0584    0.2433 C.3     1  UNL11       0.0304
     29 H          -1.0199    0.5903    0.7977 H       1  UNL11       0.0364
     30 H          -1.9208    2.0857    1.0513 H       1  UNL11       0.0364
     31 H          -1.2912    0.6449   -1.6380 H       1  UNL11       0.0392
     32 H          -2.8817    0.8510   -0.8166 H       1  UNL11       0.0392
     33 H          -2.0700    2.6197   -5.6629 H       1  UNL11       0.0661
     34 H          -2.4777    4.6356   -6.9915 H       1  UNL11       0.0619
     35 H          -2.9200    6.8253   -5.9026 H       1  UNL11       0.0618
     36 H          -2.9581    6.9698   -3.4064 H       1  UNL11       0.0627
     37 H          -2.3512    3.8246   -0.0776 H       1  UNL11       0.3013
     38 H           2.9320    2.5837    0.9929 H       1  UNL11       0.0480
     39 H           2.3647    3.0920   -0.6259 H       1  UNL11       0.0480
     40 H           3.3115    1.1988   -1.7134 H       1  UNL11       0.0479
     41 H           4.5600    1.8978   -0.6456 H       1  UNL11       0.0479
     42 H           4.6942   -1.8588    1.3919 H       1  UNL11       0.0637
     43 H           6.4097   -3.5556    0.7691 H       1  UNL11       0.0647
     44 H           6.5725   -1.8309   -3.1361 H       1  UNL11       0.0647
     45 H           4.8730   -0.1568   -2.4965 H       1  UNL11       0.0637
     46 H           2.7178   -1.4333    1.0192 H       1  UNL11       0.0479
     47 H           2.7364    0.1725    1.8004 H       1  UNL11       0.0479
     48 H           1.2630   -0.3880   -0.7579 H       1  UNL11       0.0480
     49 H           0.4607   -0.2060    0.9051 H       1  UNL11       0.0480
@<TRIPOS>BOND
     1     1     2    2
     2     2     3    1
     3     2    16   am
     4     3     4    1
     5     3    29    1
     6     3    30    1
     7     4     5    1
     8     4    31    1
     9     4    32    1
    10     5     6    2
    11     6     7    1
    12     7     8   ar
    13     8     9   ar
    14     8    33    1
    15     9    10   ar
    16     9    34    1
    17    10    11   ar
    18    10    35    1
    19    11    12   ar
    20    11    36    1
    21    12    13    1
    22    12     7   ar
    23    13    14    2
    24    13    15   am
    25    15     5    1
    26    15    37    1
    27    16    17    1
    28    17    18    1
    29    17    38    1
    30    17    39    1
    31    18    19    1
    32    18    40    1
    33    18    41    1
    34    19    20    1
    35    19    27    1
    36    20    21   ar
    37    21    22   ar
    38    21    42    1
    39    22    23   ar
    40    22    43    1
    41    23    24    1
    42    23    25   ar
    43    25    26   ar
    44    25    44    1
    45    26    20   ar
    46    26    45    1
    47    27    28    1
    48    27    46    1
    49    27    47    1
    50    28    16    1
    51    28    48    1
    52    28    49    1
@<TRIPOS>MOLECULE
*****
 49 52 0 0 0
SMALL
GASTEIGER

@<TRIPOS>ATOM
      1 O          -1.0052    1.6535    0.3355 O.2     1  UNL11      -0.2756
      2 C           0.0847    2.2662    0.2280 C.2     1  UNL11       0.2162
      3 C           0.0807    3.7337    0.2037 C.3     1  UNL11       0.0351
      4 C           1.4247    4.3781    0.0562 C.3     1  UNL11       0.0594
      5 C           1.2430    5.8809    0.0672 C.2     1  UNL11       0.2951
      6 N           1.2992    6.5282    1.2509 N.2     1  UNL11      -0.0454
      7 C           1.1925    7.8661    1.3148 C.ar    1  UNL11       0.1903
      8 C           1.2563    8.5030    2.5288 C.ar    1  UNL11      -0.0100
      9 C           1.1472    9.8714    2.5507 C.ar    1  UNL11      -0.0576
     10 C           0.9785   10.6147    1.4263 C.ar    1  UNL11      -0.0607
     11 C           0.9091    9.9893    0.1765 C.ar    1  UNL11      -0.0432
     12 C           1.0215    8.5964    0.1675 C.ar    1  UNL11       0.1121
     13 C           0.9614    7.9411   -1.0485 C.2     1  UNL11       0.3368
     14 O           0.8044    8.6163   -2.0803 O.2     1  UNL11      -0.2416
     15 N           1.0758    6.5945   -1.0461 N.am    1  UNL11      -0.1702
     16 N           1.2921    1.5197    0.1427 N.am    1  UNL11      -0.2985
     17 C           2.5536    2.1870    0.0345 C.3     1  UNL11       0.0304
     18 C           3.6096    1.3412   -0.6323 C.3     1  UNL11       0.0280
     19 N           3.7114   -0.0038   -0.1132 N.pl3   1  UNL11      -0.3269
     20 C           4.6950   -0.9359   -0.5007 C.ar    1  UNL11       0.0299
     21 C           5.1331   -1.8946    0.4011 C.ar    1  UNL11      -0.0379
     22 C           6.0813   -2.8234    0.0371 C.ar    1  UNL11      -0.0247
     23 C           6.6034   -2.7936   -1.2597 C.ar    1  UNL11       0.1235
     24 F           7.5382   -3.7252   -1.5567 F       1  UNL11      -0.2055
     25 C           6.1667   -1.8458   -2.1421 C.ar    1  UNL11      -0.0247
     26 C           5.1919   -0.8862   -1.7720 C.ar    1  UNL11      -0.0379
     27 C           2.6617   -0.3513    0.8563 C.3     1  UNL11       0.0280
     28 C           1.3068    0.0584    0.2433 C.3     1  UNL11       0.0304
     29 H          -0.4799    4.0232   -0.7456 H       1  UNL11       0.0364
     30 H          -0.5230    4.2036    1.0088 H       1  UNL11       0.0364
     31 H           2.1220    4.1546    0.8836 H       1  UNL11       0.0392
     32 H           1.8896    4.1093   -0.9027 H       1  UNL11       0.0392
     33 H           1.3934    7.8933    3.4331 H       1  UNL11       0.0661
     34 H           1.2097   10.3322    3.5492 H       1  UNL11       0.0619
     35 H           0.8954   11.6970    1.4962 H       1  UNL11       0.0618
     36 H           0.7738   10.5596   -0.7276 H       1  UNL11       0.0627
     37 H           1.0318    6.1248   -1.9953 H       1  UNL11       0.3013
     38 H           2.9320    2.5837    0.9929 H       1  UNL11       0.0480
     39 H           2.3647    3.0920   -0.6259 H       1  UNL11       0.0480
     40 H           3.3115    1.1988   -1.7134 H       1  UNL11       0.0479
     41 H           4.5600    1.8978   -0.6456 H       1  UNL11       0.0479
     42 H           4.6942   -1.8588    1.3919 H       1  UNL11       0.0637
     43 H           6.4097   -3.5556    0.7691 H       1  UNL11       0.0647
     44 H           6.5725   -1.8309   -3.1361 H       1  UNL11       0.0647
     45 H           4.8730   -0.1568   -2.4965 H       1  UNL11       0.0637
     46 H           2.7178   -1.4333    1.0192 H       1  UNL11       0.0479
     47 H           2.7364    0.1725    1.8004 H       1  UNL11       0.0479
     48 H           1.2630   -0.3880   -0.7579 H       1  UNL11       0.0480
     49 H           0.4607   -0.2060    0.9051 H       1  UNL11       0.0480
@<TRIPOS>BOND
     1     1     2    2
     2     2     3    1
     3     2    16   am
     4     3     4    1
     5     3    29    1
     6     3    30    1
     7     4     5    1
     8     4    31    1
     9     4    32    1
    10     5     6    2
    11     6     7    1
    12     7     8   ar
    13     8     9   ar
    14     8    33    1
    15     9    10   ar
    16     9    34    1
    17    10    11   ar
    18    10    35    1
    19    11    12   ar
    20    11    36    1
    21    12    13    1
    22    12     7   ar
    23    13    14    2
    24    13    15   am
    25    15     5    1
    26    15    37    1
    27    16    17    1
    28    17    18    1
    29    17    38    1
    30    17    39    1
    31    18    19    1
    32    18    40    1
    33    18    41    1
    34    19    20    1
    35    19    27    1
    36    20    21   ar
    37    21    22   ar
    38    21    42    1
    39    22    23   ar
    40    22    43    1
    41    23    24    1
    42    23    25   ar
    43    25    26   ar
    44    25    44    1
    45    26    20   ar
    46    26    45    1
    47    27    28    1
    48    27    46    1
    49    27    47    1
    50    28    16    1
    51    28    48    1
    52    28    49    1
@<TRIPOS>MOLECULE
*****
 49 52 0 0 0
SMALL
GASTEIGER

@<TRIPOS>ATOM
      1 O          -1.0052    1.6535    0.3355 O.2     1  UNL11      -0.2756
      2 C           0.0847    2.2662    0.2280 C.2     1  UNL11       0.2162
      3 C           0.0807    3.7337    0.2037 C.3     1  UNL11       0.0351
      4 C          -1.0326    4.3865    0.9639 C.3     1  UNL11       0.0594
      5 C          -0.8986    5.8876    0.8217 C.2     1  UNL11       0.2951
      6 N          -0.1662    6.5587    1.7364 N.2     1  UNL11      -0.0454
      7 C           0.0261    7.8845    1.6326 C.ar    1  UNL11       0.1903
      8 C           0.7775    8.5451    2.5720 C.ar    1  UNL11      -0.0100
      9 C           0.9536    9.8990    2.4278 C.ar    1  UNL11      -0.0576
     10 C           0.4161   10.6060    1.3998 C.ar    1  UNL11      -0.0607
     11 C          -0.3549    9.9561    0.4297 C.ar    1  UNL11      -0.0432
     12 C          -0.5265    8.5783    0.5876 C.ar    1  UNL11       0.1121
     13 C          -1.2792    7.8988   -0.3524 C.2     1  UNL11       0.3368
     14 O          -1.7755    8.5414   -1.2935 O.2     1  UNL11      -0.2416
     15 N          -1.4351    6.5660   -0.1925 N.am    1  UNL11      -0.1702
     16 N           1.2921    1.5197    0.1427 N.am    1  UNL11      -0.2985
     17 C           2.5536    2.1870    0.0345 C.3     1  UNL11       0.0304
     18 C           3.6096    1.3412   -0.6323 C.3     1  UNL11       0.0280
     19 N           3.7114   -0.0038   -0.1132 N.pl3   1  UNL11      -0.3269
     20 C           4.6950   -0.9359   -0.5007 C.ar    1  UNL11       0.0299
     21 C           4.4059   -2.2926   -0.4874 C.ar    1  UNL11      -0.0379
     22 C           5.3475   -3.2176   -0.8772 C.ar    1  UNL11      -0.0247
     23 C           6.6081   -2.7757   -1.2909 C.ar    1  UNL11       0.1235
     24 F           7.4946   -3.7310   -1.6536 F       1  UNL11      -0.2055
     25 C           6.8850   -1.4375   -1.3008 C.ar    1  UNL11      -0.0247
     26 C           5.9197   -0.4810   -0.8991 C.ar    1  UNL11      -0.0379
     27 C           2.6617   -0.3513    0.8563 C.3     1  UNL11       0.0280
     28 C           1.3068    0.0584    0.2433 C.3     1  UNL11       0.0304
     29 H           1.0267    4.0521    0.7540 H       1  UNL11       0.0364
     30 H           0.2134    4.1755   -0.8066 H       1  UNL11       0.0364
     31 H          -2.0400    4.1384    0.5844 H       1  UNL11       0.0392
     32 H          -0.9720    4.1502    2.0356 H       1  UNL11       0.0392
     33 H           1.2086    7.9646    3.4000 H       1  UNL11       0.0661
     34 H           1.5682   10.3788    3.2058 H       1  UNL11       0.0619
     35 H           0.5831   11.6786    1.3305 H       1  UNL11       0.0618
     36 H          -0.7917   10.4980   -0.3928 H       1  UNL11       0.0627
     37 H          -2.0122    6.0755   -0.9340 H       1  UNL11       0.3013
     38 H           2.9320    2.5837    0.9929 H       1  UNL11       0.0480
     39 H           2.3647    3.0920   -0.6259 H       1  UNL11       0.0480
     40 H           3.3115    1.1988   -1.7134 H       1  UNL11       0.0479
     41 H           4.5600    1.8978   -0.6456 H       1  UNL11       0.0479
     42 H           3.4136   -2.5694   -0.1494 H       1  UNL11       0.0637
     43 H           5.0930   -4.2731   -0.8471 H       1  UNL11       0.0647
     44 H           7.8553   -1.1072   -1.6209 H       1  UNL11       0.0647
     45 H           6.1762    0.5641   -0.9225 H       1  UNL11       0.0637
     46 H           2.7178   -1.4333    1.0192 H       1  UNL11       0.0479
     47 H           2.7364    0.1725    1.8004 H       1  UNL11       0.0479
     48 H           1.2630   -0.3880   -0.7579 H       1  UNL11       0.0480
     49 H           0.4607   -0.2060    0.9051 H       1  UNL11       0.0480
@<TRIPOS>BOND
     1     1     2    2
     2     2     3    1
     3     2    16   am
     4     3     4    1
     5     3    29    1
     6     3    30    1
     7     4     5    1
     8     4    31    1
     9     4    32    1
    10     5     6    2
    11     6     7    1
    12     7     8   ar
    13     8     9   ar
    14     8    33    1
    15     9    10   ar
    16     9    34    1
    17    10    11   ar
    18    10    35    1
    19    11    12   ar
    20    11    36    1
    21    12    13    1
    22    12     7   ar
    23    13    14    2
    24    13    15   am
    25    15     5    1
    26    15    37    1
    27    16    17    1
    28    17    18    1
    29    17    38    1
    30    17    39    1
    31    18    19    1
    32    18    40    1
    33    18    41    1
    34    19    20    1
    35    19    27    1
    36    20    21   ar
    37    21    22   ar
    38    21    42    1
    39    22    23   ar
    40    22    43    1
    41    23    24    1
    42    23    25   ar
    43    25    26   ar
    44    25    44    1
    45    26    20   ar
    46    26    45    1
    47    27    28    1
    48    27    46    1
    49    27    47    1
    50    28    16    1
    51    28    48    1
    52    28    49    1
@<TRIPOS>MOLECULE
*****
 49 52 0 0 0
SMALL
GASTEIGER

@<TRIPOS>ATOM
      1 O          -1.0052    1.6535    0.3355 O.2     1  UNL11      -0.2756
      2 C           0.0847    2.2662    0.2280 C.2     1  UNL11       0.2162
      3 C           0.0807    3.7337    0.2037 C.3     1  UNL11       0.0351
      4 C           0.2074    4.3994    1.5394 C.3     1  UNL11       0.0594
      5 C          -0.9482    3.9562    2.4111 C.2     1  UNL11       0.2951
      6 N          -1.8506    3.0942    1.8954 N.2     1  UNL11      -0.0454
      7 C          -2.8691    2.6303    2.6390 C.ar    1  UNL11       0.1903
      8 C          -3.7722    1.7517    2.0950 C.ar    1  UNL11      -0.0100
      9 C          -4.7961    1.2980    2.8892 C.ar    1  UNL11      -0.0576
     10 C          -4.9503    1.6826    4.1828 C.ar    1  UNL11      -0.0607
     11 C          -4.0437    2.5783    4.7606 C.ar    1  UNL11      -0.0432
     12 C          -3.0062    3.0326    3.9422 C.ar    1  UNL11       0.1121
     13 C          -2.0873    3.9163    4.4773 C.2     1  UNL11       0.3368
     14 O          -2.2254    4.2736    5.6597 O.2     1  UNL11      -0.2416
     15 N          -1.0855    4.3457    3.6783 N.am    1  UNL11      -0.1702
     16 N           1.2921    1.5197    0.1427 N.am    1  UNL11      -0.2985
     17 C           2.5536    2.1870    0.0345 C.3     1  UNL11       0.0304
     18 C           3.6096    1.3412   -0.6323 C.3     1  UNL11       0.0280
     19 N           3.7114   -0.0038   -0.1132 N.pl3   1  UNL11      -0.3269
     20 C           4.6950   -0.9359   -0.5007 C.ar    1  UNL11       0.0299
     21 C           5.1331   -1.8946    0.4011 C.ar    1  UNL11      -0.0379
     22 C           6.0813   -2.8234    0.0371 C.ar    1  UNL11      -0.0247
     23 C           6.6034   -2.7936   -1.2597 C.ar    1  UNL11       0.1235
     24 F           7.5382   -3.7252   -1.5567 F       1  UNL11      -0.2055
     25 C           6.1667   -1.8458   -2.1421 C.ar    1  UNL11      -0.0247
     26 C           5.1919   -0.8862   -1.7720 C.ar    1  UNL11      -0.0379
     27 C           2.6617   -0.3513    0.8563 C.3     1  UNL11       0.0280
     28 C           1.3068    0.0584    0.2433 C.3     1  UNL11       0.0304
     29 H           1.0276    4.0337   -0.3553 H       1  UNL11       0.0364
     30 H          -0.7296    4.1795   -0.4113 H       1  UNL11       0.0364
     31 H           1.1230    4.1233    2.0926 H       1  UNL11       0.0392
     32 H           0.1479    5.4928    1.4441 H       1  UNL11       0.0392
     33 H          -3.6391    1.4459    1.0475 H       1  UNL11       0.0661
     34 H          -5.4892    0.5920    2.4051 H       1  UNL11       0.0619
     35 H          -5.7798    1.2961    4.7708 H       1  UNL11       0.0618
     36 H          -4.1485    2.8977    5.7843 H       1  UNL11       0.0627
     37 H          -0.3955    5.0171    4.1219 H       1  UNL11       0.3013
     38 H           2.9320    2.5837    0.9929 H       1  UNL11       0.0480
     39 H           2.3647    3.0920   -0.6259 H       1  UNL11       0.0480
     40 H           3.3115    1.1988   -1.7134 H       1  UNL11       0.0479
     41 H           4.5600    1.8978   -0.6456 H       1  UNL11       0.0479
     42 H           4.6942   -1.8588    1.3919 H       1  UNL11       0.0637
     43 H           6.4097   -3.5556    0.7691 H       1  UNL11       0.0647
     44 H           6.5725   -1.8309   -3.1361 H       1  UNL11       0.0647
     45 H           4.8730   -0.1568   -2.4965 H       1  UNL11       0.0637
     46 H           2.7178   -1.4333    1.0192 H       1  UNL11       0.0479
     47 H           2.7364    0.1725    1.8004 H       1  UNL11       0.0479
     48 H           1.2630   -0.3880   -0.7579 H       1  UNL11       0.0480
     49 H           0.4607   -0.2060    0.9051 H       1  UNL11       0.0480
@<TRIPOS>BOND
     1     1     2    2
     2     2     3    1
     3     2    16   am
     4     3     4    1
     5     3    29    1
     6     3    30    1
     7     4     5    1
     8     4    31    1
     9     4    32    1
    10     5     6    2
    11     6     7    1
    12     7     8   ar
    13     8     9   ar
    14     8    33    1
    15     9    10   ar
    16     9    34    1
    17    10    11   ar
    18    10    35    1
    19    11    12   ar
    20    11    36    1
    21    12    13    1
    22    12     7   ar
    23    13    14    2
    24    13    15   am
    25    15     5    1
    26    15    37    1
    27    16    17    1
    28    17    18    1
    29    17    38    1
    30    17    39    1
    31    18    19    1
    32    18    40    1
    33    18    41    1
    34    19    20    1
    35    19    27    1
    36    20    21   ar
    37    21    22   ar
    38    21    42    1
    39    22    23   ar
    40    22    43    1
    41    23    24    1
    42    23    25   ar
    43    25    26   ar
    44    25    44    1
    45    26    20   ar
    46    26    45    1
    47    27    28    1
    48    27    46    1
    49    27    47    1
    50    28    16    1
    51    28    48    1
    52    28    49    1
@<TRIPOS>MOLECULE
*****
 49 52 0 0 0
SMALL
GASTEIGER

@<TRIPOS>ATOM
      1 O           0.1396    3.5198    0.2072 O.2     1  UNL11      -0.2756
      2 C           0.0847    2.2662    0.2280 C.2     1  UNL11       0.2162
      3 C          -1.2238    1.6093    0.3296 C.3     1  UNL11       0.0351
      4 C          -2.1767    1.8973   -0.7895 C.3     1  UNL11       0.0594
      5 C          -3.4724    1.1618   -0.5214 C.2     1  UNL11       0.2951
      6 N          -3.5690    0.4141    0.5988 N.2     1  UNL11      -0.0454
      7 C          -4.7109   -0.2214    0.9113 C.ar    1  UNL11       0.1903
      8 C          -4.7873   -0.9727    2.0572 C.ar    1  UNL11      -0.0100
      9 C          -5.9732   -1.6029    2.3427 C.ar    1  UNL11      -0.0576
     10 C          -7.0660   -1.5139    1.5407 C.ar    1  UNL11      -0.0607
     11 C          -7.0135   -0.7551    0.3662 C.ar    1  UNL11      -0.0432
     12 C          -5.8012   -0.1186    0.0869 C.ar    1  UNL11       0.1121
     13 C          -5.7100    0.6438   -1.0629 C.2     1  UNL11       0.3368
     14 O          -6.7061    0.7264   -1.8017 O.2     1  UNL11      -0.2416
     15 N          -4.5344    1.2586   -1.3209 N.am    1  UNL11      -0.1702
     16 N           1.2921    1.5197    0.1427 N.am    1  UNL11      -0.2985
     17 C           2.5536    2.1870    0.0345 C.3     1  UNL11       0.0304
     18 C           3.6096    1.3412   -0.6323 C.3     1  UNL11       0.0280
     19 N           3.7114   -0.0038   -0.1132 N.pl3   1  UNL11      -0.3269
     20 C           4.6950   -0.9359   -0.5007 C.ar    1  UNL11       0.0299
     21 C           5.1331   -1.8946    0.4011 C.ar    1  UNL11      -0.0379
     22 C           6.0813   -2.8234    0.0371 C.ar    1  UNL11      -0.0247
     23 C           6.6034   -2.7936   -1.2597 C.ar    1  UNL11       0.1235
     24 F           7.5382   -3.7252   -1.5567 F       1  UNL11      -0.2055
     25 C           6.1667   -1.8458   -2.1421 C.ar    1  UNL11      -0.0247
     26 C           5.1919   -0.8862   -1.7720 C.ar    1  UNL11      -0.0379
     27 C           2.6617   -0.3513    0.8563 C.3     1  UNL11       0.0280
     28 C           1.3068    0.0584    0.2433 C.3     1  UNL11       0.0304
     29 H          -1.0137    0.4923    0.2447 H       1  UNL11       0.0364
     30 H          -1.7069    1.7021    1.3254 H       1  UNL11       0.0364
     31 H          -2.4510    2.9636   -0.8812 H       1  UNL11       0.0392
     32 H          -1.7829    1.5325   -1.7486 H       1  UNL11       0.0392
     33 H          -3.8980   -1.0386    2.7001 H       1  UNL11       0.0661
     34 H          -5.9819   -2.1884    3.2757 H       1  UNL11       0.0619
     35 H          -7.9828   -2.0337    1.8098 H       1  UNL11       0.0618
     36 H          -7.8679   -0.6725   -0.2849 H       1  UNL11       0.0627
     37 H          -4.5010    1.8397   -2.2068 H       1  UNL11       0.3013
     38 H           2.9320    2.5837    0.9929 H       1  UNL11       0.0480
     39 H           2.3647    3.0920   -0.6259 H       1  UNL11       0.0480
     40 H           3.3115    1.1988   -1.7134 H       1  UNL11       0.0479
     41 H           4.5600    1.8978   -0.6456 H       1  UNL11       0.0479
     42 H           4.6942   -1.8588    1.3919 H       1  UNL11       0.0637
     43 H           6.4097   -3.5556    0.7691 H       1  UNL11       0.0647
     44 H           6.5725   -1.8309   -3.1361 H       1  UNL11       0.0647
     45 H           4.8730   -0.1568   -2.4965 H       1  UNL11       0.0637
     46 H           2.7178   -1.4333    1.0192 H       1  UNL11       0.0479
     47 H           2.7364    0.1725    1.8004 H       1  UNL11       0.0479
     48 H           1.2630   -0.3880   -0.7579 H       1  UNL11       0.0480
     49 H           0.4607   -0.2060    0.9051 H       1  UNL11       0.0480
@<TRIPOS>BOND
     1     1     2    2
     2     2     3    1
     3     2    16   am
     4     3     4    1
     5     3    29    1
     6     3    30    1
     7     4     5    1
     8     4    31    1
     9     4    32    1
    10     5     6    2
    11     6     7    1
    12     7     8   ar
    13     8     9   ar
    14     8    33    1
    15     9    10   ar
    16     9    34    1
    17    10    11   ar
    18    10    35    1
    19    11    12   ar
    20    11    36    1
    21    12    13    1
    22    12     7   ar
    23    13    14    2
    24    13    15   am
    25    15     5    1
    26    15    37    1
    27    16    17    1
    28    17    18    1
    29    17    38    1
    30    17    39    1
    31    18    19    1
    32    18    40    1
    33    18    41    1
    34    19    20    1
    35    19    27    1
    36    20    21   ar
    37    21    22   ar
    38    21    42    1
    39    22    23   ar
    40    22    43    1
    41    23    24    1
    42    23    25   ar
    43    25    26   ar
    44    25    44    1
    45    26    20   ar
    46    26    45    1
    47    27    28    1
    48    27    46    1
    49    27    47    1
    50    28    16    1
    51    28    48    1
    52    28    49    1
@<TRIPOS>MOLECULE
*****
 49 52 0 0 0
SMALL
GASTEIGER

@<TRIPOS>ATOM
      1 O           0.1396    3.5198    0.2072 O.2     1  UNL11      -0.2756
      2 C           0.0847    2.2662    0.2280 C.2     1  UNL11       0.2162
      3 C          -1.2238    1.6093    0.3296 C.3     1  UNL11       0.0351
      4 C          -1.3234    0.2685   -0.3305 C.3     1  UNL11       0.0594
      5 C          -0.3254   -0.6652    0.3205 C.2     1  UNL11       0.2951
      6 N          -0.2368   -1.9331   -0.1355 N.2     1  UNL11      -0.0454
      7 C           0.6642   -2.7908    0.3726 C.ar    1  UNL11       0.1903
      8 C           0.7388   -4.0737   -0.1091 C.ar    1  UNL11      -0.0100
      9 C           1.6758   -4.9177    0.4338 C.ar    1  UNL11      -0.0576
     10 C           2.5250   -4.5362    1.4230 C.ar    1  UNL11      -0.0607
     11 C           2.4683   -3.2341    1.9321 C.ar    1  UNL11      -0.0432
     12 C           1.5108   -2.3848    1.3713 C.ar    1  UNL11       0.1121
     13 C           1.4254   -1.0886    1.8449 C.2     1  UNL11       0.3368
     14 O           2.1983   -0.7353    2.7519 O.2     1  UNL11      -0.2416
     15 N           0.4989   -0.2746    1.2923 N.am    1  UNL11      -0.1702
     16 N           1.2921    1.5197    0.1427 N.am    1  UNL11      -0.2985
     17 C           2.5536    2.1870    0.0345 C.3     1  UNL11       0.0304
     18 C           3.6096    1.3412   -0.6323 C.3     1  UNL11       0.0280
     19 N           3.7114   -0.0038   -0.1132 N.pl3   1  UNL11      -0.3269
     20 C           4.6950   -0.9359   -0.5007 C.ar    1  UNL11       0.0299
     21 C           5.6510   -0.5821   -1.4416 C.ar    1  UNL11      -0.0379
     22 C           6.6292   -1.4725   -1.8215 C.ar    1  UNL11      -0.0247
     23 C           6.6527   -2.7470   -1.2467 C.ar    1  UNL11       0.1235
     24 F           7.6316   -3.5813   -1.6658 F       1  UNL11      -0.2055
     25 C           5.7072   -3.0878   -0.3206 C.ar    1  UNL11      -0.0247
     26 C           4.6970   -2.1754    0.0730 C.ar    1  UNL11      -0.0379
     27 C           2.6617   -0.3513    0.8563 C.3     1  UNL11       0.0280
     28 C           1.3068    0.0584    0.2433 C.3     1  UNL11       0.0304
     29 H          -1.3730    1.3928    1.4387 H       1  UNL11       0.0364
     30 H          -2.0857    2.2639    0.0803 H       1  UNL11       0.0364
     31 H          -2.3089   -0.2169   -0.2126 H       1  UNL11       0.0392
     32 H          -1.0675    0.3326   -1.3975 H       1  UNL11       0.0392
     33 H           0.0478   -4.3731   -0.9099 H       1  UNL11       0.0661
     34 H           1.6964   -5.9334    0.0082 H       1  UNL11       0.0619
     35 H           3.2492   -5.2431    1.8217 H       1  UNL11       0.0618
     36 H           3.1313   -2.9114    2.7178 H       1  UNL11       0.0627
     37 H           0.4648    0.7137    1.6742 H       1  UNL11       0.3013
     38 H           2.9320    2.5837    0.9929 H       1  UNL11       0.0480
     39 H           2.3647    3.0920   -0.6259 H       1  UNL11       0.0480
     40 H           3.3115    1.1988   -1.7134 H       1  UNL11       0.0479
     41 H           4.5600    1.8978   -0.6456 H       1  UNL11       0.0479
     42 H           5.5727    0.4177   -1.8540 H       1  UNL11       0.0637
     43 H           7.3579   -1.1679   -2.5671 H       1  UNL11       0.0647
     44 H           5.7335   -4.0684    0.1162 H       1  UNL11       0.0647
     45 H           3.9712   -2.4816    0.8065 H       1  UNL11       0.0637
     46 H           2.7178   -1.4333    1.0192 H       1  UNL11       0.0479
     47 H           2.7364    0.1725    1.8004 H       1  UNL11       0.0479
     48 H           1.2630   -0.3880   -0.7579 H       1  UNL11       0.0480
     49 H           0.4607   -0.2060    0.9051 H       1  UNL11       0.0480
@<TRIPOS>BOND
     1     1     2    2
     2     2     3    1
     3     2    16   am
     4     3     4    1
     5     3    29    1
     6     3    30    1
     7     4     5    1
     8     4    31    1
     9     4    32    1
    10     5     6    2
    11     6     7    1
    12     7     8   ar
    13     8     9   ar
    14     8    33    1
    15     9    10   ar
    16     9    34    1
    17    10    11   ar
    18    10    35    1
    19    11    12   ar
    20    11    36    1
    21    12    13    1
    22    12     7   ar
    23    13    14    2
    24    13    15   am
    25    15     5    1
    26    15    37    1
    27    16    17    1
    28    17    18    1
    29    17    38    1
    30    17    39    1
    31    18    19    1
    32    18    40    1
    33    18    41    1
    34    19    20    1
    35    19    27    1
    36    20    21   ar
    37    21    22   ar
    38    21    42    1
    39    22    23   ar
    40    22    43    1
    41    23    24    1
    42    23    25   ar
    43    25    26   ar
    44    25    44    1
    45    26    20   ar
    46    26    45    1
    47    27    28    1
    48    27    46    1
    49    27    47    1
    50    28    16    1
    51    28    48    1
    52    28    49    1
@<TRIPOS>MOLECULE
*****
 49 52 0 0 0
SMALL
GASTEIGER

@<TRIPOS>ATOM
      1 O           0.1396    3.5198    0.2072 O.2     1  UNL11      -0.2756
      2 C           0.0847    2.2662    0.2280 C.2     1  UNL11       0.2162
      3 C          -1.2238    1.6093    0.3296 C.3     1  UNL11       0.0351
      4 C          -1.1910    0.1123    0.3643 C.3     1  UNL11       0.0594
      5 C          -0.5299   -0.3854   -0.9033 C.2     1  UNL11       0.2951
      6 N           0.5937   -1.1264   -0.7959 N.2     1  UNL11      -0.0454
      7 C           1.1955   -1.6344   -1.8847 C.ar    1  UNL11       0.1903
      8 C           2.3347   -2.3880   -1.7510 C.ar    1  UNL11      -0.0100
      9 C           2.9167   -2.8923   -2.8877 C.ar    1  UNL11      -0.0576
     10 C           2.4140   -2.6751   -4.1308 C.ar    1  UNL11      -0.0607
     11 C           1.2544   -1.9091   -4.2940 C.ar    1  UNL11      -0.0432
     12 C           0.6714   -1.4018   -3.1297 C.ar    1  UNL11       0.1121
     13 C          -0.4780   -0.6425   -3.2485 C.2     1  UNL11       0.3368
     14 O          -0.9407   -0.4385   -4.3839 O.2     1  UNL11      -0.2416
     15 N          -1.0359   -0.1607   -2.1158 N.am    1  UNL11      -0.1702
     16 N           1.2921    1.5197    0.1427 N.am    1  UNL11      -0.2985
     17 C           2.5536    2.1870    0.0345 C.3     1  UNL11       0.0304
     18 C           3.6096    1.3412   -0.6323 C.3     1  UNL11       0.0280
     19 N           3.7114   -0.0038   -0.1132 N.pl3   1  UNL11      -0.3269
     20 C           4.6950   -0.9359   -0.5007 C.ar    1  UNL11       0.0299
     21 C           5.9450   -0.4935   -0.9084 C.ar    1  UNL11      -0.0379
     22 C           6.9240   -1.3884   -1.2756 C.ar    1  UNL11      -0.0247
     23 C           6.6471   -2.7584   -1.2334 C.ar    1  UNL11       0.1235
     24 F           7.6448   -3.5888   -1.6141 F       1  UNL11      -0.2055
     25 C           5.4132   -3.1860   -0.8308 C.ar    1  UNL11      -0.0247
     26 C           4.4011   -2.2689   -0.4533 C.ar    1  UNL11      -0.0379
     27 C           2.6617   -0.3513    0.8563 C.3     1  UNL11       0.0280
     28 C           1.3068    0.0584    0.2433 C.3     1  UNL11       0.0304
     29 H          -1.6392    1.9089    1.3479 H       1  UNL11       0.0364
     30 H          -1.9865    1.9952   -0.3795 H       1  UNL11       0.0364
     31 H          -0.5949   -0.3037    1.1962 H       1  UNL11       0.0392
     32 H          -2.2073   -0.3055    0.3919 H       1  UNL11       0.0392
     33 H           2.7339   -2.5587   -0.7411 H       1  UNL11       0.0661
     34 H           3.8250   -3.4933   -2.7238 H       1  UNL11       0.0619
     35 H           2.9131   -3.0951   -5.0012 H       1  UNL11       0.0618
     36 H           0.8398   -1.7232   -5.2709 H       1  UNL11       0.0627
     37 H          -1.9191    0.4116   -2.2424 H       1  UNL11       0.3013
     38 H           2.9320    2.5837    0.9929 H       1  UNL11       0.0480
     39 H           2.3647    3.0920   -0.6259 H       1  UNL11       0.0480
     40 H           3.3115    1.1988   -1.7134 H       1  UNL11       0.0479
     41 H           4.5600    1.8978   -0.6456 H       1  UNL11       0.0479
     42 H           6.0927    0.5805   -0.9256 H       1  UNL11       0.0637
     43 H           7.8895   -1.0098   -1.5984 H       1  UNL11       0.0647
     44 H           5.2097   -4.2399   -0.8007 H       1  UNL11       0.0647
     45 H           3.4425   -2.6457   -0.1407 H       1  UNL11       0.0637
     46 H           2.7178   -1.4333    1.0192 H       1  UNL11       0.0479
     47 H           2.7364    0.1725    1.8004 H       1  UNL11       0.0479
     48 H           1.2630   -0.3880   -0.7579 H       1  UNL11       0.0480
     49 H           0.4607   -0.2060    0.9051 H       1  UNL11       0.0480
@<TRIPOS>BOND
     1     1     2    2
     2     2     3    1
     3     2    16   am
     4     3     4    1
     5     3    29    1
     6     3    30    1
     7     4     5    1
     8     4    31    1
     9     4    32    1
    10     5     6    2
    11     6     7    1
    12     7     8   ar
    13     8     9   ar
    14     8    33    1
    15     9    10   ar
    16     9    34    1
    17    10    11   ar
    18    10    35    1
    19    11    12   ar
    20    11    36    1
    21    12    13    1
    22    12     7   ar
    23    13    14    2
    24    13    15   am
    25    15     5    1
    26    15    37    1
    27    16    17    1
    28    17    18    1
    29    17    38    1
    30    17    39    1
    31    18    19    1
    32    18    40    1
    33    18    41    1
    34    19    20    1
    35    19    27    1
    36    20    21   ar
    37    21    22   ar
    38    21    42    1
    39    22    23   ar
    40    22    43    1
    41    23    24    1
    42    23    25   ar
    43    25    26   ar
    44    25    44    1
    45    26    20   ar
    46    26    45    1
    47    27    28    1
    48    27    46    1
    49    27    47    1
    50    28    16    1
    51    28    48    1
    52    28    49    1
@<TRIPOS>MOLECULE
*****
 49 52 0 0 0
SMALL
GASTEIGER

@<TRIPOS>ATOM
      1 O          -1.0052    1.6535    0.3355 O.2     1  UNL11      -0.2756
      2 C           0.0847    2.2662    0.2280 C.2     1  UNL11       0.2162
      3 C           0.0807    3.7337    0.2037 C.3     1  UNL11       0.0351
      4 C           1.3023    4.3896    0.7701 C.3     1  UNL11       0.0594
      5 C           2.5042    3.9526   -0.0399 C.2     1  UNL11       0.2951
      6 N           3.7219    4.4187    0.3112 N.2     1  UNL11      -0.0454
      7 C           4.8287    4.0267   -0.3421 C.ar    1  UNL11       0.1903
      8 C           6.0564    4.5106    0.0348 C.ar    1  UNL11      -0.0100
      9 C           7.1631    4.0821   -0.6556 C.ar    1  UNL11      -0.0576
     10 C           7.0914    3.2052   -1.6906 C.ar    1  UNL11      -0.0607
     11 C           5.8515    2.6981   -2.0950 C.ar    1  UNL11      -0.0432
     12 C           4.7329    3.1417   -1.3845 C.ar    1  UNL11       0.1121
     13 C           3.4895    2.6609   -1.7514 C.2     1  UNL11       0.3368
     14 O           3.4180    1.8604   -2.6995 O.2     1  UNL11      -0.2416
     15 N           2.4152    3.0930   -1.0546 N.am    1  UNL11      -0.1702
     16 N           1.2921    1.5197    0.1427 N.am    1  UNL11      -0.2985
     17 C           2.5536    2.1870    0.0345 C.3     1  UNL11       0.0304
     18 C           3.6096    1.3412   -0.6323 C.3     1  UNL11       0.0280
     19 N           3.7114   -0.0038   -0.1132 N.pl3   1  UNL11      -0.3269
     20 C           4.6950   -0.9359   -0.5007 C.ar    1  UNL11       0.0299
     21 C           5.6510   -0.5821   -1.4416 C.ar    1  UNL11      -0.0379
     22 C           6.6292   -1.4725   -1.8215 C.ar    1  UNL11      -0.0247
     23 C           6.6527   -2.7470   -1.2467 C.ar    1  UNL11       0.1235
     24 F           7.6316   -3.5813   -1.6658 F       1  UNL11      -0.2055
     25 C           5.7072   -3.0878   -0.3206 C.ar    1  UNL11      -0.0247
     26 C           4.6970   -2.1754    0.0730 C.ar    1  UNL11      -0.0379
     27 C           2.6617   -0.3513    0.8563 C.3     1  UNL11       0.0280
     28 C           1.3068    0.0584    0.2433 C.3     1  UNL11       0.0304
     29 H           0.0876    4.0222   -0.8990 H       1  UNL11       0.0364
     30 H          -0.8560    4.1956    0.5815 H       1  UNL11       0.0364
     31 H           1.2865    5.4928    0.7114 H       1  UNL11       0.0392
     32 H           1.4739    4.0766    1.8096 H       1  UNL11       0.0392
     33 H           6.1045    5.2194    0.8736 H       1  UNL11       0.0661
     34 H           8.1229    4.4972   -0.3096 H       1  UNL11       0.0619
     35 H           7.9976    2.8974   -2.2074 H       1  UNL11       0.0618
     36 H           5.7719    2.0031   -2.9144 H       1  UNL11       0.0627
     37 H           1.4786    2.6999   -1.3579 H       1  UNL11       0.3013
     38 H           2.9320    2.5837    0.9929 H       1  UNL11       0.0480
     39 H           2.3647    3.0920   -0.6259 H       1  UNL11       0.0480
     40 H           3.3115    1.1988   -1.7134 H       1  UNL11       0.0479
     41 H           4.5600    1.8978   -0.6456 H       1  UNL11       0.0479
     42 H           5.5727    0.4177   -1.8540 H       1  UNL11       0.0637
     43 H           7.3579   -1.1679   -2.5671 H       1  UNL11       0.0647
     44 H           5.7335   -4.0684    0.1162 H       1  UNL11       0.0647
     45 H           3.9712   -2.4816    0.8065 H       1  UNL11       0.0637
     46 H           2.7178   -1.4333    1.0192 H       1  UNL11       0.0479
     47 H           2.7364    0.1725    1.8004 H       1  UNL11       0.0479
     48 H           1.2630   -0.3880   -0.7579 H       1  UNL11       0.0480
     49 H           0.4607   -0.2060    0.9051 H       1  UNL11       0.0480
@<TRIPOS>BOND
     1     1     2    2
     2     2     3    1
     3     2    16   am
     4     3     4    1
     5     3    29    1
     6     3    30    1
     7     4     5    1
     8     4    31    1
     9     4    32    1
    10     5     6    2
    11     6     7    1
    12     7     8   ar
    13     8     9   ar
    14     8    33    1
    15     9    10   ar
    16     9    34    1
    17    10    11   ar
    18    10    35    1
    19    11    12   ar
    20    11    36    1
    21    12    13    1
    22    12     7   ar
    23    13    14    2
    24    13    15   am
    25    15     5    1
    26    15    37    1
    27    16    17    1
    28    17    18    1
    29    17    38    1
    30    17    39    1
    31    18    19    1
    32    18    40    1
    33    18    41    1
    34    19    20    1
    35    19    27    1
    36    20    21   ar
    37    21    22   ar
    38    21    42    1
    39    22    23   ar
    40    22    43    1
    41    23    24    1
    42    23    25   ar
    43    25    26   ar
    44    25    44    1
    45    26    20   ar
    46    26    45    1
    47    27    28    1
    48    27    46    1
    49    27    47    1
    50    28    16    1
    51    28    48    1
    52    28    49    1
@<TRIPOS>MOLECULE
*****
 49 52 0 0 0
SMALL
GASTEIGER

@<TRIPOS>ATOM
      1 O           0.1396    3.5198    0.2072 O.2     1  UNL11      -0.2756
      2 C           0.0847    2.2662    0.2280 C.2     1  UNL11       0.2162
      3 C          -1.2238    1.6093    0.3296 C.3     1  UNL11       0.0351
      4 C          -2.0240    1.9547    1.5477 C.3     1  UNL11       0.0594
      5 C          -3.3263    1.1842    1.5041 C.2     1  UNL11       0.2951
      6 N          -4.3925    1.7544    0.9030 N.2     1  UNL11      -0.0454
      7 C          -5.5594    1.0973    0.7929 C.ar    1  UNL11       0.1903
      8 C          -6.6287    1.6952    0.1745 C.ar    1  UNL11      -0.0100
      9 C          -7.8019    0.9886    0.0787 C.ar    1  UNL11      -0.0576
     10 C          -7.9457   -0.2698    0.5698 C.ar    1  UNL11      -0.0607
     11 C          -6.8709   -0.9010    1.2057 C.ar    1  UNL11      -0.0432
     12 C          -5.6825   -0.1716    1.2966 C.ar    1  UNL11       0.1121
     13 C          -4.5959   -0.7620    1.9150 C.2     1  UNL11       0.3368
     14 O          -4.7228   -1.9123    2.3685 O.2     1  UNL11      -0.2416
     15 N          -3.4503   -0.0494    1.9934 N.am    1  UNL11      -0.1702
     16 N           1.2921    1.5197    0.1427 N.am    1  UNL11      -0.2985
     17 C           2.5536    2.1870    0.0345 C.3     1  UNL11       0.0304
     18 C           3.6096    1.3412   -0.6323 C.3     1  UNL11       0.0280
     19 N           3.7114   -0.0038   -0.1132 N.pl3   1  UNL11      -0.3269
     20 C           4.6950   -0.9359   -0.5007 C.ar    1  UNL11       0.0299
     21 C           5.1331   -1.8946    0.4011 C.ar    1  UNL11      -0.0379
     22 C           6.0813   -2.8234    0.0371 C.ar    1  UNL11      -0.0247
     23 C           6.6034   -2.7936   -1.2597 C.ar    1  UNL11       0.1235
     24 F           7.5382   -3.7252   -1.5567 F       1  UNL11      -0.2055
     25 C           6.1667   -1.8458   -2.1421 C.ar    1  UNL11      -0.0247
     26 C           5.1919   -0.8862   -1.7720 C.ar    1  UNL11      -0.0379
     27 C           2.6617   -0.3513    0.8563 C.3     1  UNL11       0.0280
     28 C           1.3068    0.0584    0.2433 C.3     1  UNL11       0.0304
     29 H          -1.8390    2.0149   -0.5400 H       1  UNL11       0.0364
     30 H          -1.2035    0.5155    0.1382 H       1  UNL11       0.0364
     31 H          -1.5388    1.6694    2.4984 H       1  UNL11       0.0392
     32 H          -2.2746    3.0248    1.5665 H       1  UNL11       0.0392
     33 H          -6.5028    2.7135   -0.2201 H       1  UNL11       0.0661
     34 H          -8.6262    1.5126   -0.4304 H       1  UNL11       0.0619
     35 H          -8.8970   -0.7877    0.4706 H       1  UNL11       0.0618
     36 H          -6.9639   -1.8979    1.6038 H       1  UNL11       0.0627
     37 H          -2.6356   -0.5340    2.4678 H       1  UNL11       0.3013
     38 H           2.9320    2.5837    0.9929 H       1  UNL11       0.0480
     39 H           2.3647    3.0920   -0.6259 H       1  UNL11       0.0480
     40 H           3.3115    1.1988   -1.7134 H       1  UNL11       0.0479
     41 H           4.5600    1.8978   -0.6456 H       1  UNL11       0.0479
     42 H           4.6942   -1.8588    1.3919 H       1  UNL11       0.0637
     43 H           6.4097   -3.5556    0.7691 H       1  UNL11       0.0647
     44 H           6.5725   -1.8309   -3.1361 H       1  UNL11       0.0647
     45 H           4.8730   -0.1568   -2.4965 H       1  UNL11       0.0637
     46 H           2.7178   -1.4333    1.0192 H       1  UNL11       0.0479
     47 H           2.7364    0.1725    1.8004 H       1  UNL11       0.0479
     48 H           1.2630   -0.3880   -0.7579 H       1  UNL11       0.0480
     49 H           0.4607   -0.2060    0.9051 H       1  UNL11       0.0480
@<TRIPOS>BOND
     1     1     2    2
     2     2     3    1
     3     2    16   am
     4     3     4    1
     5     3    29    1
     6     3    30    1
     7     4     5    1
     8     4    31    1
     9     4    32    1
    10     5     6    2
    11     6     7    1
    12     7     8   ar
    13     8     9   ar
    14     8    33    1
    15     9    10   ar
    16     9    34    1
    17    10    11   ar
    18    10    35    1
    19    11    12   ar
    20    11    36    1
    21    12    13    1
    22    12     7   ar
    23    13    14    2
    24    13    15   am
    25    15     5    1
    26    15    37    1
    27    16    17    1
    28    17    18    1
    29    17    38    1
    30    17    39    1
    31    18    19    1
    32    18    40    1
    33    18    41    1
    34    19    20    1
    35    19    27    1
    36    20    21   ar
    37    21    22   ar
    38    21    42    1
    39    22    23   ar
    40    22    43    1
    41    23    24    1
    42    23    25   ar
    43    25    26   ar
    44    25    44    1
    45    26    20   ar
    46    26    45    1
    47    27    28    1
    48    27    46    1
    49    27    47    1
    50    28    16    1
    51    28    48    1
    52    28    49    1
@<TRIPOS>MOLECULE
*****
 49 52 0 0 0
SMALL
GASTEIGER

@<TRIPOS>ATOM
      1 O           0.1396    3.5198    0.2072 O.2     1  UNL11      -0.2756
      2 C           0.0847    2.2662    0.2280 C.2     1  UNL11       0.2162
      3 C          -1.2238    1.6093    0.3296 C.3     1  UNL11       0.0351
      4 C          -2.0240    1.9547    1.5477 C.3     1  UNL11       0.0594
      5 C          -2.2936    3.4443    1.5416 C.2     1  UNL11       0.2951
      6 N          -2.9906    3.9688    0.5109 N.2     1  UNL11      -0.0454
      7 C          -3.3000    5.2760    0.4775 C.ar    1  UNL11       0.1903
      8 C          -4.0127    5.7863   -0.5784 C.ar    1  UNL11      -0.0100
      9 C          -4.3122    7.1262   -0.5727 C.ar    1  UNL11      -0.0576
     10 C          -3.9324    7.9612    0.4292 C.ar    1  UNL11      -0.0607
     11 C          -3.2040    7.4658    1.5163 C.ar    1  UNL11      -0.0432
     12 C          -2.9057    6.1007    1.4989 C.ar    1  UNL11       0.1121
     13 C          -2.1902    5.5718    2.5572 C.2     1  UNL11       0.3368
     14 O          -1.8380    6.3321    3.4753 O.2     1  UNL11      -0.2416
     15 N          -1.9112    4.2497    2.5324 N.am    1  UNL11      -0.1702
     16 N           1.2921    1.5197    0.1427 N.am    1  UNL11      -0.2985
     17 C           2.5536    2.1870    0.0345 C.3     1  UNL11       0.0304
     18 C           3.6096    1.3412   -0.6323 C.3     1  UNL11       0.0280
     19 N           3.7114   -0.0038   -0.1132 N.pl3   1  UNL11      -0.3269
     20 C           4.6950   -0.9359   -0.5007 C.ar    1  UNL11       0.0299
     21 C           4.4059   -2.2926   -0.4874 C.ar    1  UNL11      -0.0379
     22 C           5.3475   -3.2176   -0.8772 C.ar    1  UNL11      -0.0247
     23 C           6.6081   -2.7757   -1.2909 C.ar    1  UNL11       0.1235
     24 F           7.4946   -3.7310   -1.6536 F       1  UNL11      -0.2055
     25 C           6.8850   -1.4375   -1.3008 C.ar    1  UNL11      -0.0247
     26 C           5.9197   -0.4810   -0.8991 C.ar    1  UNL11      -0.0379
     27 C           2.6617   -0.3513    0.8563 C.3     1  UNL11       0.0280
     28 C           1.3068    0.0584    0.2433 C.3     1  UNL11       0.0304
     29 H          -1.8390    2.0149   -0.5400 H       1  UNL11       0.0364
     30 H          -1.2035    0.5155    0.1382 H       1  UNL11       0.0364
     31 H          -3.0166    1.4708    1.5838 H       1  UNL11       0.0392
     32 H          -1.4662    1.7245    2.4663 H       1  UNL11       0.0392
     33 H          -4.3160    5.1029   -1.3843 H       1  UNL11       0.0661
     34 H          -4.8893    7.4827   -1.4405 H       1  UNL11       0.0619
     35 H          -4.1928    9.0165    0.3868 H       1  UNL11       0.0618
     36 H          -2.8914    8.1109    2.3207 H       1  UNL11       0.0627
     37 H          -1.3670    3.8762    3.3618 H       1  UNL11       0.3013
     38 H           2.9320    2.5837    0.9929 H       1  UNL11       0.0480
     39 H           2.3647    3.0920   -0.6259 H       1  UNL11       0.0480
     40 H           3.3115    1.1988   -1.7134 H       1  UNL11       0.0479
     41 H           4.5600    1.8978   -0.6456 H       1  UNL11       0.0479
     42 H           3.4136   -2.5694   -0.1494 H       1  UNL11       0.0637
     43 H           5.0930   -4.2731   -0.8471 H       1  UNL11       0.0647
     44 H           7.8553   -1.1072   -1.6209 H       1  UNL11       0.0647
     45 H           6.1762    0.5641   -0.9225 H       1  UNL11       0.0637
     46 H           2.7178   -1.4333    1.0192 H       1  UNL11       0.0479
     47 H           2.7364    0.1725    1.8004 H       1  UNL11       0.0479
     48 H           1.2630   -0.3880   -0.7579 H       1  UNL11       0.0480
     49 H           0.4607   -0.2060    0.9051 H       1  UNL11       0.0480
@<TRIPOS>BOND
     1     1     2    2
     2     2     3    1
     3     2    16   am
     4     3     4    1
     5     3    29    1
     6     3    30    1
     7     4     5    1
     8     4    31    1
     9     4    32    1
    10     5     6    2
    11     6     7    1
    12     7     8   ar
    13     8     9   ar
    14     8    33    1
    15     9    10   ar
    16     9    34    1
    17    10    11   ar
    18    10    35    1
    19    11    12   ar
    20    11    36    1
    21    12    13    1
    22    12     7   ar
    23    13    14    2
    24    13    15   am
    25    15     5    1
    26    15    37    1
    27    16    17    1
    28    17    18    1
    29    17    38    1
    30    17    39    1
    31    18    19    1
    32    18    40    1
    33    18    41    1
    34    19    20    1
    35    19    27    1
    36    20    21   ar
    37    21    22   ar
    38    21    42    1
    39    22    23   ar
    40    22    43    1
    41    23    24    1
    42    23    25   ar
    43    25    26   ar
    44    25    44    1
    45    26    20   ar
    46    26    45    1
    47    27    28    1
    48    27    46    1
    49    27    47    1
    50    28    16    1
    51    28    48    1
    52    28    49    1
@<TRIPOS>MOLECULE
*****
 49 52 0 0 0
SMALL
GASTEIGER

@<TRIPOS>ATOM
      1 O          -1.0052    1.6535    0.3355 O.2     1  UNL11      -0.2756
      2 C           0.0847    2.2662    0.2280 C.2     1  UNL11       0.2162
      3 C           0.0807    3.7337    0.2037 C.3     1  UNL11       0.0351
      4 C          -1.0326    4.3865    0.9639 C.3     1  UNL11       0.0594
      5 C          -0.9241    3.9840    2.4191 C.2     1  UNL11       0.2951
      6 N          -1.5773    2.8767    2.8319 N.2     1  UNL11      -0.0454
      7 C          -1.4778    2.4460    4.1008 C.ar    1  UNL11       0.1903
      8 C          -2.1476    1.3156    4.4969 C.ar    1  UNL11      -0.0100
      9 C          -2.0165    0.9064    5.8009 C.ar    1  UNL11      -0.0576
     10 C          -1.2563    1.5724    6.7086 C.ar    1  UNL11      -0.0607
     11 C          -0.5644    2.7282    6.3300 C.ar    1  UNL11      -0.0432
     12 C          -0.7058    3.1341    5.0004 C.ar    1  UNL11       0.1121
     13 C          -0.0350    4.2700    4.5862 C.2     1  UNL11       0.3368
     14 O           0.6598    4.8846    5.4135 O.2     1  UNL11      -0.2416
     15 N          -0.1752    4.6509    3.2972 N.am    1  UNL11      -0.1702
     16 N           1.2921    1.5197    0.1427 N.am    1  UNL11      -0.2985
     17 C           2.5536    2.1870    0.0345 C.3     1  UNL11       0.0304
     18 C           3.6096    1.3412   -0.6323 C.3     1  UNL11       0.0280
     19 N           3.7114   -0.0038   -0.1132 N.pl3   1  UNL11      -0.3269
     20 C           4.6950   -0.9359   -0.5007 C.ar    1  UNL11       0.0299
     21 C           5.9450   -0.4935   -0.9084 C.ar    1  UNL11      -0.0379
     22 C           6.9240   -1.3884   -1.2756 C.ar    1  UNL11      -0.0247
     23 C           6.6471   -2.7584   -1.2334 C.ar    1  UNL11       0.1235
     24 F           7.6448   -3.5888   -1.6141 F       1  UNL11      -0.2055
     25 C           5.4132   -3.1860   -0.8308 C.ar    1  UNL11      -0.0247
     26 C           4.4011   -2.2689   -0.4533 C.ar    1  UNL11      -0.0379
     27 C           2.6617   -0.3513    0.8563 C.3     1  UNL11       0.0280
     28 C           1.3068    0.0584    0.2433 C.3     1  UNL11       0.0304
     29 H           1.0267    4.0521    0.7540 H       1  UNL11       0.0364
     30 H           0.2134    4.1755   -0.8066 H       1  UNL11       0.0364
     31 H          -0.9942    5.4906    0.9547 H       1  UNL11       0.0392
     32 H          -2.0126    4.0470    0.6002 H       1  UNL11       0.0392
     33 H          -2.7600    0.7831    3.7553 H       1  UNL11       0.0661
     34 H          -2.5707   -0.0082    6.0647 H       1  UNL11       0.0619
     35 H          -1.1858    1.2088    7.7313 H       1  UNL11       0.0618
     36 H           0.0427    3.2725    7.0344 H       1  UNL11       0.0627
     37 H           0.3574    5.5218    3.0116 H       1  UNL11       0.3013
     38 H           2.9320    2.5837    0.9929 H       1  UNL11       0.0480
     39 H           2.3647    3.0920   -0.6259 H       1  UNL11       0.0480
     40 H           3.3115    1.1988   -1.7134 H       1  UNL11       0.0479
     41 H           4.5600    1.8978   -0.6456 H       1  UNL11       0.0479
     42 H           6.0927    0.5805   -0.9256 H       1  UNL11       0.0637
     43 H           7.8895   -1.0098   -1.5984 H       1  UNL11       0.0647
     44 H           5.2097   -4.2399   -0.8007 H       1  UNL11       0.0647
     45 H           3.4425   -2.6457   -0.1407 H       1  UNL11       0.0637
     46 H           2.7178   -1.4333    1.0192 H       1  UNL11       0.0479
     47 H           2.7364    0.1725    1.8004 H       1  UNL11       0.0479
     48 H           1.2630   -0.3880   -0.7579 H       1  UNL11       0.0480
     49 H           0.4607   -0.2060    0.9051 H       1  UNL11       0.0480
@<TRIPOS>BOND
     1     1     2    2
     2     2     3    1
     3     2    16   am
     4     3     4    1
     5     3    29    1
     6     3    30    1
     7     4     5    1
     8     4    31    1
     9     4    32    1
    10     5     6    2
    11     6     7    1
    12     7     8   ar
    13     8     9   ar
    14     8    33    1
    15     9    10   ar
    16     9    34    1
    17    10    11   ar
    18    10    35    1
    19    11    12   ar
    20    11    36    1
    21    12    13    1
    22    12     7   ar
    23    13    14    2
    24    13    15   am
    25    15     5    1
    26    15    37    1
    27    16    17    1
    28    17    18    1
    29    17    38    1
    30    17    39    1
    31    18    19    1
    32    18    40    1
    33    18    41    1
    34    19    20    1
    35    19    27    1
    36    20    21   ar
    37    21    22   ar
    38    21    42    1
    39    22    23   ar
    40    22    43    1
    41    23    24    1
    42    23    25   ar
    43    25    26   ar
    44    25    44    1
    45    26    20   ar
    46    26    45    1
    47    27    28    1
    48    27    46    1
    49    27    47    1
    50    28    16    1
    51    28    48    1
    52    28    49    1
@<TRIPOS>MOLECULE
*****
 49 52 0 0 0
SMALL
GASTEIGER

@<TRIPOS>ATOM
      1 O          -1.0052    1.6535    0.3355 O.2     1  UNL11      -0.2756
      2 C           0.0847    2.2662    0.2280 C.2     1  UNL11       0.2162
      3 C           0.0807    3.7337    0.2037 C.3     1  UNL11       0.0351
      4 C          -1.2684    4.3751    0.3132 C.3     1  UNL11       0.0594
      5 C          -1.0945    5.8777    0.2547 C.2     1  UNL11       0.2951
      6 N          -0.5436    6.4200   -0.8524 N.2     1  UNL11      -0.0454
      7 C          -0.4092    7.7510   -0.9787 C.ar    1  UNL11       0.1903
      8 C           0.1501    8.2800   -2.1148 C.ar    1  UNL11      -0.0100
      9 C           0.2658    9.6450   -2.2066 C.ar    1  UNL11      -0.0576
     10 C          -0.1474   10.4867   -1.2237 C.ar    1  UNL11      -0.0607
     11 C          -0.7198    9.9722   -0.0551 C.ar    1  UNL11      -0.0432
     12 C          -0.8321    8.5817    0.0262 C.ar    1  UNL11       0.1121
     13 C          -1.3958    8.0343    1.1639 C.2     1  UNL11       0.3368
     14 O          -1.7730    8.7999    2.0675 O.2     1  UNL11      -0.2416
     15 N          -1.5036    6.6888    1.2300 N.am    1  UNL11      -0.1702
     16 N           1.2921    1.5197    0.1427 N.am    1  UNL11      -0.2985
     17 C           2.5536    2.1870    0.0345 C.3     1  UNL11       0.0304
     18 C           3.6096    1.3412   -0.6323 C.3     1  UNL11       0.0280
     19 N           3.7114   -0.0038   -0.1132 N.pl3   1  UNL11      -0.3269
     20 C           4.6950   -0.9359   -0.5007 C.ar    1  UNL11       0.0299
     21 C           4.4059   -2.2926   -0.4874 C.ar    1  UNL11      -0.0379
     22 C           5.3475   -3.2176   -0.8772 C.ar    1  UNL11      -0.0247
     23 C           6.6081   -2.7757   -1.2909 C.ar    1  UNL11       0.1235
     24 F           7.4946   -3.7310   -1.6536 F       1  UNL11      -0.2055
     25 C           6.8850   -1.4375   -1.3008 C.ar    1  UNL11      -0.0247
     26 C           5.9197   -0.4810   -0.8991 C.ar    1  UNL11      -0.0379
     27 C           2.6617   -0.3513    0.8563 C.3     1  UNL11       0.0280
     28 C           1.3068    0.0584    0.2433 C.3     1  UNL11       0.0304
     29 H           0.6280    4.0576    1.1496 H       1  UNL11       0.0364
     30 H           0.6919    4.1801   -0.6091 H       1  UNL11       0.0364
     31 H          -1.9541    4.1204   -0.5147 H       1  UNL11       0.0392
     32 H          -1.7438    4.1354    1.2748 H       1  UNL11       0.0392
     33 H           0.4812    7.5912   -2.9049 H       1  UNL11       0.0661
     34 H           0.7167   10.0170   -3.1401 H       1  UNL11       0.0619
     35 H          -0.0323   11.5617   -1.3431 H       1  UNL11       0.0618
     36 H          -1.0526   10.6218    0.7375 H       1  UNL11       0.0627
     37 H          -1.9458    6.3030    2.1128 H       1  UNL11       0.3013
     38 H           2.9320    2.5837    0.9929 H       1  UNL11       0.0480
     39 H           2.3647    3.0920   -0.6259 H       1  UNL11       0.0480
     40 H           3.3115    1.1988   -1.7134 H       1  UNL11       0.0479
     41 H           4.5600    1.8978   -0.6456 H       1  UNL11       0.0479
     42 H           3.4136   -2.5694   -0.1494 H       1  UNL11       0.0637
     43 H           5.0930   -4.2731   -0.8471 H       1  UNL11       0.0647
     44 H           7.8553   -1.1072   -1.6209 H       1  UNL11       0.0647
     45 H           6.1762    0.5641   -0.9225 H       1  UNL11       0.0637
     46 H           2.7178   -1.4333    1.0192 H       1  UNL11       0.0479
     47 H           2.7364    0.1725    1.8004 H       1  UNL11       0.0479
     48 H           1.2630   -0.3880   -0.7579 H       1  UNL11       0.0480
     49 H           0.4607   -0.2060    0.9051 H       1  UNL11       0.0480
@<TRIPOS>BOND
     1     1     2    2
     2     2     3    1
     3     2    16   am
     4     3     4    1
     5     3    29    1
     6     3    30    1
     7     4     5    1
     8     4    31    1
     9     4    32    1
    10     5     6    2
    11     6     7    1
    12     7     8   ar
    13     8     9   ar
    14     8    33    1
    15     9    10   ar
    16     9    34    1
    17    10    11   ar
    18    10    35    1
    19    11    12   ar
    20    11    36    1
    21    12    13    1
    22    12     7   ar
    23    13    14    2
    24    13    15   am
    25    15     5    1
    26    15    37    1
    27    16    17    1
    28    17    18    1
    29    17    38    1
    30    17    39    1
    31    18    19    1
    32    18    40    1
    33    18    41    1
    34    19    20    1
    35    19    27    1
    36    20    21   ar
    37    21    22   ar
    38    21    42    1
    39    22    23   ar
    40    22    43    1
    41    23    24    1
    42    23    25   ar
    43    25    26   ar
    44    25    44    1
    45    26    20   ar
    46    26    45    1
    47    27    28    1
    48    27    46    1
    49    27    47    1
    50    28    16    1
    51    28    48    1
    52    28    49    1
@<TRIPOS>MOLECULE
*****
 49 52 0 0 0
SMALL
GASTEIGER

@<TRIPOS>ATOM
      1 O           0.1396    3.5198    0.2072 O.2     1  UNL11      -0.2756
      2 C           0.0847    2.2662    0.2280 C.2     1  UNL11       0.2162
      3 C          -1.2238    1.6093    0.3296 C.3     1  UNL11       0.0351
      4 C          -1.1910    0.1123    0.3643 C.3     1  UNL11       0.0594
      5 C          -0.3985   -0.3251    1.5776 C.2     1  UNL11       0.2951
      6 N          -1.0569   -0.5251    2.7394 N.2     1  UNL11      -0.0454
      7 C          -0.4121   -0.9595    3.8353 C.ar    1  UNL11       0.1903
      8 C          -1.1025   -1.1595    5.0044 C.ar    1  UNL11      -0.0100
      9 C          -0.4077   -1.6080    6.1003 C.ar    1  UNL11      -0.0576
     10 C           0.9271   -1.8586    6.0739 C.ar    1  UNL11      -0.0607
     11 C           1.6541   -1.6615    4.8946 C.ar    1  UNL11      -0.0432
     12 C           0.9356   -1.2051    3.7864 C.ar    1  UNL11       0.1121
     13 C           1.6174   -1.0012    2.6009 C.2     1  UNL11       0.3368
     14 O           2.8395   -1.2264    2.5720 O.2     1  UNL11      -0.2416
     15 N           0.9120   -0.5641    1.5343 N.am    1  UNL11      -0.1702
     16 N           1.2921    1.5197    0.1427 N.am    1  UNL11      -0.2985
     17 C           2.5536    2.1870    0.0345 C.3     1  UNL11       0.0304
     18 C           3.6096    1.3412   -0.6323 C.3     1  UNL11       0.0280
     19 N           3.7114   -0.0038   -0.1132 N.pl3   1  UNL11      -0.3269
     20 C           4.6950   -0.9359   -0.5007 C.ar    1  UNL11       0.0299
     21 C           5.1331   -1.8946    0.4011 C.ar    1  UNL11      -0.0379
     22 C           6.0813   -2.8234    0.0371 C.ar    1  UNL11      -0.0247
     23 C           6.6034   -2.7936   -1.2597 C.ar    1  UNL11       0.1235
     24 F           7.5382   -3.7252   -1.5567 F       1  UNL11      -0.2055
     25 C           6.1667   -1.8458   -2.1421 C.ar    1  UNL11      -0.0247
     26 C           5.1919   -0.8862   -1.7720 C.ar    1  UNL11      -0.0379
     27 C           2.6617   -0.3513    0.8563 C.3     1  UNL11       0.0280
     28 C           1.3068    0.0584    0.2433 C.3     1  UNL11       0.0304
     29 H          -1.6392    1.9089    1.3479 H       1  UNL11       0.0364
     30 H          -1.9865    1.9952   -0.3795 H       1  UNL11       0.0364
     31 H          -2.1862   -0.3553    0.4719 H       1  UNL11       0.0392
     32 H          -0.6854   -0.2933   -0.5234 H       1  UNL11       0.0392
     33 H          -2.1824   -0.9544    5.0161 H       1  UNL11       0.0661
     34 H          -1.0100   -1.7562    7.0106 H       1  UNL11       0.0619
     35 H           1.4329   -2.2112    6.9700 H       1  UNL11       0.0618
     36 H           2.7136   -1.8524    4.8523 H       1  UNL11       0.0627
     37 H           1.4642   -0.4244    0.6403 H       1  UNL11       0.3013
     38 H           2.9320    2.5837    0.9929 H       1  UNL11       0.0480
     39 H           2.3647    3.0920   -0.6259 H       1  UNL11       0.0480
     40 H           3.3115    1.1988   -1.7134 H       1  UNL11       0.0479
     41 H           4.5600    1.8978   -0.6456 H       1  UNL11       0.0479
     42 H           4.6942   -1.8588    1.3919 H       1  UNL11       0.0637
     43 H           6.4097   -3.5556    0.7691 H       1  UNL11       0.0647
     44 H           6.5725   -1.8309   -3.1361 H       1  UNL11       0.0647
     45 H           4.8730   -0.1568   -2.4965 H       1  UNL11       0.0637
     46 H           2.7178   -1.4333    1.0192 H       1  UNL11       0.0479
     47 H           2.7364    0.1725    1.8004 H       1  UNL11       0.0479
     48 H           1.2630   -0.3880   -0.7579 H       1  UNL11       0.0480
     49 H           0.4607   -0.2060    0.9051 H       1  UNL11       0.0480
@<TRIPOS>BOND
     1     1     2    2
     2     2     3    1
     3     2    16   am
     4     3     4    1
     5     3    29    1
     6     3    30    1
     7     4     5    1
     8     4    31    1
     9     4    32    1
    10     5     6    2
    11     6     7    1
    12     7     8   ar
    13     8     9   ar
    14     8    33    1
    15     9    10   ar
    16     9    34    1
    17    10    11   ar
    18    10    35    1
    19    11    12   ar
    20    11    36    1
    21    12    13    1
    22    12     7   ar
    23    13    14    2
    24    13    15   am
    25    15     5    1
    26    15    37    1
    27    16    17    1
    28    17    18    1
    29    17    38    1
    30    17    39    1
    31    18    19    1
    32    18    40    1
    33    18    41    1
    34    19    20    1
    35    19    27    1
    36    20    21   ar
    37    21    22   ar
    38    21    42    1
    39    22    23   ar
    40    22    43    1
    41    23    24    1
    42    23    25   ar
    43    25    26   ar
    44    25    44    1
    45    26    20   ar
    46    26    45    1
    47    27    28    1
    48    27    46    1
    49    27    47    1
    50    28    16    1
    51    28    48    1
    52    28    49    1
@<TRIPOS>MOLECULE
*****
 49 52 0 0 0
SMALL
GASTEIGER

@<TRIPOS>ATOM
      1 O          -1.0052    1.6535    0.3355 O.2     1  UNL11      -0.2756
      2 C           0.0847    2.2662    0.2280 C.2     1  UNL11       0.2162
      3 C           0.0807    3.7337    0.2037 C.3     1  UNL11       0.0351
      4 C           1.3023    4.3896    0.7701 C.3     1  UNL11       0.0594
      5 C           2.5042    3.9526   -0.0399 C.2     1  UNL11       0.2951
      6 N           3.7219    4.4187    0.3112 N.2     1  UNL11      -0.0454
      7 C           4.8287    4.0267   -0.3421 C.ar    1  UNL11       0.1903
      8 C           6.0564    4.5106    0.0348 C.ar    1  UNL11      -0.0100
      9 C           7.1631    4.0821   -0.6556 C.ar    1  UNL11      -0.0576
     10 C           7.0914    3.2052   -1.6906 C.ar    1  UNL11      -0.0607
     11 C           5.8515    2.6981   -2.0950 C.ar    1  UNL11      -0.0432
     12 C           4.7329    3.1417   -1.3845 C.ar    1  UNL11       0.1121
     13 C           3.4895    2.6609   -1.7514 C.2     1  UNL11       0.3368
     14 O           3.4180    1.8604   -2.6995 O.2     1  UNL11      -0.2416
     15 N           2.4152    3.0930   -1.0546 N.am    1  UNL11      -0.1702
     16 N           1.2921    1.5197    0.1427 N.am    1  UNL11      -0.2985
     17 C           2.5536    2.1870    0.0345 C.3     1  UNL11       0.0304
     18 C           3.6096    1.3412   -0.6323 C.3     1  UNL11       0.0280
     19 N           3.7114   -0.0038   -0.1132 N.pl3   1  UNL11      -0.3269
     20 C           4.6950   -0.9359   -0.5007 C.ar    1  UNL11       0.0299
     21 C           4.4059   -2.2926   -0.4874 C.ar    1  UNL11      -0.0379
     22 C           5.3475   -3.2176   -0.8772 C.ar    1  UNL11      -0.0247
     23 C           6.6081   -2.7757   -1.2909 C.ar    1  UNL11       0.1235
     24 F           7.4946   -3.7310   -1.6536 F       1  UNL11      -0.2055
     25 C           6.8850   -1.4375   -1.3008 C.ar    1  UNL11      -0.0247
     26 C           5.9197   -0.4810   -0.8991 C.ar    1  UNL11      -0.0379
     27 C           2.6617   -0.3513    0.8563 C.3     1  UNL11       0.0280
     28 C           1.3068    0.0584    0.2433 C.3     1  UNL11       0.0304
     29 H           0.0876    4.0222   -0.8990 H       1  UNL11       0.0364
     30 H          -0.8560    4.1956    0.5815 H       1  UNL11       0.0364
     31 H           1.2865    5.4928    0.7114 H       1  UNL11       0.0392
     32 H           1.4739    4.0766    1.8096 H       1  UNL11       0.0392
     33 H           6.1045    5.2194    0.8736 H       1  UNL11       0.0661
     34 H           8.1229    4.4972   -0.3096 H       1  UNL11       0.0619
     35 H           7.9976    2.8974   -2.2074 H       1  UNL11       0.0618
     36 H           5.7719    2.0031   -2.9144 H       1  UNL11       0.0627
     37 H           1.4786    2.6999   -1.3579 H       1  UNL11       0.3013
     38 H           2.9320    2.5837    0.9929 H       1  UNL11       0.0480
     39 H           2.3647    3.0920   -0.6259 H       1  UNL11       0.0480
     40 H           3.3115    1.1988   -1.7134 H       1  UNL11       0.0479
     41 H           4.5600    1.8978   -0.6456 H       1  UNL11       0.0479
     42 H           3.4136   -2.5694   -0.1494 H       1  UNL11       0.0637
     43 H           5.0930   -4.2731   -0.8471 H       1  UNL11       0.0647
     44 H           7.8553   -1.1072   -1.6209 H       1  UNL11       0.0647
     45 H           6.1762    0.5641   -0.9225 H       1  UNL11       0.0637
     46 H           2.7178   -1.4333    1.0192 H       1  UNL11       0.0479
     47 H           2.7364    0.1725    1.8004 H       1  UNL11       0.0479
     48 H           1.2630   -0.3880   -0.7579 H       1  UNL11       0.0480
     49 H           0.4607   -0.2060    0.9051 H       1  UNL11       0.0480
@<TRIPOS>BOND
     1     1     2    2
     2     2     3    1
     3     2    16   am
     4     3     4    1
     5     3    29    1
     6     3    30    1
     7     4     5    1
     8     4    31    1
     9     4    32    1
    10     5     6    2
    11     6     7    1
    12     7     8   ar
    13     8     9   ar
    14     8    33    1
    15     9    10   ar
    16     9    34    1
    17    10    11   ar
    18    10    35    1
    19    11    12   ar
    20    11    36    1
    21    12    13    1
    22    12     7   ar
    23    13    14    2
    24    13    15   am
    25    15     5    1
    26    15    37    1
    27    16    17    1
    28    17    18    1
    29    17    38    1
    30    17    39    1
    31    18    19    1
    32    18    40    1
    33    18    41    1
    34    19    20    1
    35    19    27    1
    36    20    21   ar
    37    21    22   ar
    38    21    42    1
    39    22    23   ar
    40    22    43    1
    41    23    24    1
    42    23    25   ar
    43    25    26   ar
    44    25    44    1
    45    26    20   ar
    46    26    45    1
    47    27    28    1
    48    27    46    1
    49    27    47    1
    50    28    16    1
    51    28    48    1
    52    28    49    1
@<TRIPOS>MOLECULE
*****
 49 52 0 0 0
SMALL
GASTEIGER

@<TRIPOS>ATOM
      1 O           0.1396    3.5198    0.2072 O.2     1  UNL11      -0.2756
      2 C           0.0847    2.2662    0.2280 C.2     1  UNL11       0.2162
      3 C          -1.2238    1.6093    0.3296 C.3     1  UNL11       0.0351
      4 C          -1.1910    0.1123    0.3643 C.3     1  UNL11       0.0594
      5 C          -0.5299   -0.3854   -0.9033 C.2     1  UNL11       0.2951
      6 N           0.5937   -1.1264   -0.7959 N.2     1  UNL11      -0.0454
      7 C           1.1955   -1.6344   -1.8847 C.ar    1  UNL11       0.1903
      8 C           2.3347   -2.3880   -1.7510 C.ar    1  UNL11      -0.0100
      9 C           2.9167   -2.8923   -2.8877 C.ar    1  UNL11      -0.0576
     10 C           2.4140   -2.6751   -4.1308 C.ar    1  UNL11      -0.0607
     11 C           1.2544   -1.9091   -4.2940 C.ar    1  UNL11      -0.0432
     12 C           0.6714   -1.4018   -3.1297 C.ar    1  UNL11       0.1121
     13 C          -0.4780   -0.6425   -3.2485 C.2     1  UNL11       0.3368
     14 O          -0.9407   -0.4385   -4.3839 O.2     1  UNL11      -0.2416
     15 N          -1.0359   -0.1607   -2.1158 N.am    1  UNL11      -0.1702
     16 N           1.2921    1.5197    0.1427 N.am    1  UNL11      -0.2985
     17 C           2.5536    2.1870    0.0345 C.3     1  UNL11       0.0304
     18 C           3.6096    1.3412   -0.6323 C.3     1  UNL11       0.0280
     19 N           3.7114   -0.0038   -0.1132 N.pl3   1  UNL11      -0.3269
     20 C           4.6950   -0.9359   -0.5007 C.ar    1  UNL11       0.0299
     21 C           4.4059   -2.2926   -0.4874 C.ar    1  UNL11      -0.0379
     22 C           5.3475   -3.2176   -0.8772 C.ar    1  UNL11      -0.0247
     23 C           6.6081   -2.7757   -1.2909 C.ar    1  UNL11       0.1235
     24 F           7.4946   -3.7310   -1.6536 F       1  UNL11      -0.2055
     25 C           6.8850   -1.4375   -1.3008 C.ar    1  UNL11      -0.0247
     26 C           5.9197   -0.4810   -0.8991 C.ar    1  UNL11      -0.0379
     27 C           2.6617   -0.3513    0.8563 C.3     1  UNL11       0.0280
     28 C           1.3068    0.0584    0.2433 C.3     1  UNL11       0.0304
     29 H          -1.6392    1.9089    1.3479 H       1  UNL11       0.0364
     30 H          -1.9865    1.9952   -0.3795 H       1  UNL11       0.0364
     31 H          -0.5949   -0.3037    1.1962 H       1  UNL11       0.0392
     32 H          -2.2073   -0.3055    0.3919 H       1  UNL11       0.0392
     33 H           2.7339   -2.5587   -0.7411 H       1  UNL11       0.0661
     34 H           3.8250   -3.4933   -2.7238 H       1  UNL11       0.0619
     35 H           2.9131   -3.0951   -5.0012 H       1  UNL11       0.0618
     36 H           0.8398   -1.7232   -5.2709 H       1  UNL11       0.0627
     37 H          -1.9191    0.4116   -2.2424 H       1  UNL11       0.3013
     38 H           2.9320    2.5837    0.9929 H       1  UNL11       0.0480
     39 H           2.3647    3.0920   -0.6259 H       1  UNL11       0.0480
     40 H           3.3115    1.1988   -1.7134 H       1  UNL11       0.0479
     41 H           4.5600    1.8978   -0.6456 H       1  UNL11       0.0479
     42 H           3.4136   -2.5694   -0.1494 H       1  UNL11       0.0637
     43 H           5.0930   -4.2731   -0.8471 H       1  UNL11       0.0647
     44 H           7.8553   -1.1072   -1.6209 H       1  UNL11       0.0647
     45 H           6.1762    0.5641   -0.9225 H       1  UNL11       0.0637
     46 H           2.7178   -1.4333    1.0192 H       1  UNL11       0.0479
     47 H           2.7364    0.1725    1.8004 H       1  UNL11       0.0479
     48 H           1.2630   -0.3880   -0.7579 H       1  UNL11       0.0480
     49 H           0.4607   -0.2060    0.9051 H       1  UNL11       0.0480
@<TRIPOS>BOND
     1     1     2    2
     2     2     3    1
     3     2    16   am
     4     3     4    1
     5     3    29    1
     6     3    30    1
     7     4     5    1
     8     4    31    1
     9     4    32    1
    10     5     6    2
    11     6     7    1
    12     7     8   ar
    13     8     9   ar
    14     8    33    1
    15     9    10   ar
    16     9    34    1
    17    10    11   ar
    18    10    35    1
    19    11    12   ar
    20    11    36    1
    21    12    13    1
    22    12     7   ar
    23    13    14    2
    24    13    15   am
    25    15     5    1
    26    15    37    1
    27    16    17    1
    28    17    18    1
    29    17    38    1
    30    17    39    1
    31    18    19    1
    32    18    40    1
    33    18    41    1
    34    19    20    1
    35    19    27    1
    36    20    21   ar
    37    21    22   ar
    38    21    42    1
    39    22    23   ar
    40    22    43    1
    41    23    24    1
    42    23    25   ar
    43    25    26   ar
    44    25    44    1
    45    26    20   ar
    46    26    45    1
    47    27    28    1
    48    27    46    1
    49    27    47    1
    50    28    16    1
    51    28    48    1
    52    28    49    1
@<TRIPOS>MOLECULE
*****
 49 52 0 0 0
SMALL
GASTEIGER

@<TRIPOS>ATOM
      1 O          -1.0052    1.6535    0.3355 O.2     1  UNL11      -0.2756
      2 C           0.0847    2.2662    0.2280 C.2     1  UNL11       0.2162
      3 C           0.0807    3.7337    0.2037 C.3     1  UNL11       0.0351
      4 C           0.8567    4.3972    1.2996 C.3     1  UNL11       0.0594
      5 C           0.7345    5.8973    1.1374 C.2     1  UNL11       0.2951
      6 N           1.3751    6.6950    2.0186 N.2     1  UNL11      -0.0454
      7 C           1.3408    8.0325    1.8945 C.ar    1  UNL11       0.1903
      8 C           2.0028    8.8235    2.7998 C.ar    1  UNL11      -0.0100
      9 C           1.9465   10.1854    2.6355 C.ar    1  UNL11      -0.0576
     10 C           1.2651   10.7770    1.6201 C.ar    1  UNL11      -0.0607
     11 C           0.5811    9.9928    0.6846 C.ar    1  UNL11      -0.0432
     12 C           0.6461    8.6083    0.8626 C.ar    1  UNL11       0.1121
     13 C          -0.0140    7.7985   -0.0431 C.2     1  UNL11       0.3368
     14 O          -0.6412    8.3348   -0.9725 O.2     1  UNL11      -0.2416
     15 N           0.0593    6.4610    0.1359 N.am    1  UNL11      -0.1702
     16 N           1.2921    1.5197    0.1427 N.am    1  UNL11      -0.2985
     17 C           2.5536    2.1870    0.0345 C.3     1  UNL11       0.0304
     18 C           3.6096    1.3412   -0.6323 C.3     1  UNL11       0.0280
     19 N           3.7114   -0.0038   -0.1132 N.pl3   1  UNL11      -0.3269
     20 C           4.6950   -0.9359   -0.5007 C.ar    1  UNL11       0.0299
     21 C           5.2332   -0.8831   -1.7782 C.ar    1  UNL11      -0.0379
     22 C           6.2058   -1.7742   -2.1705 C.ar    1  UNL11      -0.0247
     23 C           6.6517   -2.7409   -1.2639 C.ar    1  UNL11       0.1235
     24 F           7.6021   -3.5945   -1.7089 F       1  UNL11      -0.2055
     25 C           6.1163   -2.7864   -0.0073 C.ar    1  UNL11      -0.0247
     26 C           5.1136   -1.8723    0.4013 C.ar    1  UNL11      -0.0379
     27 C           2.6617   -0.3513    0.8563 C.3     1  UNL11       0.0280
     28 C           1.3068    0.0584    0.2433 C.3     1  UNL11       0.0304
     29 H           0.6296    4.0261   -0.7515 H       1  UNL11       0.0364
     30 H          -0.9242    4.1869    0.0684 H       1  UNL11       0.0364
     31 H           0.4800    4.1739    2.3139 H       1  UNL11       0.0392
     32 H           1.9246    4.1448    1.2373 H       1  UNL11       0.0392
     33 H           2.5517    8.3358    3.6179 H       1  UNL11       0.0661
     34 H           2.4983   10.7728    3.3863 H       1  UNL11       0.0619
     35 H           1.2491   11.8611    1.5339 H       1  UNL11       0.0618
     36 H           0.0331   10.4415   -0.1274 H       1  UNL11       0.0627
     37 H          -0.4526    5.8698   -0.5796 H       1  UNL11       0.3013
     38 H           2.9320    2.5837    0.9929 H       1  UNL11       0.0480
     39 H           2.3647    3.0920   -0.6259 H       1  UNL11       0.0480
     40 H           3.3115    1.1988   -1.7134 H       1  UNL11       0.0479
     41 H           4.5600    1.8978   -0.6456 H       1  UNL11       0.0479
     42 H           4.8392   -0.1151   -2.4344 H       1  UNL11       0.0637
     43 H           6.6006   -1.7121   -3.1805 H       1  UNL11       0.0647
     44 H           6.4654   -3.5315    0.6826 H       1  UNL11       0.0647
     45 H           4.7182   -1.9400    1.4001 H       1  UNL11       0.0637
     46 H           2.7178   -1.4333    1.0192 H       1  UNL11       0.0479
     47 H           2.7364    0.1725    1.8004 H       1  UNL11       0.0479
     48 H           1.2630   -0.3880   -0.7579 H       1  UNL11       0.0480
     49 H           0.4607   -0.2060    0.9051 H       1  UNL11       0.0480
@<TRIPOS>BOND
     1     1     2    2
     2     2     3    1
     3     2    16   am
     4     3     4    1
     5     3    29    1
     6     3    30    1
     7     4     5    1
     8     4    31    1
     9     4    32    1
    10     5     6    2
    11     6     7    1
    12     7     8   ar
    13     8     9   ar
    14     8    33    1
    15     9    10   ar
    16     9    34    1
    17    10    11   ar
    18    10    35    1
    19    11    12   ar
    20    11    36    1
    21    12    13    1
    22    12     7   ar
    23    13    14    2
    24    13    15   am
    25    15     5    1
    26    15    37    1
    27    16    17    1
    28    17    18    1
    29    17    38    1
    30    17    39    1
    31    18    19    1
    32    18    40    1
    33    18    41    1
    34    19    20    1
    35    19    27    1
    36    20    21   ar
    37    21    22   ar
    38    21    42    1
    39    22    23   ar
    40    22    43    1
    41    23    24    1
    42    23    25   ar
    43    25    26   ar
    44    25    44    1
    45    26    20   ar
    46    26    45    1
    47    27    28    1
    48    27    46    1
    49    27    47    1
    50    28    16    1
    51    28    48    1
    52    28    49    1
@<TRIPOS>MOLECULE
*****
 49 52 0 0 0
SMALL
GASTEIGER

@<TRIPOS>ATOM
      1 O           0.1396    3.5198    0.2072 O.2     1  UNL11      -0.2756
      2 C           0.0847    2.2662    0.2280 C.2     1  UNL11       0.2162
      3 C          -1.2238    1.6093    0.3296 C.3     1  UNL11       0.0351
      4 C          -2.2759    2.3816    1.0646 C.3     1  UNL11       0.0594
      5 C          -2.5100    3.6893    0.3388 C.2     1  UNL11       0.2951
      6 N          -1.4834    4.2400   -0.3440 N.2     1  UNL11      -0.0454
      7 C          -1.6472    5.3743   -1.0456 C.ar    1  UNL11       0.1903
      8 C          -0.5905    5.9139   -1.7352 C.ar    1  UNL11      -0.0100
      9 C          -0.8002    7.0714   -2.4431 C.ar    1  UNL11      -0.0576
     10 C          -2.0035    7.7002   -2.4864 C.ar    1  UNL11      -0.0607
     11 C          -3.0963    7.1709   -1.7910 C.ar    1  UNL11      -0.0432
     12 C          -2.8702    5.9926   -1.0746 C.ar    1  UNL11       0.1121
     13 C          -3.9261    5.4360   -0.3768 C.2     1  UNL11       0.3368
     14 O          -5.0286    6.0088   -0.4110 O.2     1  UNL11      -0.2416
     15 N          -3.6973    4.2941    0.3088 N.am    1  UNL11      -0.1702
     16 N           1.2921    1.5197    0.1427 N.am    1  UNL11      -0.2985
     17 C           2.5536    2.1870    0.0345 C.3     1  UNL11       0.0304
     18 C           3.6096    1.3412   -0.6323 C.3     1  UNL11       0.0280
     19 N           3.7114   -0.0038   -0.1132 N.pl3   1  UNL11      -0.3269
     20 C           4.6950   -0.9359   -0.5007 C.ar    1  UNL11       0.0299
     21 C           5.9450   -0.4935   -0.9084 C.ar    1  UNL11      -0.0379
     22 C           6.9240   -1.3884   -1.2756 C.ar    1  UNL11      -0.0247
     23 C           6.6471   -2.7584   -1.2334 C.ar    1  UNL11       0.1235
     24 F           7.6448   -3.5888   -1.6141 F       1  UNL11      -0.2055
     25 C           5.4132   -3.1860   -0.8308 C.ar    1  UNL11      -0.0247
     26 C           4.4011   -2.2689   -0.4533 C.ar    1  UNL11      -0.0379
     27 C           2.6617   -0.3513    0.8563 C.3     1  UNL11       0.0280
     28 C           1.3068    0.0584    0.2433 C.3     1  UNL11       0.0304
     29 H          -1.6156    1.5393   -0.7385 H       1  UNL11       0.0364
     30 H          -1.1798    0.5481    0.6543 H       1  UNL11       0.0364
     31 H          -3.2587    1.8783    1.0997 H       1  UNL11       0.0392
     32 H          -1.9479    2.6251    2.0850 H       1  UNL11       0.0392
     33 H           0.3794    5.3979   -1.6945 H       1  UNL11       0.0661
     34 H           0.0789    7.4590   -2.9817 H       1  UNL11       0.0619
     35 H          -2.1187    8.6168   -3.0606 H       1  UNL11       0.0618
     36 H          -4.0590    7.6544   -1.8105 H       1  UNL11       0.0627
     37 H          -4.5296    3.8912    0.8271 H       1  UNL11       0.3013
     38 H           2.9320    2.5837    0.9929 H       1  UNL11       0.0480
     39 H           2.3647    3.0920   -0.6259 H       1  UNL11       0.0480
     40 H           3.3115    1.1988   -1.7134 H       1  UNL11       0.0479
     41 H           4.5600    1.8978   -0.6456 H       1  UNL11       0.0479
     42 H           6.0927    0.5805   -0.9256 H       1  UNL11       0.0637
     43 H           7.8895   -1.0098   -1.5984 H       1  UNL11       0.0647
     44 H           5.2097   -4.2399   -0.8007 H       1  UNL11       0.0647
     45 H           3.4425   -2.6457   -0.1407 H       1  UNL11       0.0637
     46 H           2.7178   -1.4333    1.0192 H       1  UNL11       0.0479
     47 H           2.7364    0.1725    1.8004 H       1  UNL11       0.0479
     48 H           1.2630   -0.3880   -0.7579 H       1  UNL11       0.0480
     49 H           0.4607   -0.2060    0.9051 H       1  UNL11       0.0480
@<TRIPOS>BOND
     1     1     2    2
     2     2     3    1
     3     2    16   am
     4     3     4    1
     5     3    29    1
     6     3    30    1
     7     4     5    1
     8     4    31    1
     9     4    32    1
    10     5     6    2
    11     6     7    1
    12     7     8   ar
    13     8     9   ar
    14     8    33    1
    15     9    10   ar
    16     9    34    1
    17    10    11   ar
    18    10    35    1
    19    11    12   ar
    20    11    36    1
    21    12    13    1
    22    12     7   ar
    23    13    14    2
    24    13    15   am
    25    15     5    1
    26    15    37    1
    27    16    17    1
    28    17    18    1
    29    17    38    1
    30    17    39    1
    31    18    19    1
    32    18    40    1
    33    18    41    1
    34    19    20    1
    35    19    27    1
    36    20    21   ar
    37    21    22   ar
    38    21    42    1
    39    22    23   ar
    40    22    43    1
    41    23    24    1
    42    23    25   ar
    43    25    26   ar
    44    25    44    1
    45    26    20   ar
    46    26    45    1
    47    27    28    1
    48    27    46    1
    49    27    47    1
    50    28    16    1
    51    28    48    1
    52    28    49    1
@<TRIPOS>MOLECULE
*****
 49 52 0 0 0
SMALL
GASTEIGER

@<TRIPOS>ATOM
      1 O           0.1396    3.5198    0.2072 O.2     1  UNL11      -0.2756
      2 C           0.0847    2.2662    0.2280 C.2     1  UNL11       0.2162
      3 C          -1.2238    1.6093    0.3296 C.3     1  UNL11       0.0351
      4 C          -1.4119    0.7325    1.5293 C.3     1  UNL11       0.0594
      5 C          -1.2619    1.5799    2.7747 C.2     1  UNL11       0.2951
      6 N          -2.1171    2.6080    2.9614 N.2     1  UNL11      -0.0454
      7 C          -2.0608    3.3634    4.0712 C.ar    1  UNL11       0.1903
      8 C          -2.9429    4.4009    4.2413 C.ar    1  UNL11      -0.0100
      9 C          -2.8550    5.1461    5.3911 C.ar    1  UNL11      -0.0576
     10 C          -1.9349    4.8997    6.3596 C.ar    1  UNL11      -0.0607
     11 C          -1.0236    3.8485    6.2096 C.ar    1  UNL11      -0.0432
     12 C          -1.1235    3.0975    5.0353 C.ar    1  UNL11       0.1121
     13 C          -0.2429    2.0476    4.8511 C.2     1  UNL11       0.3368
     14 O           0.6027    1.8195    5.7330 O.2     1  UNL11      -0.2416
     15 N          -0.3513    1.3252    3.7140 N.am    1  UNL11      -0.1702
     16 N           1.2921    1.5197    0.1427 N.am    1  UNL11      -0.2985
     17 C           2.5536    2.1870    0.0345 C.3     1  UNL11       0.0304
     18 C           3.6096    1.3412   -0.6323 C.3     1  UNL11       0.0280
     19 N           3.7114   -0.0038   -0.1132 N.pl3   1  UNL11      -0.3269
     20 C           4.6950   -0.9359   -0.5007 C.ar    1  UNL11       0.0299
     21 C           4.4059   -2.2926   -0.4874 C.ar    1  UNL11      -0.0379
     22 C           5.3475   -3.2176   -0.8772 C.ar    1  UNL11      -0.0247
     23 C           6.6081   -2.7757   -1.2909 C.ar    1  UNL11       0.1235
     24 F           7.4946   -3.7310   -1.6536 F       1  UNL11      -0.2055
     25 C           6.8850   -1.4375   -1.3008 C.ar    1  UNL11      -0.0247
     26 C           5.9197   -0.4810   -0.8991 C.ar    1  UNL11      -0.0379
     27 C           2.6617   -0.3513    0.8563 C.3     1  UNL11       0.0280
     28 C           1.3068    0.0584    0.2433 C.3     1  UNL11       0.0304
     29 H          -1.9794    2.4510    0.4705 H       1  UNL11       0.0364
     30 H          -1.5632    1.1170   -0.6063 H       1  UNL11       0.0364
     31 H          -2.4153    0.2752    1.5972 H       1  UNL11       0.0392
     32 H          -0.6437   -0.0525    1.5703 H       1  UNL11       0.0392
     33 H          -3.6841    4.5925    3.4524 H       1  UNL11       0.0661
     34 H          -3.5888    5.9627    5.4794 H       1  UNL11       0.0619
     35 H          -1.9044    5.5203    7.2524 H       1  UNL11       0.0618
     36 H          -0.2847    3.6368    6.9646 H       1  UNL11       0.0627
     37 H           0.3348    0.5242    3.6078 H       1  UNL11       0.3013
     38 H           2.9320    2.5837    0.9929 H       1  UNL11       0.0480
     39 H           2.3647    3.0920   -0.6259 H       1  UNL11       0.0480
     40 H           3.3115    1.1988   -1.7134 H       1  UNL11       0.0479
     41 H           4.5600    1.8978   -0.6456 H       1  UNL11       0.0479
     42 H           3.4136   -2.5694   -0.1494 H       1  UNL11       0.0637
     43 H           5.0930   -4.2731   -0.8471 H       1  UNL11       0.0647
     44 H           7.8553   -1.1072   -1.6209 H       1  UNL11       0.0647
     45 H           6.1762    0.5641   -0.9225 H       1  UNL11       0.0637
     46 H           2.7178   -1.4333    1.0192 H       1  UNL11       0.0479
     47 H           2.7364    0.1725    1.8004 H       1  UNL11       0.0479
     48 H           1.2630   -0.3880   -0.7579 H       1  UNL11       0.0480
     49 H           0.4607   -0.2060    0.9051 H       1  UNL11       0.0480
@<TRIPOS>BOND
     1     1     2    2
     2     2     3    1
     3     2    16   am
     4     3     4    1
     5     3    29    1
     6     3    30    1
     7     4     5    1
     8     4    31    1
     9     4    32    1
    10     5     6    2
    11     6     7    1
    12     7     8   ar
    13     8     9   ar
    14     8    33    1
    15     9    10   ar
    16     9    34    1
    17    10    11   ar
    18    10    35    1
    19    11    12   ar
    20    11    36    1
    21    12    13    1
    22    12     7   ar
    23    13    14    2
    24    13    15   am
    25    15     5    1
    26    15    37    1
    27    16    17    1
    28    17    18    1
    29    17    38    1
    30    17    39    1
    31    18    19    1
    32    18    40    1
    33    18    41    1
    34    19    20    1
    35    19    27    1
    36    20    21   ar
    37    21    22   ar
    38    21    42    1
    39    22    23   ar
    40    22    43    1
    41    23    24    1
    42    23    25   ar
    43    25    26   ar
    44    25    44    1
    45    26    20   ar
    46    26    45    1
    47    27    28    1
    48    27    46    1
    49    27    47    1
    50    28    16    1
    51    28    48    1
    52    28    49    1
@<TRIPOS>MOLECULE
*****
 49 52 0 0 0
SMALL
GASTEIGER

@<TRIPOS>ATOM
      1 O          -1.0052    1.6535    0.3355 O.2     1  UNL11      -0.2756
      2 C           0.0847    2.2662    0.2280 C.2     1  UNL11       0.2162
      3 C           0.0807    3.7337    0.2037 C.3     1  UNL11       0.0351
      4 C           0.6486    4.3580   -1.0337 C.3     1  UNL11       0.0594
      5 C           2.0847    3.9048   -1.1874 C.2     1  UNL11       0.2951
      6 N           2.3329    2.5844   -1.3223 N.2     1  UNL11      -0.0454
      7 C           3.5834    2.1300   -1.5098 C.ar    1  UNL11       0.1903
      8 C           3.8114    0.7838   -1.6483 C.ar    1  UNL11      -0.0100
      9 C           5.1029    0.3605   -1.8425 C.ar    1  UNL11      -0.0576
     10 C           6.1570    1.2154   -1.9012 C.ar    1  UNL11      -0.0607
     11 C           5.9512    2.5924   -1.7617 C.ar    1  UNL11      -0.0432
     12 C           4.6324    3.0106   -1.5648 C.ar    1  UNL11       0.1121
     13 C           4.3870    4.3642   -1.4260 C.2     1  UNL11       0.3368
     14 O           5.3483    5.1505   -1.4762 O.2     1  UNL11      -0.2416
     15 N           3.1076    4.7578   -1.2405 N.am    1  UNL11      -0.1702
     16 N           1.2921    1.5197    0.1427 N.am    1  UNL11      -0.2985
     17 C           2.5536    2.1870    0.0345 C.3     1  UNL11       0.0304
     18 C           3.6096    1.3412   -0.6323 C.3     1  UNL11       0.0280
     19 N           3.7114   -0.0038   -0.1132 N.pl3   1  UNL11      -0.3269
     20 C           4.6950   -0.9359   -0.5007 C.ar    1  UNL11       0.0299
     21 C           4.4059   -2.2926   -0.4874 C.ar    1  UNL11      -0.0379
     22 C           5.3475   -3.2176   -0.8772 C.ar    1  UNL11      -0.0247
     23 C           6.6081   -2.7757   -1.2909 C.ar    1  UNL11       0.1235
     24 F           7.4946   -3.7310   -1.6536 F       1  UNL11      -0.2055
     25 C           6.8850   -1.4375   -1.3008 C.ar    1  UNL11      -0.0247
     26 C           5.9197   -0.4810   -0.8991 C.ar    1  UNL11      -0.0379
     27 C           2.6617   -0.3513    0.8563 C.3     1  UNL11       0.0280
     28 C           1.3068    0.0584    0.2433 C.3     1  UNL11       0.0304
     29 H          -1.0179    4.0373    0.1977 H       1  UNL11       0.0364
     30 H           0.4706    4.2083    1.1290 H       1  UNL11       0.0364
     31 H           0.1371    4.0534   -1.9644 H       1  UNL11       0.0392
     32 H           0.6553    5.4544   -0.9567 H       1  UNL11       0.0392
     33 H           2.9523    0.0997   -1.5998 H       1  UNL11       0.0661
     34 H           5.2295   -0.7281   -1.9521 H       1  UNL11       0.0619
     35 H           7.1626    0.8304   -2.0552 H       1  UNL11       0.0618
     36 H           6.7732    3.2878   -1.8034 H       1  UNL11       0.0627
     37 H           2.9543    5.8022   -1.1442 H       1  UNL11       0.3013
     38 H           2.9320    2.5837    0.9929 H       1  UNL11       0.0480
     39 H           2.3647    3.0920   -0.6259 H       1  UNL11       0.0480
     40 H           3.3115    1.1988   -1.7134 H       1  UNL11       0.0479
     41 H           4.5600    1.8978   -0.6456 H       1  UNL11       0.0479
     42 H           3.4136   -2.5694   -0.1494 H       1  UNL11       0.0637
     43 H           5.0930   -4.2731   -0.8471 H       1  UNL11       0.0647
     44 H           7.8553   -1.1072   -1.6209 H       1  UNL11       0.0647
     45 H           6.1762    0.5641   -0.9225 H       1  UNL11       0.0637
     46 H           2.7178   -1.4333    1.0192 H       1  UNL11       0.0479
     47 H           2.7364    0.1725    1.8004 H       1  UNL11       0.0479
     48 H           1.2630   -0.3880   -0.7579 H       1  UNL11       0.0480
     49 H           0.4607   -0.2060    0.9051 H       1  UNL11       0.0480
@<TRIPOS>BOND
     1     1     2    2
     2     2     3    1
     3     2    16   am
     4     3     4    1
     5     3    29    1
     6     3    30    1
     7     4     5    1
     8     4    31    1
     9     4    32    1
    10     5     6    2
    11     6     7    1
    12     7     8   ar
    13     8     9   ar
    14     8    33    1
    15     9    10   ar
    16     9    34    1
    17    10    11   ar
    18    10    35    1
    19    11    12   ar
    20    11    36    1
    21    12    13    1
    22    12     7   ar
    23    13    14    2
    24    13    15   am
    25    15     5    1
    26    15    37    1
    27    16    17    1
    28    17    18    1
    29    17    38    1
    30    17    39    1
    31    18    19    1
    32    18    40    1
    33    18    41    1
    34    19    20    1
    35    19    27    1
    36    20    21   ar
    37    21    22   ar
    38    21    42    1
    39    22    23   ar
    40    22    43    1
    41    23    24    1
    42    23    25   ar
    43    25    26   ar
    44    25    44    1
    45    26    20   ar
    46    26    45    1
    47    27    28    1
    48    27    46    1
    49    27    47    1
    50    28    16    1
    51    28    48    1
    52    28    49    1
@<TRIPOS>MOLECULE
*****
 49 52 0 0 0
SMALL
GASTEIGER

@<TRIPOS>ATOM
      1 O          -1.0052    1.6535    0.3355 O.2     1  UNL11      -0.2756
      2 C           0.0847    2.2662    0.2280 C.2     1  UNL11       0.2162
      3 C           0.0807    3.7337    0.2037 C.3     1  UNL11       0.0351
      4 C           0.6486    4.3580   -1.0337 C.3     1  UNL11       0.0594
      5 C          -0.1748    3.9092   -2.2221 C.2     1  UNL11       0.2951
      6 N          -1.4884    4.2205   -2.2504 N.2     1  UNL11      -0.0454
      7 C          -2.2565    3.8895   -3.3020 C.ar    1  UNL11       0.1903
      8 C          -3.5885    4.2196   -3.3106 C.ar    1  UNL11      -0.0100
      9 C          -4.3379    3.8671   -4.4057 C.ar    1  UNL11      -0.0576
     10 C          -3.8169    3.2078   -5.4730 C.ar    1  UNL11      -0.0607
     11 C          -2.4620    2.8588   -5.4882 C.ar    1  UNL11      -0.0432
     12 C          -1.7101    3.2233   -4.3681 C.ar    1  UNL11       0.1121
     13 C          -0.3661    2.8993   -4.3462 C.2     1  UNL11       0.3368
     14 O           0.1151    2.2937   -5.3192 O.2     1  UNL11      -0.2416
     15 N           0.3526    3.2605   -3.2602 N.am    1  UNL11      -0.1702
     16 N           1.2921    1.5197    0.1427 N.am    1  UNL11      -0.2985
     17 C           2.5536    2.1870    0.0345 C.3     1  UNL11       0.0304
     18 C           3.6096    1.3412   -0.6323 C.3     1  UNL11       0.0280
     19 N           3.7114   -0.0038   -0.1132 N.pl3   1  UNL11      -0.3269
     20 C           4.6950   -0.9359   -0.5007 C.ar    1  UNL11       0.0299
     21 C           5.9450   -0.4935   -0.9084 C.ar    1  UNL11      -0.0379
     22 C           6.9240   -1.3884   -1.2756 C.ar    1  UNL11      -0.0247
     23 C           6.6471   -2.7584   -1.2334 C.ar    1  UNL11       0.1235
     24 F           7.6448   -3.5888   -1.6141 F       1  UNL11      -0.2055
     25 C           5.4132   -3.1860   -0.8308 C.ar    1  UNL11      -0.0247
     26 C           4.4011   -2.2689   -0.4533 C.ar    1  UNL11      -0.0379
     27 C           2.6617   -0.3513    0.8563 C.3     1  UNL11       0.0280
     28 C           1.3068    0.0584    0.2433 C.3     1  UNL11       0.0304
     29 H          -1.0179    4.0373    0.1977 H       1  UNL11       0.0364
     30 H           0.4706    4.2083    1.1290 H       1  UNL11       0.0364
     31 H           0.6052    5.4619   -1.0390 H       1  UNL11       0.0392
     32 H           1.6826    4.0272   -1.2053 H       1  UNL11       0.0392
     33 H          -4.0011    4.7534   -2.4427 H       1  UNL11       0.0661
     34 H          -5.3989    4.1598   -4.3634 H       1  UNL11       0.0619
     35 H          -4.4529    2.9489   -6.3166 H       1  UNL11       0.0618
     36 H          -2.0289    2.3343   -6.3238 H       1  UNL11       0.0627
     37 H           1.3805    3.0025   -3.2790 H       1  UNL11       0.3013
     38 H           2.9320    2.5837    0.9929 H       1  UNL11       0.0480
     39 H           2.3647    3.0920   -0.6259 H       1  UNL11       0.0480
     40 H           3.3115    1.1988   -1.7134 H       1  UNL11       0.0479
     41 H           4.5600    1.8978   -0.6456 H       1  UNL11       0.0479
     42 H           6.0927    0.5805   -0.9256 H       1  UNL11       0.0637
     43 H           7.8895   -1.0098   -1.5984 H       1  UNL11       0.0647
     44 H           5.2097   -4.2399   -0.8007 H       1  UNL11       0.0647
     45 H           3.4425   -2.6457   -0.1407 H       1  UNL11       0.0637
     46 H           2.7178   -1.4333    1.0192 H       1  UNL11       0.0479
     47 H           2.7364    0.1725    1.8004 H       1  UNL11       0.0479
     48 H           1.2630   -0.3880   -0.7579 H       1  UNL11       0.0480
     49 H           0.4607   -0.2060    0.9051 H       1  UNL11       0.0480
@<TRIPOS>BOND
     1     1     2    2
     2     2     3    1
     3     2    16   am
     4     3     4    1
     5     3    29    1
     6     3    30    1
     7     4     5    1
     8     4    31    1
     9     4    32    1
    10     5     6    2
    11     6     7    1
    12     7     8   ar
    13     8     9   ar
    14     8    33    1
    15     9    10   ar
    16     9    34    1
    17    10    11   ar
    18    10    35    1
    19    11    12   ar
    20    11    36    1
    21    12    13    1
    22    12     7   ar
    23    13    14    2
    24    13    15   am
    25    15     5    1
    26    15    37    1
    27    16    17    1
    28    17    18    1
    29    17    38    1
    30    17    39    1
    31    18    19    1
    32    18    40    1
    33    18    41    1
    34    19    20    1
    35    19    27    1
    36    20    21   ar
    37    21    22   ar
    38    21    42    1
    39    22    23   ar
    40    22    43    1
    41    23    24    1
    42    23    25   ar
    43    25    26   ar
    44    25    44    1
    45    26    20   ar
    46    26    45    1
    47    27    28    1
    48    27    46    1
    49    27    47    1
    50    28    16    1
    51    28    48    1
    52    28    49    1
@<TRIPOS>MOLECULE
*****
 49 52 0 0 0
SMALL
GASTEIGER

@<TRIPOS>ATOM
      1 O           0.1396    3.5198    0.2072 O.2     1  UNL11      -0.2756
      2 C           0.0847    2.2662    0.2280 C.2     1  UNL11       0.2162
      3 C          -1.2238    1.6093    0.3296 C.3     1  UNL11       0.0351
      4 C          -1.5775    0.7009   -0.8075 C.3     1  UNL11       0.0594
      5 C          -2.9542    0.1245   -0.5545 C.2     1  UNL11       0.2951
      6 N          -3.8405    0.8590    0.1513 N.2     1  UNL11      -0.0454
      7 C          -5.0916    0.4179    0.3650 C.ar    1  UNL11       0.1903
      8 C          -5.9767    1.1833    1.0820 C.ar    1  UNL11      -0.0100
      9 C          -7.2468    0.6986    1.2746 C.ar    1  UNL11      -0.0576
     10 C          -7.6587   -0.5009    0.7880 C.ar    1  UNL11      -0.0607
     11 C          -6.7751   -1.3006    0.0547 C.ar    1  UNL11      -0.0432
     12 C          -5.4857   -0.7963   -0.1345 C.ar    1  UNL11       0.1121
     13 C          -4.5837   -1.5553   -0.8569 C.2     1  UNL11       0.3368
     14 O          -4.9547   -2.6549   -1.3021 O.2     1  UNL11      -0.2416
     15 N          -3.3410   -1.0560   -1.0377 N.am    1  UNL11      -0.1702
     16 N           1.2921    1.5197    0.1427 N.am    1  UNL11      -0.2985
     17 C           2.5536    2.1870    0.0345 C.3     1  UNL11       0.0304
     18 C           3.6096    1.3412   -0.6323 C.3     1  UNL11       0.0280
     19 N           3.7114   -0.0038   -0.1132 N.pl3   1  UNL11      -0.3269
     20 C           4.6950   -0.9359   -0.5007 C.ar    1  UNL11       0.0299
     21 C           5.6510   -0.5821   -1.4416 C.ar    1  UNL11      -0.0379
     22 C           6.6292   -1.4725   -1.8215 C.ar    1  UNL11      -0.0247
     23 C           6.6527   -2.7470   -1.2467 C.ar    1  UNL11       0.1235
     24 F           7.6316   -3.5813   -1.6658 F       1  UNL11      -0.2055
     25 C           5.7072   -3.0878   -0.3206 C.ar    1  UNL11      -0.0247
     26 C           4.6970   -2.1754    0.0730 C.ar    1  UNL11      -0.0379
     27 C           2.6617   -0.3513    0.8563 C.3     1  UNL11       0.0280
     28 C           1.3068    0.0584    0.2433 C.3     1  UNL11       0.0304
     29 H          -1.1511    0.9191    1.2338 H       1  UNL11       0.0364
     30 H          -2.0591    2.2909    0.5966 H       1  UNL11       0.0364
     31 H          -1.6414    1.2111   -1.7854 H       1  UNL11       0.0392
     32 H          -0.8747   -0.1415   -0.8746 H       1  UNL11       0.0392
     33 H          -5.6345    2.1526    1.4715 H       1  UNL11       0.0661
     34 H          -7.9176    1.3540    1.8522 H       1  UNL11       0.0619
     35 H          -8.6756   -0.8419    0.9691 H       1  UNL11       0.0618
     36 H          -7.0807   -2.2560   -0.3387 H       1  UNL11       0.0627
     37 H          -2.6770   -1.6603   -1.6012 H       1  UNL11       0.3013
     38 H           2.9320    2.5837    0.9929 H       1  UNL11       0.0480
     39 H           2.3647    3.0920   -0.6259 H       1  UNL11       0.0480
     40 H           3.3115    1.1988   -1.7134 H       1  UNL11       0.0479
     41 H           4.5600    1.8978   -0.6456 H       1  UNL11       0.0479
     42 H           5.5727    0.4177   -1.8540 H       1  UNL11       0.0637
     43 H           7.3579   -1.1679   -2.5671 H       1  UNL11       0.0647
     44 H           5.7335   -4.0684    0.1162 H       1  UNL11       0.0647
     45 H           3.9712   -2.4816    0.8065 H       1  UNL11       0.0637
     46 H           2.7178   -1.4333    1.0192 H       1  UNL11       0.0479
     47 H           2.7364    0.1725    1.8004 H       1  UNL11       0.0479
     48 H           1.2630   -0.3880   -0.7579 H       1  UNL11       0.0480
     49 H           0.4607   -0.2060    0.9051 H       1  UNL11       0.0480
@<TRIPOS>BOND
     1     1     2    2
     2     2     3    1
     3     2    16   am
     4     3     4    1
     5     3    29    1
     6     3    30    1
     7     4     5    1
     8     4    31    1
     9     4    32    1
    10     5     6    2
    11     6     7    1
    12     7     8   ar
    13     8     9   ar
    14     8    33    1
    15     9    10   ar
    16     9    34    1
    17    10    11   ar
    18    10    35    1
    19    11    12   ar
    20    11    36    1
    21    12    13    1
    22    12     7   ar
    23    13    14    2
    24    13    15   am
    25    15     5    1
    26    15    37    1
    27    16    17    1
    28    17    18    1
    29    17    38    1
    30    17    39    1
    31    18    19    1
    32    18    40    1
    33    18    41    1
    34    19    20    1
    35    19    27    1
    36    20    21   ar
    37    21    22   ar
    38    21    42    1
    39    22    23   ar
    40    22    43    1
    41    23    24    1
    42    23    25   ar
    43    25    26   ar
    44    25    44    1
    45    26    20   ar
    46    26    45    1
    47    27    28    1
    48    27    46    1
    49    27    47    1
    50    28    16    1
    51    28    48    1
    52    28    49    1
