@<TRIPOS>MOLECULE
*****
 51 53 0 0 0
SMALL
GASTEIGER

@<TRIPOS>ATOM
      1 O          -1.0960    1.8188   -3.2979 O.2     1  UNL11      -0.2739
      2 C          -0.3693    1.3068   -2.4104 C.2     1  UNL11       0.2334
      3 C          -0.2035    2.0337   -1.1319 C.3     1  UNL11       0.0505
      4 C          -1.3895    2.8497   -0.7981 C.ar    1  UNL11      -0.0386
      5 C          -1.2388    4.0088   -0.0754 C.ar    1  UNL11      -0.0581
      6 C          -2.3015    4.8131    0.2748 C.ar    1  UNL11      -0.0615
      7 C          -3.5671    4.4643   -0.1008 C.ar    1  UNL11      -0.0617
      8 C          -3.7412    3.3030   -0.8282 C.ar    1  UNL11      -0.0615
      9 C          -2.6593    2.4938   -1.1792 C.ar    1  UNL11      -0.0581
     10 N           0.2572    0.0685   -2.6628 N.am    1  UNL11      -0.2339
     11 N           1.0631   -0.5025   -1.6424 N.am    1  UNL11      -0.2304
     12 C           0.7934   -0.2632   -0.2740 C.2     1  UNL11       0.2602
     13 O           1.5393   -0.7779    0.5826 O.2     1  UNL11      -0.2687
     14 C          -0.3365    0.5677    0.1123 C.ar    1  UNL11       0.0400
     15 C          -0.3609    1.3362    1.2508 C.ar    1  UNL11      -0.0495
     16 C          -1.4833    2.1095    1.5482 C.ar    1  UNL11      -0.0592
     17 C          -2.5911    2.1357    0.7337 C.ar    1  UNL11      -0.0353
     18 C          -2.5597    1.3628   -0.4055 C.ar    1  UNL11       0.1062
     19 S          -3.9534    1.3601   -1.4951 S.O2    1  UNL11       0.0609
     20 O          -3.9685   -0.0023   -2.1303 O.2     1  UNL11      -0.1528
     21 O          -5.1997    1.5197   -0.6915 O.2     1  UNL11      -0.1528
     22 N          -3.8362    2.5422   -2.6836 N.3     1  UNL11      -0.1766
     23 C          -3.5171    3.8500   -2.2340 C.3     1  UNL11       0.0205
     24 C          -3.1817    4.8274   -3.2957 C.3     1  UNL11      -0.0385
     25 C          -3.2506    4.2406   -4.6860 C.3     1  UNL11      -0.0506
     26 C          -4.4650    3.3706   -4.9053 C.3     1  UNL11      -0.0385
     27 C          -4.7377    2.4439   -3.7716 C.3     1  UNL11       0.0205
     28 C          -1.4605    0.6090   -0.6918 C.ar    1  UNL11      -0.0232
     29 H          -0.0663    1.2628   -0.3345 H       1  UNL11       0.0407
     30 H           0.7396    2.6346   -1.1516 H       1  UNL11       0.0407
     31 H          -0.2538    4.3100    0.2344 H       1  UNL11       0.0620
     32 H          -2.1434    5.7142    0.8425 H       1  UNL11       0.0618
     33 H          -4.4391    5.0337    0.1332 H       1  UNL11       0.0618
     34 H          -4.7298    3.0106   -1.1367 H       1  UNL11       0.0618
     35 H          -2.7997    1.5743   -1.7555 H       1  UNL11       0.0620
     36 H           0.1417   -0.4234   -3.5618 H       1  UNL11       0.1728
     37 H           1.8328   -1.0878   -1.9567 H       1  UNL11       0.1731
     38 H           0.4958    1.3419    1.9179 H       1  UNL11       0.0625
     39 H          -1.4487    2.6998    2.4642 H       1  UNL11       0.0618
     40 H          -3.4599    2.7360    0.9698 H       1  UNL11       0.0637
     41 H          -4.3601    4.2304   -1.6103 H       1  UNL11       0.0444
     42 H          -2.6590    3.7520   -1.5177 H       1  UNL11       0.0444
     43 H          -3.7857    5.7662   -3.2481 H       1  UNL11       0.0278
     44 H          -2.1248    5.1646   -3.1560 H       1  UNL11       0.0278
     45 H          -3.3562    5.1163   -5.3933 H       1  UNL11       0.0266
     46 H          -2.3175    3.7374   -4.9423 H       1  UNL11       0.0266
     47 H          -4.2765    2.8013   -5.8561 H       1  UNL11       0.0278
     48 H          -5.3487    4.0069   -5.1215 H       1  UNL11       0.0278
     49 H          -4.7531    1.4021   -4.1468 H       1  UNL11       0.0444
     50 H          -5.7653    2.6506   -3.3722 H       1  UNL11       0.0444
     51 H          -1.4548    0.0096   -1.5891 H       1  UNL11       0.0644
@<TRIPOS>BOND
     1     1     2    2
     2     2     3    1
     3     2    10   am
     4     3     4    1
     5     3    29    1
     6     3    30    1
     7     4     5   ar
     8     5     6   ar
     9     5    31    1
    10     6     7   ar
    11     6    32    1
    12     7     8   ar
    13     7    33    1
    14     8     9   ar
    15     8    34    1
    16     9     4   ar
    17     9    35    1
    18    10    11    1
    19    10    36    1
    20    11    12   am
    21    11    37    1
    22    12    13    2
    23    12    14    1
    24    14    15   ar
    25    15    16   ar
    26    15    38    1
    27    16    17   ar
    28    16    39    1
    29    17    18   ar
    30    17    40    1
    31    18    19    1
    32    18    28   ar
    33    19    20    2
    34    19    21    2
    35    19    22    1
    36    22    23    1
    37    23    24    1
    38    23    41    1
    39    23    42    1
    40    24    25    1
    41    24    43    1
    42    24    44    1
    43    25    26    1
    44    25    45    1
    45    25    46    1
    46    26    27    1
    47    26    47    1
    48    26    48    1
    49    27    22    1
    50    27    49    1
    51    27    50    1
    52    28    14   ar
    53    28    51    1
@<TRIPOS>MOLECULE
*****
 51 53 0 0 0
SMALL
GASTEIGER

@<TRIPOS>ATOM
      1 O          -1.0960    1.8188   -3.2979 O.2     1  UNL11      -0.2739
      2 C          -0.3693    1.3068   -2.4104 C.2     1  UNL11       0.2334
      3 C          -0.2035    2.0337   -1.1319 C.3     1  UNL11       0.0505
      4 C           1.1136    1.7773   -0.5129 C.ar    1  UNL11      -0.0386
      5 C           1.2420    1.8068    0.8551 C.ar    1  UNL11      -0.0581
      6 C           2.4406    1.5826    1.4968 C.ar    1  UNL11      -0.0615
      7 C           3.5619    1.3181    0.7638 C.ar    1  UNL11      -0.0617
      8 C           3.4552    1.2836   -0.6129 C.ar    1  UNL11      -0.0615
      9 C           2.2371    1.5115   -1.2555 C.ar    1  UNL11      -0.0581
     10 N           0.2572    0.0685   -2.6628 N.am    1  UNL11      -0.2339
     11 N           1.0631   -0.5025   -1.6424 N.am    1  UNL11      -0.2304
     12 C           0.7934   -0.2632   -0.2740 C.2     1  UNL11       0.2602
     13 O           1.5393   -0.7779    0.5826 O.2     1  UNL11      -0.2687
     14 C          -0.3365    0.5677    0.1123 C.ar    1  UNL11       0.0400
     15 C          -0.3609    1.3362    1.2508 C.ar    1  UNL11      -0.0495
     16 C          -1.4833    2.1095    1.5482 C.ar    1  UNL11      -0.0592
     17 C          -2.5911    2.1357    0.7337 C.ar    1  UNL11      -0.0353
     18 C          -2.5597    1.3628   -0.4055 C.ar    1  UNL11       0.1062
     19 S          -3.9534    1.3601   -1.4951 S.O2    1  UNL11       0.0609
     20 O          -4.5871    2.7152   -1.3459 O.2     1  UNL11      -0.1528
     21 O          -3.4727    1.2163   -2.8997 O.2     1  UNL11      -0.1528
     22 N          -5.0666    0.1638   -1.1038 N.3     1  UNL11      -0.1766
     23 C          -4.5402   -1.1405   -0.9130 C.3     1  UNL11       0.0205
     24 C          -5.4798   -2.1318   -0.3390 C.3     1  UNL11      -0.0385
     25 C          -6.8514   -1.5608   -0.0658 C.3     1  UNL11      -0.0506
     26 C          -7.3660   -0.6871   -1.1846 C.3     1  UNL11      -0.0385
     27 C          -6.3409    0.2541   -1.7155 C.3     1  UNL11       0.0205
     28 C          -1.4605    0.6090   -0.6918 C.ar    1  UNL11      -0.0232
     29 H          -0.2809    3.1241   -1.3649 H       1  UNL11       0.0407
     30 H          -1.0541    1.7998   -0.4444 H       1  UNL11       0.0407
     31 H           0.3762    2.0121    1.4593 H       1  UNL11       0.0620
     32 H           2.5016    1.6146    2.5713 H       1  UNL11       0.0618
     33 H           4.5245    1.1358    1.1875 H       1  UNL11       0.0618
     34 H           4.3258    1.0745   -1.2098 H       1  UNL11       0.0618
     35 H           2.1551    1.4836   -2.3462 H       1  UNL11       0.0620
     36 H           0.1417   -0.4234   -3.5618 H       1  UNL11       0.1728
     37 H           1.8328   -1.0878   -1.9567 H       1  UNL11       0.1731
     38 H           0.4958    1.3419    1.9179 H       1  UNL11       0.0625
     39 H          -1.4487    2.6998    2.4642 H       1  UNL11       0.0618
     40 H          -3.4599    2.7360    0.9698 H       1  UNL11       0.0637
     41 H          -4.1346   -1.5092   -1.8844 H       1  UNL11       0.0444
     42 H          -3.6391   -1.0385   -0.2523 H       1  UNL11       0.0444
     43 H          -5.5700   -3.0668   -0.9439 H       1  UNL11       0.0278
     44 H          -5.0859   -2.4729    0.6503 H       1  UNL11       0.0278
     45 H          -7.5546   -2.4441   -0.0045 H       1  UNL11       0.0266
     46 H          -6.8800   -1.0655    0.9055 H       1  UNL11       0.0266
     47 H          -8.2488   -0.1298   -0.7678 H       1  UNL11       0.0278
     48 H          -7.7827   -1.3213   -1.9950 H       1  UNL11       0.0278
     49 H          -6.7192    1.2915   -1.6318 H       1  UNL11       0.0444
     50 H          -6.1993    0.0573   -2.8107 H       1  UNL11       0.0444
     51 H          -1.4548    0.0096   -1.5891 H       1  UNL11       0.0644
@<TRIPOS>BOND
     1     1     2    2
     2     2     3    1
     3     2    10   am
     4     3     4    1
     5     3    29    1
     6     3    30    1
     7     4     5   ar
     8     5     6   ar
     9     5    31    1
    10     6     7   ar
    11     6    32    1
    12     7     8   ar
    13     7    33    1
    14     8     9   ar
    15     8    34    1
    16     9     4   ar
    17     9    35    1
    18    10    11    1
    19    10    36    1
    20    11    12   am
    21    11    37    1
    22    12    13    2
    23    12    14    1
    24    14    15   ar
    25    15    16   ar
    26    15    38    1
    27    16    17   ar
    28    16    39    1
    29    17    18   ar
    30    17    40    1
    31    18    19    1
    32    18    28   ar
    33    19    20    2
    34    19    21    2
    35    19    22    1
    36    22    23    1
    37    23    24    1
    38    23    41    1
    39    23    42    1
    40    24    25    1
    41    24    43    1
    42    24    44    1
    43    25    26    1
    44    25    45    1
    45    25    46    1
    46    26    27    1
    47    26    47    1
    48    26    48    1
    49    27    22    1
    50    27    49    1
    51    27    50    1
    52    28    14   ar
    53    28    51    1
@<TRIPOS>MOLECULE
*****
 51 53 0 0 0
SMALL
GASTEIGER

@<TRIPOS>ATOM
      1 O          -0.1984    1.8655   -1.2984 O.2     1  UNL11      -0.2739
      2 C          -0.3693    1.3068   -2.4104 C.2     1  UNL11       0.2334
      3 C          -1.2275    1.9801   -3.4108 C.3     1  UNL11       0.0505
      4 C          -2.2796    2.8023   -2.7779 C.ar    1  UNL11      -0.0386
      5 C          -2.7802    2.4427   -1.5496 C.ar    1  UNL11      -0.0581
      6 C          -3.7648    3.1604   -0.9060 C.ar    1  UNL11      -0.0615
      7 C          -4.2806    4.2797   -1.4939 C.ar    1  UNL11      -0.0617
      8 C          -3.7916    4.6593   -2.7287 C.ar    1  UNL11      -0.0615
      9 C          -2.7937    3.9270   -3.3740 C.ar    1  UNL11      -0.0581
     10 N           0.2572    0.0685   -2.6628 N.am    1  UNL11      -0.2339
     11 N           1.0631   -0.5025   -1.6424 N.am    1  UNL11      -0.2304
     12 C           0.7934   -0.2632   -0.2740 C.2     1  UNL11       0.2602
     13 O           1.5393   -0.7779    0.5826 O.2     1  UNL11      -0.2687
     14 C          -0.3365    0.5677    0.1123 C.ar    1  UNL11       0.0400
     15 C          -0.3609    1.3362    1.2508 C.ar    1  UNL11      -0.0495
     16 C          -1.4833    2.1095    1.5482 C.ar    1  UNL11      -0.0592
     17 C          -2.5911    2.1357    0.7337 C.ar    1  UNL11      -0.0353
     18 C          -2.5597    1.3628   -0.4055 C.ar    1  UNL11       0.1062
     19 S          -3.9534    1.3601   -1.4951 S.O2    1  UNL11       0.0609
     20 O          -3.4364    1.8590   -2.8156 O.2     1  UNL11      -0.1528
     21 O          -4.4286   -0.0423   -1.6740 O.2     1  UNL11      -0.1528
     22 N          -5.1896    2.3603   -0.9520 N.3     1  UNL11      -0.1766
     23 C          -6.1576    1.7550   -0.1089 C.3     1  UNL11       0.0205
     24 C          -7.1000    2.6860    0.5545 C.3     1  UNL11      -0.0385
     25 C          -6.8551    4.1332    0.1970 C.3     1  UNL11      -0.0506
     26 C          -6.5927    4.3466   -1.2745 C.3     1  UNL11      -0.0385
     27 C          -5.6578    3.3440   -1.8572 C.3     1  UNL11       0.0205
     28 C          -1.4605    0.6090   -0.6918 C.ar    1  UNL11      -0.0232
     29 H          -0.5642    2.6508   -4.0101 H       1  UNL11       0.0407
     30 H          -1.6427    1.2289   -4.1279 H       1  UNL11       0.0407
     31 H          -2.3933    1.5659   -1.0613 H       1  UNL11       0.0620
     32 H          -4.1320    2.8465    0.0562 H       1  UNL11       0.0618
     33 H          -5.0443    4.8858   -1.0596 H       1  UNL11       0.0618
     34 H          -4.1822    5.5396   -3.2088 H       1  UNL11       0.0618
     35 H          -2.4079    4.2297   -4.3521 H       1  UNL11       0.0620
     36 H           0.1417   -0.4234   -3.5618 H       1  UNL11       0.1728
     37 H           1.8328   -1.0878   -1.9567 H       1  UNL11       0.1731
     38 H           0.4958    1.3419    1.9179 H       1  UNL11       0.0625
     39 H          -1.4487    2.6998    2.4642 H       1  UNL11       0.0618
     40 H          -3.4599    2.7360    0.9698 H       1  UNL11       0.0637
     41 H          -6.7183    0.9911   -0.6975 H       1  UNL11       0.0444
     42 H          -5.5982    1.1615    0.6618 H       1  UNL11       0.0444
     43 H          -8.1748    2.4295    0.3893 H       1  UNL11       0.0278
     44 H          -6.9599    2.6145    1.6615 H       1  UNL11       0.0278
     45 H          -7.8151    4.6828    0.4307 H       1  UNL11       0.0266
     46 H          -6.0806    4.5649    0.8321 H       1  UNL11       0.0266
     47 H          -6.1809    5.3878   -1.3728 H       1  UNL11       0.0278
     48 H          -7.5545    4.3641   -1.8287 H       1  UNL11       0.0278
     49 H          -4.7955    3.8695   -2.3118 H       1  UNL11       0.0444
     50 H          -6.1766    2.8065   -2.6939 H       1  UNL11       0.0444
     51 H          -1.4548    0.0096   -1.5891 H       1  UNL11       0.0644
@<TRIPOS>BOND
     1     1     2    2
     2     2     3    1
     3     2    10   am
     4     3     4    1
     5     3    29    1
     6     3    30    1
     7     4     5   ar
     8     5     6   ar
     9     5    31    1
    10     6     7   ar
    11     6    32    1
    12     7     8   ar
    13     7    33    1
    14     8     9   ar
    15     8    34    1
    16     9     4   ar
    17     9    35    1
    18    10    11    1
    19    10    36    1
    20    11    12   am
    21    11    37    1
    22    12    13    2
    23    12    14    1
    24    14    15   ar
    25    15    16   ar
    26    15    38    1
    27    16    17   ar
    28    16    39    1
    29    17    18   ar
    30    17    40    1
    31    18    19    1
    32    18    28   ar
    33    19    20    2
    34    19    21    2
    35    19    22    1
    36    22    23    1
    37    23    24    1
    38    23    41    1
    39    23    42    1
    40    24    25    1
    41    24    43    1
    42    24    44    1
    43    25    26    1
    44    25    45    1
    45    25    46    1
    46    26    27    1
    47    26    47    1
    48    26    48    1
    49    27    22    1
    50    27    49    1
    51    27    50    1
    52    28    14   ar
    53    28    51    1
@<TRIPOS>MOLECULE
*****
 51 53 0 0 0
SMALL
GASTEIGER

@<TRIPOS>ATOM
      1 O          -1.3693   -1.7073   -4.2725 O.2     1  UNL11      -0.2739
      2 C          -0.3803   -1.7497   -3.4992 C.2     1  UNL11       0.2334
      3 C           0.7552   -2.6288   -3.8578 C.3     1  UNL11       0.0505
      4 C           2.0146   -1.8728   -4.0192 C.ar    1  UNL11      -0.0386
      5 C           2.2169   -0.7217   -3.2962 C.ar    1  UNL11      -0.0581
      6 C           3.3643    0.0339   -3.4024 C.ar    1  UNL11      -0.0615
      7 C           4.3561   -0.3573   -4.2556 C.ar    1  UNL11      -0.0617
      8 C           4.1734   -1.5116   -4.9919 C.ar    1  UNL11      -0.0615
      9 C           3.0081   -2.2718   -4.8784 C.ar    1  UNL11      -0.0581
     10 N          -0.3882   -0.9652   -2.3270 N.am    1  UNL11      -0.2339
     11 N           0.7448   -1.0145   -1.4721 N.am    1  UNL11      -0.2304
     12 C           0.7934   -0.2632   -0.2740 C.2     1  UNL11       0.2602
     13 O           1.8170   -0.3317    0.4350 O.2     1  UNL11      -0.2687
     14 C          -0.3365    0.5677    0.1123 C.ar    1  UNL11       0.0400
     15 C          -0.3609    1.3362    1.2508 C.ar    1  UNL11      -0.0495
     16 C          -1.4833    2.1095    1.5482 C.ar    1  UNL11      -0.0592
     17 C          -2.5911    2.1357    0.7337 C.ar    1  UNL11      -0.0353
     18 C          -2.5597    1.3628   -0.4055 C.ar    1  UNL11       0.1062
     19 S          -3.9534    1.3601   -1.4951 S.O2    1  UNL11       0.0609
     20 O          -5.1127    0.8768   -0.6690 O.2     1  UNL11      -0.1528
     21 O          -4.2344    2.7591   -1.9293 O.2     1  UNL11      -0.1528
     22 N          -3.7299    0.3433   -2.8141 N.3     1  UNL11      -0.1766
     23 C          -2.7802    0.7712   -3.7783 C.3     1  UNL11       0.0205
     24 C          -2.4148   -0.2322   -4.8053 C.3     1  UNL11      -0.0385
     25 C          -3.1407   -1.5462   -4.6362 C.3     1  UNL11      -0.0506
     26 C          -4.6084   -1.3794   -4.3235 C.3     1  UNL11      -0.0385
     27 C          -4.8771   -0.3281   -3.3030 C.3     1  UNL11       0.0205
     28 C          -1.4605    0.6090   -0.6918 C.ar    1  UNL11      -0.0232
     29 H           0.8817   -3.3559   -3.0185 H       1  UNL11       0.0407
     30 H           0.4998   -3.2360   -4.7617 H       1  UNL11       0.0407
     31 H           1.4537   -0.3884   -2.6156 H       1  UNL11       0.0620
     32 H           3.4861    0.9308   -2.8193 H       1  UNL11       0.0618
     33 H           5.2711    0.1747   -4.3936 H       1  UNL11       0.0618
     34 H           4.9432   -1.8396   -5.6684 H       1  UNL11       0.0618
     35 H           2.8657   -3.1859   -5.4627 H       1  UNL11       0.0620
     36 H          -1.1899   -0.3642   -2.0832 H       1  UNL11       0.1728
     37 H           1.5051   -1.6188   -1.7732 H       1  UNL11       0.1731
     38 H           0.4958    1.3419    1.9179 H       1  UNL11       0.0625
     39 H          -1.4487    2.6998    2.4642 H       1  UNL11       0.0618
     40 H          -3.4599    2.7360    0.9698 H       1  UNL11       0.0637
     41 H          -3.1567    1.7022   -4.2637 H       1  UNL11       0.0444
     42 H          -1.8648    1.0967   -3.2171 H       1  UNL11       0.0444
     43 H          -2.5325    0.1357   -5.8536 H       1  UNL11       0.0278
     44 H          -1.3260   -0.4677   -4.7096 H       1  UNL11       0.0278
     45 H          -3.0874   -2.0675   -5.6380 H       1  UNL11       0.0266
     46 H          -2.6251   -2.1857   -3.9187 H       1  UNL11       0.0266
     47 H          -4.9717   -2.3840   -3.9738 H       1  UNL11       0.0278
     48 H          -5.1714   -1.1797   -5.2593 H       1  UNL11       0.0278
     49 H          -5.4339   -0.7747   -2.4563 H       1  UNL11       0.0444
     50 H          -5.5521    0.4483   -3.7500 H       1  UNL11       0.0444
     51 H          -1.4548    0.0096   -1.5891 H       1  UNL11       0.0644
@<TRIPOS>BOND
     1     1     2    2
     2     2     3    1
     3     2    10   am
     4     3     4    1
     5     3    29    1
     6     3    30    1
     7     4     5   ar
     8     5     6   ar
     9     5    31    1
    10     6     7   ar
    11     6    32    1
    12     7     8   ar
    13     7    33    1
    14     8     9   ar
    15     8    34    1
    16     9     4   ar
    17     9    35    1
    18    10    11    1
    19    10    36    1
    20    11    12   am
    21    11    37    1
    22    12    13    2
    23    12    14    1
    24    14    15   ar
    25    15    16   ar
    26    15    38    1
    27    16    17   ar
    28    16    39    1
    29    17    18   ar
    30    17    40    1
    31    18    19    1
    32    18    28   ar
    33    19    20    2
    34    19    21    2
    35    19    22    1
    36    22    23    1
    37    23    24    1
    38    23    41    1
    39    23    42    1
    40    24    25    1
    41    24    43    1
    42    24    44    1
    43    25    26    1
    44    25    45    1
    45    25    46    1
    46    26    27    1
    47    26    47    1
    48    26    48    1
    49    27    22    1
    50    27    49    1
    51    27    50    1
    52    28    14   ar
    53    28    51    1
@<TRIPOS>MOLECULE
*****
 51 53 0 0 0
SMALL
GASTEIGER

@<TRIPOS>ATOM
      1 O           0.4923    2.2717   -0.0538 O.2     1  UNL11      -0.2739
      2 C           1.4663    2.3660    0.7338 C.2     1  UNL11       0.2334
      3 C           1.6392    3.6263    1.4903 C.3     1  UNL11       0.0505
      4 C           1.5966    3.4086    2.9512 C.ar    1  UNL11      -0.0386
      5 C           1.7267    4.4779    3.8046 C.ar    1  UNL11      -0.0581
      6 C           1.7018    4.3452    5.1759 C.ar    1  UNL11      -0.0615
      7 C           1.5423    3.1091    5.7338 C.ar    1  UNL11      -0.0617
      8 C           1.4095    2.0204    4.8942 C.ar    1  UNL11      -0.0615
      9 C           1.4355    2.1632    3.5058 C.ar    1  UNL11      -0.0581
     10 N           2.3525    1.2767    0.8670 N.am    1  UNL11      -0.2339
     11 N           2.1070    0.1070    0.1000 N.am    1  UNL11      -0.2304
     12 C           0.7934   -0.2632   -0.2740 C.2     1  UNL11       0.2602
     13 O           0.6308   -1.3069   -0.9368 O.2     1  UNL11      -0.2687
     14 C          -0.3365    0.5677    0.1123 C.ar    1  UNL11       0.0400
     15 C          -0.3609    1.3362    1.2508 C.ar    1  UNL11      -0.0495
     16 C          -1.4833    2.1095    1.5482 C.ar    1  UNL11      -0.0592
     17 C          -2.5911    2.1357    0.7337 C.ar    1  UNL11      -0.0353
     18 C          -2.5597    1.3628   -0.4055 C.ar    1  UNL11       0.1062
     19 S          -3.9534    1.3601   -1.4951 S.O2    1  UNL11       0.0609
     20 O          -5.1127    0.8768   -0.6690 O.2     1  UNL11      -0.1528
     21 O          -4.2344    2.7591   -1.9293 O.2     1  UNL11      -0.1528
     22 N          -3.7299    0.3433   -2.8141 N.3     1  UNL11      -0.1766
     23 C          -4.1657   -0.9974   -2.6498 C.3     1  UNL11       0.0205
     24 C          -4.1871   -1.8187   -3.8827 C.3     1  UNL11      -0.0385
     25 C          -3.7248   -1.0640   -5.1068 C.3     1  UNL11      -0.0506
     26 C          -2.4967   -0.2215   -4.8581 C.3     1  UNL11      -0.0385
     27 C          -2.5560    0.5430   -3.5812 C.3     1  UNL11       0.0205
     28 C          -1.4605    0.6090   -0.6918 C.ar    1  UNL11      -0.0232
     29 H           2.6447    4.0327    1.2203 H       1  UNL11       0.0407
     30 H           0.8928    4.3853    1.1471 H       1  UNL11       0.0407
     31 H           1.8533    5.4642    3.3947 H       1  UNL11       0.0620
     32 H           1.8075    5.2074    5.8122 H       1  UNL11       0.0618
     33 H           1.5144    2.9262    6.7850 H       1  UNL11       0.0618
     34 H           1.2803    1.0375    5.3125 H       1  UNL11       0.0618
     35 H           1.3300    1.2992    2.8427 H       1  UNL11       0.0620
     36 H           3.1645    1.3139    1.5015 H       1  UNL11       0.1728
     37 H           2.9263   -0.4361   -0.1603 H       1  UNL11       0.1731
     38 H           0.4958    1.3419    1.9179 H       1  UNL11       0.0625
     39 H          -1.4487    2.6998    2.4642 H       1  UNL11       0.0618
     40 H          -3.4599    2.7360    0.9698 H       1  UNL11       0.0637
     41 H          -3.5355   -1.4863   -1.8700 H       1  UNL11       0.0444
     42 H          -5.1919   -0.9571   -2.1978 H       1  UNL11       0.0444
     43 H          -3.6231   -2.7789   -3.7917 H       1  UNL11       0.0278
     44 H          -5.2406   -2.1292   -4.0922 H       1  UNL11       0.0278
     45 H          -3.4239   -1.8466   -5.8653 H       1  UNL11       0.0266
     46 H          -4.5457   -0.4962   -5.5466 H       1  UNL11       0.0266
     47 H          -2.4062    0.4704   -5.7394 H       1  UNL11       0.0278
     48 H          -1.5891   -0.8596   -4.8989 H       1  UNL11       0.0278
     49 H          -2.4328    1.6225   -3.7955 H       1  UNL11       0.0444
     50 H          -1.6847    0.2473   -2.9397 H       1  UNL11       0.0444
     51 H          -1.4548    0.0096   -1.5891 H       1  UNL11       0.0644
@<TRIPOS>BOND
     1     1     2    2
     2     2     3    1
     3     2    10   am
     4     3     4    1
     5     3    29    1
     6     3    30    1
     7     4     5   ar
     8     5     6   ar
     9     5    31    1
    10     6     7   ar
    11     6    32    1
    12     7     8   ar
    13     7    33    1
    14     8     9   ar
    15     8    34    1
    16     9     4   ar
    17     9    35    1
    18    10    11    1
    19    10    36    1
    20    11    12   am
    21    11    37    1
    22    12    13    2
    23    12    14    1
    24    14    15   ar
    25    15    16   ar
    26    15    38    1
    27    16    17   ar
    28    16    39    1
    29    17    18   ar
    30    17    40    1
    31    18    19    1
    32    18    28   ar
    33    19    20    2
    34    19    21    2
    35    19    22    1
    36    22    23    1
    37    23    24    1
    38    23    41    1
    39    23    42    1
    40    24    25    1
    41    24    43    1
    42    24    44    1
    43    25    26    1
    44    25    45    1
    45    25    46    1
    46    26    27    1
    47    26    47    1
    48    26    48    1
    49    27    22    1
    50    27    49    1
    51    27    50    1
    52    28    14   ar
    53    28    51    1
@<TRIPOS>MOLECULE
*****
 51 53 0 0 0
SMALL
GASTEIGER

@<TRIPOS>ATOM
      1 O          -1.7413   -0.5530   -0.5112 O.2     1  UNL11      -0.2739
      2 C          -1.6530   -0.7197   -1.7531 C.2     1  UNL11       0.2334
      3 C          -2.8910   -0.6504   -2.5614 C.3     1  UNL11       0.0505
      4 C          -4.0797   -1.0807   -1.7963 C.ar    1  UNL11      -0.0386
      5 C          -3.9457   -2.0101   -0.7929 C.ar    1  UNL11      -0.0581
      6 C          -5.0122   -2.4592   -0.0448 C.ar    1  UNL11      -0.0615
      7 C          -6.2647   -1.9751   -0.2927 C.ar    1  UNL11      -0.0617
      8 C          -6.4219   -1.0398   -1.2969 C.ar    1  UNL11      -0.0615
      9 C          -5.3363   -0.5896   -2.0501 C.ar    1  UNL11      -0.0581
     10 N          -0.3882   -0.9652   -2.3270 N.am    1  UNL11      -0.2339
     11 N           0.7448   -1.0145   -1.4721 N.am    1  UNL11      -0.2304
     12 C           0.7934   -0.2632   -0.2740 C.2     1  UNL11       0.2602
     13 O           1.8170   -0.3317    0.4350 O.2     1  UNL11      -0.2687
     14 C          -0.3365    0.5677    0.1123 C.ar    1  UNL11       0.0400
     15 C          -0.3609    1.3362    1.2508 C.ar    1  UNL11      -0.0495
     16 C          -1.4833    2.1095    1.5482 C.ar    1  UNL11      -0.0592
     17 C          -2.5911    2.1357    0.7337 C.ar    1  UNL11      -0.0353
     18 C          -2.5597    1.3628   -0.4055 C.ar    1  UNL11       0.1062
     19 S          -3.9534    1.3601   -1.4951 S.O2    1  UNL11       0.0609
     20 O          -3.9685   -0.0023   -2.1303 O.2     1  UNL11      -0.1528
     21 O          -5.1997    1.5197   -0.6915 O.2     1  UNL11      -0.1528
     22 N          -3.8362    2.5422   -2.6836 N.3     1  UNL11      -0.1766
     23 C          -3.2011    2.1522   -3.8915 C.3     1  UNL11       0.0205
     24 C          -3.3132    3.1141   -5.0127 C.3     1  UNL11      -0.0385
     25 C          -4.0908    4.3580   -4.6521 C.3     1  UNL11      -0.0506
     26 C          -3.7275    4.9150   -3.2965 C.3     1  UNL11      -0.0385
     27 C          -3.6088    3.8689   -2.2429 C.3     1  UNL11       0.0205
     28 C          -1.4605    0.6090   -0.6918 C.ar    1  UNL11      -0.0232
     29 H          -3.0266    0.4186   -2.8581 H       1  UNL11       0.0407
     30 H          -2.7611   -1.2247   -3.5122 H       1  UNL11       0.0407
     31 H          -2.9713   -2.4095   -0.5740 H       1  UNL11       0.0620
     32 H          -4.8674   -3.1892    0.7333 H       1  UNL11       0.0618
     33 H          -7.1386   -2.2747    0.2419 H       1  UNL11       0.0618
     34 H          -7.3998   -0.6431   -1.5073 H       1  UNL11       0.0618
     35 H          -5.4633    0.1514   -2.8451 H       1  UNL11       0.0620
     36 H          -0.2727   -1.1085   -3.3417 H       1  UNL11       0.1728
     37 H           1.5051   -1.6188   -1.7732 H       1  UNL11       0.1731
     38 H           0.4958    1.3419    1.9179 H       1  UNL11       0.0625
     39 H          -1.4487    2.6998    2.4642 H       1  UNL11       0.0618
     40 H          -3.4599    2.7360    0.9698 H       1  UNL11       0.0637
     41 H          -2.1290    1.9305   -3.6776 H       1  UNL11       0.0444
     42 H          -3.6390    1.1630   -4.1894 H       1  UNL11       0.0444
     43 H          -2.3297    3.3965   -5.4614 H       1  UNL11       0.0278
     44 H          -3.8764    2.6308   -5.8490 H       1  UNL11       0.0278
     45 H          -3.7951    5.1453   -5.4078 H       1  UNL11       0.0266
     46 H          -5.1627    4.1940   -4.7689 H       1  UNL11       0.0266
     47 H          -4.5284    5.6600   -3.0377 H       1  UNL11       0.0278
     48 H          -2.7941    5.5111   -3.3734 H       1  UNL11       0.0278
     49 H          -4.3011    4.1070   -1.4120 H       1  UNL11       0.0444
     50 H          -2.5741    3.9036   -1.8112 H       1  UNL11       0.0444
     51 H          -1.4548    0.0096   -1.5891 H       1  UNL11       0.0644
@<TRIPOS>BOND
     1     1     2    2
     2     2     3    1
     3     2    10   am
     4     3     4    1
     5     3    29    1
     6     3    30    1
     7     4     5   ar
     8     5     6   ar
     9     5    31    1
    10     6     7   ar
    11     6    32    1
    12     7     8   ar
    13     7    33    1
    14     8     9   ar
    15     8    34    1
    16     9     4   ar
    17     9    35    1
    18    10    11    1
    19    10    36    1
    20    11    12   am
    21    11    37    1
    22    12    13    2
    23    12    14    1
    24    14    15   ar
    25    15    16   ar
    26    15    38    1
    27    16    17   ar
    28    16    39    1
    29    17    18   ar
    30    17    40    1
    31    18    19    1
    32    18    28   ar
    33    19    20    2
    34    19    21    2
    35    19    22    1
    36    22    23    1
    37    23    24    1
    38    23    41    1
    39    23    42    1
    40    24    25    1
    41    24    43    1
    42    24    44    1
    43    25    26    1
    44    25    45    1
    45    25    46    1
    46    26    27    1
    47    26    47    1
    48    26    48    1
    49    27    22    1
    50    27    49    1
    51    27    50    1
    52    28    14   ar
    53    28    51    1
@<TRIPOS>MOLECULE
*****
 51 53 0 0 0
SMALL
GASTEIGER

@<TRIPOS>ATOM
      1 O          -2.6668   -0.6861   -2.4940 O.2     1  UNL11      -0.2739
      2 C          -1.6530   -0.7197   -1.7531 C.2     1  UNL11       0.2334
      3 C          -1.8358   -0.4977   -0.3012 C.3     1  UNL11       0.0505
      4 C          -1.3856   -1.6553    0.4995 C.ar    1  UNL11      -0.0386
      5 C          -0.3701   -2.4546    0.0324 C.ar    1  UNL11      -0.0581
      6 C           0.0942   -3.5519    0.7246 C.ar    1  UNL11      -0.0615
      7 C          -0.4629   -3.8787    1.9277 C.ar    1  UNL11      -0.0617
      8 C          -1.4850   -3.0884    2.4161 C.ar    1  UNL11      -0.0615
      9 C          -1.9495   -1.9782    1.7088 C.ar    1  UNL11      -0.0581
     10 N          -0.3882   -0.9652   -2.3270 N.am    1  UNL11      -0.2339
     11 N           0.7448   -1.0145   -1.4721 N.am    1  UNL11      -0.2304
     12 C           0.7934   -0.2632   -0.2740 C.2     1  UNL11       0.2602
     13 O           1.8170   -0.3317    0.4350 O.2     1  UNL11      -0.2687
     14 C          -0.3365    0.5677    0.1123 C.ar    1  UNL11       0.0400
     15 C          -0.3609    1.3362    1.2508 C.ar    1  UNL11      -0.0495
     16 C          -1.4833    2.1095    1.5482 C.ar    1  UNL11      -0.0592
     17 C          -2.5911    2.1357    0.7337 C.ar    1  UNL11      -0.0353
     18 C          -2.5597    1.3628   -0.4055 C.ar    1  UNL11       0.1062
     19 S          -3.9534    1.3601   -1.4951 S.O2    1  UNL11       0.0609
     20 O          -3.5938    0.4189   -2.6108 O.2     1  UNL11      -0.1528
     21 O          -5.1348    0.8058   -0.7728 O.2     1  UNL11      -0.1528
     22 N          -4.2783    2.8862   -2.1189 N.3     1  UNL11      -0.1766
     23 C          -4.7995    3.8370   -1.2030 C.3     1  UNL11       0.0205
     24 C          -4.8575    5.2334   -1.6944 C.3     1  UNL11      -0.0385
     25 C          -4.3485    5.3868   -3.1084 C.3     1  UNL11      -0.0506
     26 C          -4.8417    4.3050   -4.0391 C.3     1  UNL11      -0.0385
     27 C          -4.7723    2.9407   -3.4452 C.3     1  UNL11       0.0205
     28 C          -1.4605    0.6090   -0.6918 C.ar    1  UNL11      -0.0232
     29 H          -1.2131    0.3887   -0.0265 H       1  UNL11       0.0407
     30 H          -2.8961   -0.2135   -0.0870 H       1  UNL11       0.0407
     31 H           0.0887   -2.2221   -0.9123 H       1  UNL11       0.0620
     32 H           0.8919   -4.1547    0.3254 H       1  UNL11       0.0618
     33 H          -0.1591   -4.7124    2.5210 H       1  UNL11       0.0618
     34 H          -1.9365   -3.3264    3.3634 H       1  UNL11       0.0618
     35 H          -2.7594   -1.3536    2.0977 H       1  UNL11       0.0620
     36 H          -0.2727   -1.1085   -3.3417 H       1  UNL11       0.1728
     37 H           1.5051   -1.6188   -1.7732 H       1  UNL11       0.1731
     38 H           0.4958    1.3419    1.9179 H       1  UNL11       0.0625
     39 H          -1.4487    2.6998    2.4642 H       1  UNL11       0.0618
     40 H          -3.4599    2.7360    0.9698 H       1  UNL11       0.0637
     41 H          -5.8107    3.5005   -0.8734 H       1  UNL11       0.0444
     42 H          -4.1688    3.7821   -0.2766 H       1  UNL11       0.0444
     43 H          -5.8682    5.7003   -1.6007 H       1  UNL11       0.0278
     44 H          -4.1933    5.8688   -1.0577 H       1  UNL11       0.0278
     45 H          -4.7789    6.3581   -3.4953 H       1  UNL11       0.0266
     46 H          -3.2632    5.4941   -3.1216 H       1  UNL11       0.0266
     47 H          -4.2093    4.3748   -4.9658 H       1  UNL11       0.0278
     48 H          -5.8729    4.5410   -4.3762 H       1  UNL11       0.0278
     49 H          -4.1575    2.2896   -4.0965 H       1  UNL11       0.0444
     50 H          -5.8018    2.4957   -3.4356 H       1  UNL11       0.0444
     51 H          -1.4548    0.0096   -1.5891 H       1  UNL11       0.0644
@<TRIPOS>BOND
     1     1     2    2
     2     2     3    1
     3     2    10   am
     4     3     4    1
     5     3    29    1
     6     3    30    1
     7     4     5   ar
     8     5     6   ar
     9     5    31    1
    10     6     7   ar
    11     6    32    1
    12     7     8   ar
    13     7    33    1
    14     8     9   ar
    15     8    34    1
    16     9     4   ar
    17     9    35    1
    18    10    11    1
    19    10    36    1
    20    11    12   am
    21    11    37    1
    22    12    13    2
    23    12    14    1
    24    14    15   ar
    25    15    16   ar
    26    15    38    1
    27    16    17   ar
    28    16    39    1
    29    17    18   ar
    30    17    40    1
    31    18    19    1
    32    18    28   ar
    33    19    20    2
    34    19    21    2
    35    19    22    1
    36    22    23    1
    37    23    24    1
    38    23    41    1
    39    23    42    1
    40    24    25    1
    41    24    43    1
    42    24    44    1
    43    25    26    1
    44    25    45    1
    45    25    46    1
    46    26    27    1
    47    26    47    1
    48    26    48    1
    49    27    22    1
    50    27    49    1
    51    27    50    1
    52    28    14   ar
    53    28    51    1
@<TRIPOS>MOLECULE
*****
 51 53 0 0 0
SMALL
GASTEIGER

@<TRIPOS>ATOM
      1 O           3.8882   -2.4007   -1.9869 O.2     1  UNL11      -0.2739
      2 C           2.9216   -1.6822   -1.6297 C.2     1  UNL11       0.2334
      3 C           3.1493   -0.2291   -1.4644 C.3     1  UNL11       0.0505
      4 C           2.8919    0.5198   -2.7120 C.ar    1  UNL11      -0.0386
      5 C           1.9635    0.0508   -3.6102 C.ar    1  UNL11      -0.0581
      6 C           1.6789    0.6958   -4.7941 C.ar    1  UNL11      -0.0615
      7 C           2.3342    1.8513   -5.1101 C.ar    1  UNL11      -0.0617
      8 C           3.2714    2.3406   -4.2212 C.ar    1  UNL11      -0.0615
      9 C           3.5538    1.6813   -3.0236 C.ar    1  UNL11      -0.0581
     10 N           1.6655   -2.2815   -1.4008 N.am    1  UNL11      -0.2339
     11 N           0.5806   -1.4517   -1.0120 N.am    1  UNL11      -0.2304
     12 C           0.7934   -0.2632   -0.2740 C.2     1  UNL11       0.2602
     13 O           1.9605    0.0496    0.0347 O.2     1  UNL11      -0.2687
     14 C          -0.3365    0.5677    0.1123 C.ar    1  UNL11       0.0400
     15 C          -0.3609    1.3362    1.2508 C.ar    1  UNL11      -0.0495
     16 C          -1.4833    2.1095    1.5482 C.ar    1  UNL11      -0.0592
     17 C          -2.5911    2.1357    0.7337 C.ar    1  UNL11      -0.0353
     18 C          -2.5597    1.3628   -0.4055 C.ar    1  UNL11       0.1062
     19 S          -3.9534    1.3601   -1.4951 S.O2    1  UNL11       0.0609
     20 O          -3.4364    1.8590   -2.8156 O.2     1  UNL11      -0.1528
     21 O          -4.4286   -0.0423   -1.6740 O.2     1  UNL11      -0.1528
     22 N          -5.1896    2.3603   -0.9520 N.3     1  UNL11      -0.1766
     23 C          -4.9402    3.7558   -1.0229 C.3     1  UNL11       0.0205
     24 C          -6.1108    4.6284   -0.7713 C.3     1  UNL11      -0.0385
     25 C          -7.3740    3.8556   -0.4729 C.3     1  UNL11      -0.0506
     26 C          -7.1555    2.7010    0.4751 C.3     1  UNL11      -0.0385
     27 C          -5.9389    1.9019    0.1590 C.3     1  UNL11       0.0205
     28 C          -1.4605    0.6090   -0.6918 C.ar    1  UNL11      -0.0232
     29 H           2.4339    0.1256   -0.6824 H       1  UNL11       0.0407
     30 H           4.1745   -0.0453   -1.0567 H       1  UNL11       0.0407
     31 H           1.4308   -0.8570   -3.3887 H       1  UNL11       0.0620
     32 H           0.9447    0.2968   -5.4731 H       1  UNL11       0.0618
     33 H           2.1700    2.4063   -6.0069 H       1  UNL11       0.0618
     34 H           3.7977    3.2511   -4.4491 H       1  UNL11       0.0618
     35 H           4.2967    2.0709   -2.3209 H       1  UNL11       0.0620
     36 H           1.5221   -3.2969   -1.5099 H       1  UNL11       0.1728
     37 H          -0.3442   -1.7631   -1.2978 H       1  UNL11       0.1731
     38 H           0.4958    1.3419    1.9179 H       1  UNL11       0.0625
     39 H          -1.4487    2.6998    2.4642 H       1  UNL11       0.0618
     40 H          -3.4599    2.7360    0.9698 H       1  UNL11       0.0637
     41 H          -4.1114    4.0080   -0.3202 H       1  UNL11       0.0444
     42 H          -4.5185    3.9637   -2.0416 H       1  UNL11       0.0444
     43 H          -5.9365    5.3946    0.0230 H       1  UNL11       0.0278
     44 H          -6.3241    5.2223   -1.6943 H       1  UNL11       0.0278
     45 H          -8.0662    4.5749    0.0579 H       1  UNL11       0.0266
     46 H          -7.8743    3.5573   -1.3951 H       1  UNL11       0.0266
     47 H          -8.0818    2.0667    0.4171 H       1  UNL11       0.0278
     48 H          -7.1271    3.0737    1.5205 H       1  UNL11       0.0278
     49 H          -6.2273    0.8445    0.0004 H       1  UNL11       0.0444
     50 H          -5.2558    1.9125    1.0486 H       1  UNL11       0.0444
     51 H          -1.4548    0.0096   -1.5891 H       1  UNL11       0.0644
@<TRIPOS>BOND
     1     1     2    2
     2     2     3    1
     3     2    10   am
     4     3     4    1
     5     3    29    1
     6     3    30    1
     7     4     5   ar
     8     5     6   ar
     9     5    31    1
    10     6     7   ar
    11     6    32    1
    12     7     8   ar
    13     7    33    1
    14     8     9   ar
    15     8    34    1
    16     9     4   ar
    17     9    35    1
    18    10    11    1
    19    10    36    1
    20    11    12   am
    21    11    37    1
    22    12    13    2
    23    12    14    1
    24    14    15   ar
    25    15    16   ar
    26    15    38    1
    27    16    17   ar
    28    16    39    1
    29    17    18   ar
    30    17    40    1
    31    18    19    1
    32    18    28   ar
    33    19    20    2
    34    19    21    2
    35    19    22    1
    36    22    23    1
    37    23    24    1
    38    23    41    1
    39    23    42    1
    40    24    25    1
    41    24    43    1
    42    24    44    1
    43    25    26    1
    44    25    45    1
    45    25    46    1
    46    26    27    1
    47    26    47    1
    48    26    48    1
    49    27    22    1
    50    27    49    1
    51    27    50    1
    52    28    14   ar
    53    28    51    1
@<TRIPOS>MOLECULE
*****
 51 53 0 0 0
SMALL
GASTEIGER

@<TRIPOS>ATOM
      1 O          -1.6019   -0.8113    0.4521 O.2     1  UNL11      -0.2739
      2 C          -1.8144   -1.4800   -0.5898 C.2     1  UNL11       0.2334
      3 C          -3.2101   -1.8497   -0.9152 C.3     1  UNL11       0.0505
      4 C          -4.0421   -2.0025    0.2964 C.ar    1  UNL11      -0.0386
      5 C          -3.7532   -1.2657    1.4199 C.ar    1  UNL11      -0.0581
      6 C          -4.4837   -1.3633    2.5843 C.ar    1  UNL11      -0.0615
      7 C          -5.5438   -2.2215    2.6485 C.ar    1  UNL11      -0.0617
      8 C          -5.8519   -2.9716    1.5303 C.ar    1  UNL11      -0.0615
      9 C          -5.1071   -2.8668    0.3544 C.ar    1  UNL11      -0.0581
     10 N          -0.7244   -1.8514   -1.4043 N.am    1  UNL11      -0.2339
     11 N           0.5806   -1.4517   -1.0120 N.am    1  UNL11      -0.2304
     12 C           0.7934   -0.2632   -0.2740 C.2     1  UNL11       0.2602
     13 O           1.9605    0.0496    0.0347 O.2     1  UNL11      -0.2687
     14 C          -0.3365    0.5677    0.1123 C.ar    1  UNL11       0.0400
     15 C          -0.3609    1.3362    1.2508 C.ar    1  UNL11      -0.0495
     16 C          -1.4833    2.1095    1.5482 C.ar    1  UNL11      -0.0592
     17 C          -2.5911    2.1357    0.7337 C.ar    1  UNL11      -0.0353
     18 C          -2.5597    1.3628   -0.4055 C.ar    1  UNL11       0.1062
     19 S          -3.9534    1.3601   -1.4951 S.O2    1  UNL11       0.0609
     20 O          -4.9587    2.2865   -0.8696 O.2     1  UNL11      -0.1528
     21 O          -3.5431    1.9288   -2.8115 O.2     1  UNL11      -0.1528
     22 N          -4.6219   -0.1714   -1.6719 N.3     1  UNL11      -0.1766
     23 C          -5.3079   -0.6874   -0.5416 C.3     1  UNL11       0.0205
     24 C          -6.0928   -1.9215   -0.7781 C.3     1  UNL11      -0.0385
     25 C          -6.0088   -2.4143   -2.2036 C.3     1  UNL11      -0.0506
     26 C          -4.6096   -2.3656   -2.7688 C.3     1  UNL11      -0.0385
     27 C          -3.8910   -1.0997   -2.4530 C.3     1  UNL11       0.0205
     28 C          -1.4605    0.6090   -0.6918 C.ar    1  UNL11      -0.0232
     29 H          -3.6311   -1.0193   -1.5335 H       1  UNL11       0.0407
     30 H          -3.2245   -2.7608   -1.5638 H       1  UNL11       0.0407
     31 H          -2.9241   -0.5808    1.3996 H       1  UNL11       0.0620
     32 H          -4.2259   -0.7694    3.4446 H       1  UNL11       0.0618
     33 H          -6.1553   -2.3534    3.5134 H       1  UNL11       0.0618
     34 H          -6.6849   -3.6523    1.5582 H       1  UNL11       0.0618
     35 H          -5.3531   -3.4620   -0.5301 H       1  UNL11       0.0620
     36 H          -0.8558   -2.4011   -2.2669 H       1  UNL11       0.1728
     37 H           1.3391   -2.0690   -1.2905 H       1  UNL11       0.1731
     38 H           0.4958    1.3419    1.9179 H       1  UNL11       0.0625
     39 H          -1.4487    2.6998    2.4642 H       1  UNL11       0.0618
     40 H          -3.4599    2.7360    0.9698 H       1  UNL11       0.0637
     41 H          -4.5724   -0.8484    0.2815 H       1  UNL11       0.0444
     42 H          -5.9795    0.1280   -0.1633 H       1  UNL11       0.0444
     43 H          -5.8459   -2.7521   -0.0728 H       1  UNL11       0.0278
     44 H          -7.1735   -1.7042   -0.5907 H       1  UNL11       0.0278
     45 H          -6.3025   -3.5059   -2.1780 H       1  UNL11       0.0266
     46 H          -6.7383   -1.9051   -2.8346 H       1  UNL11       0.0266
     47 H          -4.7139   -2.5047   -3.8793 H       1  UNL11       0.0278
     48 H          -4.0333   -3.2485   -2.4212 H       1  UNL11       0.0278
     49 H          -3.5689   -0.6173   -3.3964 H       1  UNL11       0.0444
     50 H          -2.9535   -1.3450   -1.8881 H       1  UNL11       0.0444
     51 H          -1.4548    0.0096   -1.5891 H       1  UNL11       0.0644
@<TRIPOS>BOND
     1     1     2    2
     2     2     3    1
     3     2    10   am
     4     3     4    1
     5     3    29    1
     6     3    30    1
     7     4     5   ar
     8     5     6   ar
     9     5    31    1
    10     6     7   ar
    11     6    32    1
    12     7     8   ar
    13     7    33    1
    14     8     9   ar
    15     8    34    1
    16     9     4   ar
    17     9    35    1
    18    10    11    1
    19    10    36    1
    20    11    12   am
    21    11    37    1
    22    12    13    2
    23    12    14    1
    24    14    15   ar
    25    15    16   ar
    26    15    38    1
    27    16    17   ar
    28    16    39    1
    29    17    18   ar
    30    17    40    1
    31    18    19    1
    32    18    28   ar
    33    19    20    2
    34    19    21    2
    35    19    22    1
    36    22    23    1
    37    23    24    1
    38    23    41    1
    39    23    42    1
    40    24    25    1
    41    24    43    1
    42    24    44    1
    43    25    26    1
    44    25    45    1
    45    25    46    1
    46    26    27    1
    47    26    47    1
    48    26    48    1
    49    27    22    1
    50    27    49    1
    51    27    50    1
    52    28    14   ar
    53    28    51    1
@<TRIPOS>MOLECULE
*****
 51 53 0 0 0
SMALL
GASTEIGER

@<TRIPOS>ATOM
      1 O           4.3652   -2.1190   -1.1944 O.2     1  UNL11      -0.2739
      2 C           3.3898   -1.3995   -0.8645 C.2     1  UNL11       0.2334
      3 C           2.9606   -0.3290   -1.7922 C.3     1  UNL11       0.0505
      4 C           2.3732    0.8236   -1.0779 C.ar    1  UNL11      -0.0386
      5 C           1.0767    1.1984   -1.3370 C.ar    1  UNL11      -0.0581
      6 C           0.4695    2.2657   -0.7117 C.ar    1  UNL11      -0.0615
      7 C           1.1654    2.9969    0.2078 C.ar    1  UNL11      -0.0617
      8 C           2.4702    2.6373    0.4836 C.ar    1  UNL11      -0.0615
      9 C           3.0781    1.5545   -0.1540 C.ar    1  UNL11      -0.0581
     10 N           2.7449   -1.6357    0.3675 N.am    1  UNL11      -0.2339
     11 N           1.6347   -0.8222    0.7171 N.am    1  UNL11      -0.2304
     12 C           0.7934   -0.2632   -0.2740 C.2     1  UNL11       0.2602
     13 O           1.0431   -0.4969   -1.4732 O.2     1  UNL11      -0.2687
     14 C          -0.3365    0.5677    0.1123 C.ar    1  UNL11       0.0400
     15 C          -0.3609    1.3362    1.2508 C.ar    1  UNL11      -0.0495
     16 C          -1.4833    2.1095    1.5482 C.ar    1  UNL11      -0.0592
     17 C          -2.5911    2.1357    0.7337 C.ar    1  UNL11      -0.0353
     18 C          -2.5597    1.3628   -0.4055 C.ar    1  UNL11       0.1062
     19 S          -3.9534    1.3601   -1.4951 S.O2    1  UNL11       0.0609
     20 O          -4.5871    2.7152   -1.3459 O.2     1  UNL11      -0.1528
     21 O          -3.4727    1.2163   -2.8997 O.2     1  UNL11      -0.1528
     22 N          -5.0666    0.1638   -1.1038 N.3     1  UNL11      -0.1766
     23 C          -4.6643   -1.1724   -1.3635 C.3     1  UNL11       0.0205
     24 C          -5.5416   -2.2254   -0.8009 C.3     1  UNL11      -0.0385
     25 C          -6.7276   -1.6701   -0.0479 C.3     1  UNL11      -0.0506
     26 C          -7.3975   -0.5184   -0.7582 C.3     1  UNL11      -0.0385
     27 C          -6.4331    0.4709   -1.3148 C.3     1  UNL11       0.0205
     28 C          -1.4605    0.6090   -0.6918 C.ar    1  UNL11      -0.0232
     29 H           3.8741    0.0169   -2.3351 H       1  UNL11       0.0407
     30 H           2.2743   -0.7475   -2.5698 H       1  UNL11       0.0407
     31 H           0.5030    0.6412   -2.0563 H       1  UNL11       0.0620
     32 H          -0.5488    2.5291   -0.9418 H       1  UNL11       0.0618
     33 H           0.7651    3.8363    0.7318 H       1  UNL11       0.0618
     34 H           3.0362    3.1983    1.2067 H       1  UNL11       0.0618
     35 H           4.1119    1.2715    0.0661 H       1  UNL11       0.0620
     36 H           3.0599   -2.3785    1.0097 H       1  UNL11       0.1728
     37 H           1.4861   -0.6734    1.7119 H       1  UNL11       0.1731
     38 H           0.4958    1.3419    1.9179 H       1  UNL11       0.0625
     39 H          -1.4487    2.6998    2.4642 H       1  UNL11       0.0618
     40 H          -3.4599    2.7360    0.9698 H       1  UNL11       0.0637
     41 H          -4.5566   -1.3066   -2.4656 H       1  UNL11       0.0444
     42 H          -3.6224   -1.2864   -0.9629 H       1  UNL11       0.0444
     43 H          -5.8861   -2.9730   -1.5563 H       1  UNL11       0.0278
     44 H          -4.9580   -2.8235   -0.0580 H       1  UNL11       0.0278
     45 H          -7.4914   -2.5026   -0.0038 H       1  UNL11       0.0266
     46 H          -6.4580   -1.4331    0.9821 H       1  UNL11       0.0266
     47 H          -8.0793   -0.0379   -0.0047 H       1  UNL11       0.0278
     48 H          -8.0719   -0.9067   -1.5500 H       1  UNL11       0.0278
     49 H          -6.6561    1.4726   -0.8985 H       1  UNL11       0.0444
     50 H          -6.5899    0.5476   -2.4228 H       1  UNL11       0.0444
     51 H          -1.4548    0.0096   -1.5891 H       1  UNL11       0.0644
@<TRIPOS>BOND
     1     1     2    2
     2     2     3    1
     3     2    10   am
     4     3     4    1
     5     3    29    1
     6     3    30    1
     7     4     5   ar
     8     5     6   ar
     9     5    31    1
    10     6     7   ar
    11     6    32    1
    12     7     8   ar
    13     7    33    1
    14     8     9   ar
    15     8    34    1
    16     9     4   ar
    17     9    35    1
    18    10    11    1
    19    10    36    1
    20    11    12   am
    21    11    37    1
    22    12    13    2
    23    12    14    1
    24    14    15   ar
    25    15    16   ar
    26    15    38    1
    27    16    17   ar
    28    16    39    1
    29    17    18   ar
    30    17    40    1
    31    18    19    1
    32    18    28   ar
    33    19    20    2
    34    19    21    2
    35    19    22    1
    36    22    23    1
    37    23    24    1
    38    23    41    1
    39    23    42    1
    40    24    25    1
    41    24    43    1
    42    24    44    1
    43    25    26    1
    44    25    45    1
    45    25    46    1
    46    26    27    1
    47    26    47    1
    48    26    48    1
    49    27    22    1
    50    27    49    1
    51    27    50    1
    52    28    14   ar
    53    28    51    1
@<TRIPOS>MOLECULE
*****
 51 53 0 0 0
SMALL
GASTEIGER

@<TRIPOS>ATOM
      1 O          -0.1984    1.8655   -1.2984 O.2     1  UNL11      -0.2739
      2 C          -0.3693    1.3068   -2.4104 C.2     1  UNL11       0.2334
      3 C          -1.2275    1.9801   -3.4108 C.3     1  UNL11       0.0505
      4 C          -2.2796    2.8023   -2.7779 C.ar    1  UNL11      -0.0386
      5 C          -2.7802    2.4427   -1.5496 C.ar    1  UNL11      -0.0581
      6 C          -3.7648    3.1604   -0.9060 C.ar    1  UNL11      -0.0615
      7 C          -4.2806    4.2797   -1.4939 C.ar    1  UNL11      -0.0617
      8 C          -3.7916    4.6593   -2.7287 C.ar    1  UNL11      -0.0615
      9 C          -2.7937    3.9270   -3.3740 C.ar    1  UNL11      -0.0581
     10 N           0.2572    0.0685   -2.6628 N.am    1  UNL11      -0.2339
     11 N           1.0631   -0.5025   -1.6424 N.am    1  UNL11      -0.2304
     12 C           0.7934   -0.2632   -0.2740 C.2     1  UNL11       0.2602
     13 O           1.5393   -0.7779    0.5826 O.2     1  UNL11      -0.2687
     14 C          -0.3365    0.5677    0.1123 C.ar    1  UNL11       0.0400
     15 C          -0.3609    1.3362    1.2508 C.ar    1  UNL11      -0.0495
     16 C          -1.4833    2.1095    1.5482 C.ar    1  UNL11      -0.0592
     17 C          -2.5911    2.1357    0.7337 C.ar    1  UNL11      -0.0353
     18 C          -2.5597    1.3628   -0.4055 C.ar    1  UNL11       0.1062
     19 S          -3.9534    1.3601   -1.4951 S.O2    1  UNL11       0.0609
     20 O          -5.1127    0.8768   -0.6690 O.2     1  UNL11      -0.1528
     21 O          -4.2344    2.7591   -1.9293 O.2     1  UNL11      -0.1528
     22 N          -3.7299    0.3433   -2.8141 N.3     1  UNL11      -0.1766
     23 C          -4.1657   -0.9974   -2.6498 C.3     1  UNL11       0.0205
     24 C          -4.1871   -1.8187   -3.8827 C.3     1  UNL11      -0.0385
     25 C          -3.7248   -1.0640   -5.1068 C.3     1  UNL11      -0.0506
     26 C          -2.4967   -0.2215   -4.8581 C.3     1  UNL11      -0.0385
     27 C          -2.5560    0.5430   -3.5812 C.3     1  UNL11       0.0205
     28 C          -1.4605    0.6090   -0.6918 C.ar    1  UNL11      -0.0232
     29 H          -0.5642    2.6508   -4.0101 H       1  UNL11       0.0407
     30 H          -1.6427    1.2289   -4.1279 H       1  UNL11       0.0407
     31 H          -2.3933    1.5659   -1.0613 H       1  UNL11       0.0620
     32 H          -4.1320    2.8465    0.0562 H       1  UNL11       0.0618
     33 H          -5.0443    4.8858   -1.0596 H       1  UNL11       0.0618
     34 H          -4.1822    5.5396   -3.2088 H       1  UNL11       0.0618
     35 H          -2.4079    4.2297   -4.3521 H       1  UNL11       0.0620
     36 H           0.1417   -0.4234   -3.5618 H       1  UNL11       0.1728
     37 H           1.8328   -1.0878   -1.9567 H       1  UNL11       0.1731
     38 H           0.4958    1.3419    1.9179 H       1  UNL11       0.0625
     39 H          -1.4487    2.6998    2.4642 H       1  UNL11       0.0618
     40 H          -3.4599    2.7360    0.9698 H       1  UNL11       0.0637
     41 H          -3.5355   -1.4863   -1.8700 H       1  UNL11       0.0444
     42 H          -5.1919   -0.9571   -2.1978 H       1  UNL11       0.0444
     43 H          -3.6231   -2.7789   -3.7917 H       1  UNL11       0.0278
     44 H          -5.2406   -2.1292   -4.0922 H       1  UNL11       0.0278
     45 H          -3.4239   -1.8466   -5.8653 H       1  UNL11       0.0266
     46 H          -4.5457   -0.4962   -5.5466 H       1  UNL11       0.0266
     47 H          -2.4062    0.4704   -5.7394 H       1  UNL11       0.0278
     48 H          -1.5891   -0.8596   -4.8989 H       1  UNL11       0.0278
     49 H          -2.4328    1.6225   -3.7955 H       1  UNL11       0.0444
     50 H          -1.6847    0.2473   -2.9397 H       1  UNL11       0.0444
     51 H          -1.4548    0.0096   -1.5891 H       1  UNL11       0.0644
@<TRIPOS>BOND
     1     1     2    2
     2     2     3    1
     3     2    10   am
     4     3     4    1
     5     3    29    1
     6     3    30    1
     7     4     5   ar
     8     5     6   ar
     9     5    31    1
    10     6     7   ar
    11     6    32    1
    12     7     8   ar
    13     7    33    1
    14     8     9   ar
    15     8    34    1
    16     9     4   ar
    17     9    35    1
    18    10    11    1
    19    10    36    1
    20    11    12   am
    21    11    37    1
    22    12    13    2
    23    12    14    1
    24    14    15   ar
    25    15    16   ar
    26    15    38    1
    27    16    17   ar
    28    16    39    1
    29    17    18   ar
    30    17    40    1
    31    18    19    1
    32    18    28   ar
    33    19    20    2
    34    19    21    2
    35    19    22    1
    36    22    23    1
    37    23    24    1
    38    23    41    1
    39    23    42    1
    40    24    25    1
    41    24    43    1
    42    24    44    1
    43    25    26    1
    44    25    45    1
    45    25    46    1
    46    26    27    1
    47    26    47    1
    48    26    48    1
    49    27    22    1
    50    27    49    1
    51    27    50    1
    52    28    14   ar
    53    28    51    1
@<TRIPOS>MOLECULE
*****
 51 53 0 0 0
SMALL
GASTEIGER

@<TRIPOS>ATOM
      1 O           3.7447   -1.7421   -3.6581 O.2     1  UNL11      -0.2739
      2 C           2.7828   -1.0283   -3.2798 C.2     1  UNL11       0.2334
      3 C           2.3471    0.0843   -4.1532 C.3     1  UNL11       0.0505
      4 C           3.4319    1.0577   -4.3970 C.ar    1  UNL11      -0.0386
      5 C           3.8605    1.2943   -5.6811 C.ar    1  UNL11      -0.0581
      6 C           4.8702    2.1836   -5.9786 C.ar    1  UNL11      -0.0615
      7 C           5.4859    2.8704   -4.9717 C.ar    1  UNL11      -0.0617
      8 C           5.0704    2.6478   -3.6734 C.ar    1  UNL11      -0.0615
      9 C           4.0466    1.7454   -3.3803 C.ar    1  UNL11      -0.0581
     10 N           2.1586   -1.3106   -2.0469 N.am    1  UNL11      -0.2339
     11 N           1.0631   -0.5025   -1.6424 N.am    1  UNL11      -0.2304
     12 C           0.7934   -0.2632   -0.2740 C.2     1  UNL11       0.2602
     13 O           1.5393   -0.7779    0.5826 O.2     1  UNL11      -0.2687
     14 C          -0.3365    0.5677    0.1123 C.ar    1  UNL11       0.0400
     15 C          -0.3609    1.3362    1.2508 C.ar    1  UNL11      -0.0495
     16 C          -1.4833    2.1095    1.5482 C.ar    1  UNL11      -0.0592
     17 C          -2.5911    2.1357    0.7337 C.ar    1  UNL11      -0.0353
     18 C          -2.5597    1.3628   -0.4055 C.ar    1  UNL11       0.1062
     19 S          -3.9534    1.3601   -1.4951 S.O2    1  UNL11       0.0609
     20 O          -3.9685   -0.0023   -2.1303 O.2     1  UNL11      -0.1528
     21 O          -5.1997    1.5197   -0.6915 O.2     1  UNL11      -0.1528
     22 N          -3.8362    2.5422   -2.6836 N.3     1  UNL11      -0.1766
     23 C          -2.6082    2.5941   -3.3934 C.3     1  UNL11       0.0205
     24 C          -2.5970    3.4691   -4.5889 C.3     1  UNL11      -0.0385
     25 C          -3.9174    4.1622   -4.8298 C.3     1  UNL11      -0.0506
     26 C          -4.5353    4.7200   -3.5701 C.3     1  UNL11      -0.0385
     27 C          -4.4716    3.7796   -2.4168 C.3     1  UNL11       0.0205
     28 C          -1.4605    0.6090   -0.6918 C.ar    1  UNL11      -0.0232
     29 H           2.0479   -0.3672   -5.1308 H       1  UNL11       0.0407
     30 H           1.4267    0.5627   -3.7349 H       1  UNL11       0.0407
     31 H           3.3943    0.7686   -6.4954 H       1  UNL11       0.0620
     32 H           5.1788    2.3418   -6.9979 H       1  UNL11       0.0618
     33 H           6.2749    3.5734   -5.1222 H       1  UNL11       0.0618
     34 H           5.5402    3.1802   -2.8648 H       1  UNL11       0.0618
     35 H           3.7191    1.5708   -2.3509 H       1  UNL11       0.0620
     36 H           2.4780   -2.0828   -1.4426 H       1  UNL11       0.1728
     37 H           0.4966   -0.1115   -2.3908 H       1  UNL11       0.1731
     38 H           0.4958    1.3419    1.9179 H       1  UNL11       0.0625
     39 H          -1.4487    2.6998    2.4642 H       1  UNL11       0.0618
     40 H          -3.4599    2.7360    0.9698 H       1  UNL11       0.0637
     41 H          -1.7982    2.8934   -2.6873 H       1  UNL11       0.0444
     42 H          -2.3520    1.5416   -3.6859 H       1  UNL11       0.0444
     43 H          -1.7681    4.2183   -4.5886 H       1  UNL11       0.0278
     44 H          -2.4092    2.8412   -5.4949 H       1  UNL11       0.0278
     45 H          -3.6917    5.0502   -5.4922 H       1  UNL11       0.0266
     46 H          -4.5991    3.5176   -5.3861 H       1  UNL11       0.0266
     47 H          -5.6000    4.9725   -3.8272 H       1  UNL11       0.0278
     48 H          -4.0619    5.6922   -3.3184 H       1  UNL11       0.0278
     49 H          -5.4959    3.5959   -2.0381 H       1  UNL11       0.0444
     50 H          -3.9086    4.2692   -1.5792 H       1  UNL11       0.0444
     51 H          -1.4548    0.0096   -1.5891 H       1  UNL11       0.0644
@<TRIPOS>BOND
     1     1     2    2
     2     2     3    1
     3     2    10   am
     4     3     4    1
     5     3    29    1
     6     3    30    1
     7     4     5   ar
     8     5     6   ar
     9     5    31    1
    10     6     7   ar
    11     6    32    1
    12     7     8   ar
    13     7    33    1
    14     8     9   ar
    15     8    34    1
    16     9     4   ar
    17     9    35    1
    18    10    11    1
    19    10    36    1
    20    11    12   am
    21    11    37    1
    22    12    13    2
    23    12    14    1
    24    14    15   ar
    25    15    16   ar
    26    15    38    1
    27    16    17   ar
    28    16    39    1
    29    17    18   ar
    30    17    40    1
    31    18    19    1
    32    18    28   ar
    33    19    20    2
    34    19    21    2
    35    19    22    1
    36    22    23    1
    37    23    24    1
    38    23    41    1
    39    23    42    1
    40    24    25    1
    41    24    43    1
    42    24    44    1
    43    25    26    1
    44    25    45    1
    45    25    46    1
    46    26    27    1
    47    26    47    1
    48    26    48    1
    49    27    22    1
    50    27    49    1
    51    27    50    1
    52    28    14   ar
    53    28    51    1
@<TRIPOS>MOLECULE
*****
 51 53 0 0 0
SMALL
GASTEIGER

@<TRIPOS>ATOM
      1 O           4.4050    1.5123   -0.1479 O.2     1  UNL11      -0.2739
      2 C           3.5743    1.9569    0.6829 C.2     1  UNL11       0.2334
      3 C           3.9206    3.1835    1.4355 C.3     1  UNL11       0.0505
      4 C           5.3783    3.3201    1.6360 C.ar    1  UNL11      -0.0386
      5 C           6.1634    2.1956    1.7237 C.ar    1  UNL11      -0.0581
      6 C           7.5268    2.2508    1.9158 C.ar    1  UNL11      -0.0615
      7 C           8.1463    3.4626    2.0269 C.ar    1  UNL11      -0.0617
      8 C           7.3759    4.6058    1.9415 C.ar    1  UNL11      -0.0615
      9 C           5.9952    4.5415    1.7465 C.ar    1  UNL11      -0.0581
     10 N           2.3525    1.2767    0.8670 N.am    1  UNL11      -0.2339
     11 N           2.1070    0.1070    0.1000 N.am    1  UNL11      -0.2304
     12 C           0.7934   -0.2632   -0.2740 C.2     1  UNL11       0.2602
     13 O           0.6308   -1.3069   -0.9368 O.2     1  UNL11      -0.2687
     14 C          -0.3365    0.5677    0.1123 C.ar    1  UNL11       0.0400
     15 C          -0.3609    1.3362    1.2508 C.ar    1  UNL11      -0.0495
     16 C          -1.4833    2.1095    1.5482 C.ar    1  UNL11      -0.0592
     17 C          -2.5911    2.1357    0.7337 C.ar    1  UNL11      -0.0353
     18 C          -2.5597    1.3628   -0.4055 C.ar    1  UNL11       0.1062
     19 S          -3.9534    1.3601   -1.4951 S.O2    1  UNL11       0.0609
     20 O          -3.9685   -0.0023   -2.1303 O.2     1  UNL11      -0.1528
     21 O          -5.1997    1.5197   -0.6915 O.2     1  UNL11      -0.1528
     22 N          -3.8362    2.5422   -2.6836 N.3     1  UNL11      -0.1766
     23 C          -2.8553    2.3244   -3.6861 C.3     1  UNL11       0.0205
     24 C          -2.9182    3.2370   -4.8515 C.3     1  UNL11      -0.0385
     25 C          -4.0309    4.2536   -4.7500 C.3     1  UNL11      -0.0506
     26 C          -4.1470    4.8742   -3.3785 C.3     1  UNL11      -0.0385
     27 C          -4.0417    3.8819   -2.2726 C.3     1  UNL11       0.0205
     28 C          -1.4605    0.6090   -0.6918 C.ar    1  UNL11      -0.0232
     29 H           3.5623    4.0503    0.8279 H       1  UNL11       0.0407
     30 H           3.3497    3.2180    2.3966 H       1  UNL11       0.0407
     31 H           5.7040    1.2267    1.6394 H       1  UNL11       0.0620
     32 H           8.1085    1.3470    1.9799 H       1  UNL11       0.0618
     33 H           9.1957    3.5865    2.1779 H       1  UNL11       0.0618
     34 H           7.8440    5.5713    2.0239 H       1  UNL11       0.0618
     35 H           5.3870    5.4486    1.6791 H       1  UNL11       0.0620
     36 H           1.6444    1.6080    1.5396 H       1  UNL11       0.1728
     37 H           2.9263   -0.4361   -0.1603 H       1  UNL11       0.1731
     38 H           0.4958    1.3419    1.9179 H       1  UNL11       0.0625
     39 H          -1.4487    2.6998    2.4642 H       1  UNL11       0.0618
     40 H          -3.4599    2.7360    0.9698 H       1  UNL11       0.0637
     41 H          -1.8452    2.3677   -3.2148 H       1  UNL11       0.0444
     42 H          -2.9620    1.2604   -4.0258 H       1  UNL11       0.0444
     43 H          -1.9510    3.7516   -5.0708 H       1  UNL11       0.0278
     44 H          -3.1327    2.6365   -5.7699 H       1  UNL11       0.0278
     45 H          -3.7566    5.0933   -5.4557 H       1  UNL11       0.0266
     46 H          -4.9731    3.8356   -5.1066 H       1  UNL11       0.0266
     47 H          -5.1393    5.4017   -3.3548 H       1  UNL11       0.0278
     48 H          -3.3906    5.6790   -3.2653 H       1  UNL11       0.0278
     49 H          -4.9498    3.9406   -1.6415 H       1  UNL11       0.0444
     50 H          -3.1798    4.1636   -1.6123 H       1  UNL11       0.0444
     51 H          -1.4548    0.0096   -1.5891 H       1  UNL11       0.0644
@<TRIPOS>BOND
     1     1     2    2
     2     2     3    1
     3     2    10   am
     4     3     4    1
     5     3    29    1
     6     3    30    1
     7     4     5   ar
     8     5     6   ar
     9     5    31    1
    10     6     7   ar
    11     6    32    1
    12     7     8   ar
    13     7    33    1
    14     8     9   ar
    15     8    34    1
    16     9     4   ar
    17     9    35    1
    18    10    11    1
    19    10    36    1
    20    11    12   am
    21    11    37    1
    22    12    13    2
    23    12    14    1
    24    14    15   ar
    25    15    16   ar
    26    15    38    1
    27    16    17   ar
    28    16    39    1
    29    17    18   ar
    30    17    40    1
    31    18    19    1
    32    18    28   ar
    33    19    20    2
    34    19    21    2
    35    19    22    1
    36    22    23    1
    37    23    24    1
    38    23    41    1
    39    23    42    1
    40    24    25    1
    41    24    43    1
    42    24    44    1
    43    25    26    1
    44    25    45    1
    45    25    46    1
    46    26    27    1
    47    26    47    1
    48    26    48    1
    49    27    22    1
    50    27    49    1
    51    27    50    1
    52    28    14   ar
    53    28    51    1
@<TRIPOS>MOLECULE
*****
 51 53 0 0 0
SMALL
GASTEIGER

@<TRIPOS>ATOM
      1 O           0.6255    2.0250    0.8667 O.2     1  UNL11      -0.2739
      2 C           1.3121    1.6394    1.8454 C.2     1  UNL11       0.2334
      3 C           1.3342    2.4803    3.0633 C.3     1  UNL11       0.0505
      4 C           1.1481    3.9131    2.7535 C.ar    1  UNL11      -0.0386
      5 C           0.5348    4.7350    3.6683 C.ar    1  UNL11      -0.0581
      6 C           0.3244    6.0778    3.4416 C.ar    1  UNL11      -0.0615
      7 C           0.7337    6.6380    2.2655 C.ar    1  UNL11      -0.0617
      8 C           1.3526    5.8299    1.3318 C.ar    1  UNL11      -0.0615
      9 C           1.5624    4.4704    1.5693 C.ar    1  UNL11      -0.0581
     10 N           2.0312    0.4298    1.7487 N.am    1  UNL11      -0.2339
     11 N           1.9501   -0.3108    0.5397 N.am    1  UNL11      -0.2304
     12 C           0.7934   -0.2632   -0.2740 C.2     1  UNL11       0.2602
     13 O           0.7679   -0.9426   -1.3194 O.2     1  UNL11      -0.2687
     14 C          -0.3365    0.5677    0.1123 C.ar    1  UNL11       0.0400
     15 C          -0.3609    1.3362    1.2508 C.ar    1  UNL11      -0.0495
     16 C          -1.4833    2.1095    1.5482 C.ar    1  UNL11      -0.0592
     17 C          -2.5911    2.1357    0.7337 C.ar    1  UNL11      -0.0353
     18 C          -2.5597    1.3628   -0.4055 C.ar    1  UNL11       0.1062
     19 S          -3.9534    1.3601   -1.4951 S.O2    1  UNL11       0.0609
     20 O          -5.1127    0.8768   -0.6690 O.2     1  UNL11      -0.1528
     21 O          -4.2344    2.7591   -1.9293 O.2     1  UNL11      -0.1528
     22 N          -3.7299    0.3433   -2.8141 N.3     1  UNL11      -0.1766
     23 C          -3.2840   -0.9717   -2.5202 C.3     1  UNL11       0.0205
     24 C          -3.3189   -1.9269   -3.6521 C.3     1  UNL11      -0.0385
     25 C          -3.8249   -1.3095   -4.9346 C.3     1  UNL11      -0.0506
     26 C          -3.2496    0.0604   -5.2031 C.3     1  UNL11      -0.0385
     27 C          -3.2293    0.9367   -3.9988 C.3     1  UNL11       0.0205
     28 C          -1.4605    0.6090   -0.6918 C.ar    1  UNL11      -0.0232
     29 H           0.4858    2.1424    3.7076 H       1  UNL11       0.0407
     30 H           2.2676    2.2849    3.6476 H       1  UNL11       0.0407
     31 H           0.2017    4.3225    4.6042 H       1  UNL11       0.0620
     32 H          -0.1605    6.6896    4.1830 H       1  UNL11       0.0618
     33 H           0.6051    7.6680    2.0167 H       1  UNL11       0.0618
     34 H           1.6854    6.2513    0.3993 H       1  UNL11       0.0618
     35 H           2.0529    3.8322    0.8281 H       1  UNL11       0.0620
     36 H           2.6074    0.0787    2.5286 H       1  UNL11       0.1728
     37 H           2.7676   -0.8663    0.3010 H       1  UNL11       0.1731
     38 H           0.4958    1.3419    1.9179 H       1  UNL11       0.0625
     39 H          -1.4487    2.6998    2.4642 H       1  UNL11       0.0618
     40 H          -3.4599    2.7360    0.9698 H       1  UNL11       0.0637
     41 H          -2.2549   -0.9145   -2.0938 H       1  UNL11       0.0444
     42 H          -3.9174   -1.3534   -1.6763 H       1  UNL11       0.0444
     43 H          -2.3439   -2.4408   -3.8355 H       1  UNL11       0.0278
     44 H          -4.0312   -2.7530   -3.4063 H       1  UNL11       0.0278
     45 H          -3.4597   -1.9762   -5.7715 H       1  UNL11       0.0266
     46 H          -4.9149   -1.3253   -4.9701 H       1  UNL11       0.0266
     47 H          -3.8773    0.5106   -6.0197 H       1  UNL11       0.0278
     48 H          -2.2345   -0.0380   -5.6416 H       1  UNL11       0.0278
     49 H          -3.7917    1.8662   -4.2137 H       1  UNL11       0.0444
     50 H          -2.1714    1.2483   -3.7938 H       1  UNL11       0.0444
     51 H          -1.4548    0.0096   -1.5891 H       1  UNL11       0.0644
@<TRIPOS>BOND
     1     1     2    2
     2     2     3    1
     3     2    10   am
     4     3     4    1
     5     3    29    1
     6     3    30    1
     7     4     5   ar
     8     5     6   ar
     9     5    31    1
    10     6     7   ar
    11     6    32    1
    12     7     8   ar
    13     7    33    1
    14     8     9   ar
    15     8    34    1
    16     9     4   ar
    17     9    35    1
    18    10    11    1
    19    10    36    1
    20    11    12   am
    21    11    37    1
    22    12    13    2
    23    12    14    1
    24    14    15   ar
    25    15    16   ar
    26    15    38    1
    27    16    17   ar
    28    16    39    1
    29    17    18   ar
    30    17    40    1
    31    18    19    1
    32    18    28   ar
    33    19    20    2
    34    19    21    2
    35    19    22    1
    36    22    23    1
    37    23    24    1
    38    23    41    1
    39    23    42    1
    40    24    25    1
    41    24    43    1
    42    24    44    1
    43    25    26    1
    44    25    45    1
    45    25    46    1
    46    26    27    1
    47    26    47    1
    48    26    48    1
    49    27    22    1
    50    27    49    1
    51    27    50    1
    52    28    14   ar
    53    28    51    1
@<TRIPOS>MOLECULE
*****
 51 53 0 0 0
SMALL
GASTEIGER

@<TRIPOS>ATOM
      1 O           0.6255    2.0250    0.8667 O.2     1  UNL11      -0.2739
      2 C           1.3121    1.6394    1.8454 C.2     1  UNL11       0.2334
      3 C           1.3342    2.4803    3.0633 C.3     1  UNL11       0.0505
      4 C           1.1481    3.9131    2.7535 C.ar    1  UNL11      -0.0386
      5 C           0.5348    4.7350    3.6683 C.ar    1  UNL11      -0.0581
      6 C           0.3244    6.0778    3.4416 C.ar    1  UNL11      -0.0615
      7 C           0.7337    6.6380    2.2655 C.ar    1  UNL11      -0.0617
      8 C           1.3526    5.8299    1.3318 C.ar    1  UNL11      -0.0615
      9 C           1.5624    4.4704    1.5693 C.ar    1  UNL11      -0.0581
     10 N           2.0312    0.4298    1.7487 N.am    1  UNL11      -0.2339
     11 N           1.9501   -0.3108    0.5397 N.am    1  UNL11      -0.2304
     12 C           0.7934   -0.2632   -0.2740 C.2     1  UNL11       0.2602
     13 O           0.7679   -0.9426   -1.3194 O.2     1  UNL11      -0.2687
     14 C          -0.3365    0.5677    0.1123 C.ar    1  UNL11       0.0400
     15 C          -0.3609    1.3362    1.2508 C.ar    1  UNL11      -0.0495
     16 C          -1.4833    2.1095    1.5482 C.ar    1  UNL11      -0.0592
     17 C          -2.5911    2.1357    0.7337 C.ar    1  UNL11      -0.0353
     18 C          -2.5597    1.3628   -0.4055 C.ar    1  UNL11       0.1062
     19 S          -3.9534    1.3601   -1.4951 S.O2    1  UNL11       0.0609
     20 O          -4.5871    2.7152   -1.3459 O.2     1  UNL11      -0.1528
     21 O          -3.4727    1.2163   -2.8997 O.2     1  UNL11      -0.1528
     22 N          -5.0666    0.1638   -1.1038 N.3     1  UNL11      -0.1766
     23 C          -6.0894    0.5364   -0.1931 C.3     1  UNL11       0.0205
     24 C          -7.1948   -0.4379   -0.0389 C.3     1  UNL11      -0.0385
     25 C          -7.0201   -1.6735   -0.8903 C.3     1  UNL11      -0.0506
     26 C          -5.6115   -2.2166   -0.8691 C.3     1  UNL11      -0.0385
     27 C          -4.5708   -1.1589   -0.9999 C.3     1  UNL11       0.0205
     28 C          -1.4605    0.6090   -0.6918 C.ar    1  UNL11      -0.0232
     29 H           0.4858    2.1424    3.7076 H       1  UNL11       0.0407
     30 H           2.2676    2.2849    3.6476 H       1  UNL11       0.0407
     31 H           0.2017    4.3225    4.6042 H       1  UNL11       0.0620
     32 H          -0.1605    6.6896    4.1830 H       1  UNL11       0.0618
     33 H           0.6051    7.6680    2.0167 H       1  UNL11       0.0618
     34 H           1.6854    6.2513    0.3993 H       1  UNL11       0.0618
     35 H           2.0529    3.8322    0.8281 H       1  UNL11       0.0620
     36 H           2.6074    0.0787    2.5286 H       1  UNL11       0.1728
     37 H           2.7676   -0.8663    0.3010 H       1  UNL11       0.1731
     38 H           0.4958    1.3419    1.9179 H       1  UNL11       0.0625
     39 H          -1.4487    2.6998    2.4642 H       1  UNL11       0.0618
     40 H          -3.4599    2.7360    0.9698 H       1  UNL11       0.0637
     41 H          -5.6253    0.7550    0.7974 H       1  UNL11       0.0444
     42 H          -6.4940    1.5244   -0.5384 H       1  UNL11       0.0444
     43 H          -7.3901   -0.7305    1.0215 H       1  UNL11       0.0278
     44 H          -8.1471    0.0387   -0.3799 H       1  UNL11       0.0278
     45 H          -7.6742   -2.4709   -0.4272 H       1  UNL11       0.0266
     46 H          -7.3938   -1.5052   -1.9010 H       1  UNL11       0.0266
     47 H          -5.5461   -2.9544   -1.7146 H       1  UNL11       0.0278
     48 H          -5.4548   -2.8184    0.0506 H       1  UNL11       0.0278
     49 H          -3.9292   -1.3838   -1.8741 H       1  UNL11       0.0444
     50 H          -3.9018   -1.1940   -0.1002 H       1  UNL11       0.0444
     51 H          -1.4548    0.0096   -1.5891 H       1  UNL11       0.0644
@<TRIPOS>BOND
     1     1     2    2
     2     2     3    1
     3     2    10   am
     4     3     4    1
     5     3    29    1
     6     3    30    1
     7     4     5   ar
     8     5     6   ar
     9     5    31    1
    10     6     7   ar
    11     6    32    1
    12     7     8   ar
    13     7    33    1
    14     8     9   ar
    15     8    34    1
    16     9     4   ar
    17     9    35    1
    18    10    11    1
    19    10    36    1
    20    11    12   am
    21    11    37    1
    22    12    13    2
    23    12    14    1
    24    14    15   ar
    25    15    16   ar
    26    15    38    1
    27    16    17   ar
    28    16    39    1
    29    17    18   ar
    30    17    40    1
    31    18    19    1
    32    18    28   ar
    33    19    20    2
    34    19    21    2
    35    19    22    1
    36    22    23    1
    37    23    24    1
    38    23    41    1
    39    23    42    1
    40    24    25    1
    41    24    43    1
    42    24    44    1
    43    25    26    1
    44    25    45    1
    45    25    46    1
    46    26    27    1
    47    26    47    1
    48    26    48    1
    49    27    22    1
    50    27    49    1
    51    27    50    1
    52    28    14   ar
    53    28    51    1
@<TRIPOS>MOLECULE
*****
 51 53 0 0 0
SMALL
GASTEIGER

@<TRIPOS>ATOM
      1 O           4.1107   -2.1658   -1.8412 O.2     1  UNL11      -0.2739
      2 C           3.1360   -1.4583   -1.4843 C.2     1  UNL11       0.2334
      3 C           3.4038   -0.2539   -0.6668 C.3     1  UNL11       0.0505
      4 C           2.9418    0.9829   -1.3305 C.ar    1  UNL11      -0.0386
      5 C           1.8670    0.9378   -2.1857 C.ar    1  UNL11      -0.0581
      6 C           1.3882    2.0512   -2.8414 C.ar    1  UNL11      -0.0615
      7 C           1.9907    3.2614   -2.6492 C.ar    1  UNL11      -0.0617
      8 C           3.0727    3.3293   -1.7933 C.ar    1  UNL11      -0.0615
      9 C           3.5516    2.1968   -1.1326 C.ar    1  UNL11      -0.0581
     10 N           1.8331   -1.8345   -1.8721 N.am    1  UNL11      -0.2339
     11 N           0.7448   -1.0145   -1.4721 N.am    1  UNL11      -0.2304
     12 C           0.7934   -0.2632   -0.2740 C.2     1  UNL11       0.2602
     13 O           1.8170   -0.3317    0.4350 O.2     1  UNL11      -0.2687
     14 C          -0.3365    0.5677    0.1123 C.ar    1  UNL11       0.0400
     15 C          -0.3609    1.3362    1.2508 C.ar    1  UNL11      -0.0495
     16 C          -1.4833    2.1095    1.5482 C.ar    1  UNL11      -0.0592
     17 C          -2.5911    2.1357    0.7337 C.ar    1  UNL11      -0.0353
     18 C          -2.5597    1.3628   -0.4055 C.ar    1  UNL11       0.1062
     19 S          -3.9534    1.3601   -1.4951 S.O2    1  UNL11       0.0609
     20 O          -5.1127    0.8768   -0.6690 O.2     1  UNL11      -0.1528
     21 O          -4.2344    2.7591   -1.9293 O.2     1  UNL11      -0.1528
     22 N          -3.7299    0.3433   -2.8141 N.3     1  UNL11      -0.1766
     23 C          -2.7802    0.7712   -3.7783 C.3     1  UNL11       0.0205
     24 C          -2.4148   -0.2322   -4.8053 C.3     1  UNL11      -0.0385
     25 C          -3.1407   -1.5462   -4.6362 C.3     1  UNL11      -0.0506
     26 C          -4.6084   -1.3794   -4.3235 C.3     1  UNL11      -0.0385
     27 C          -4.8771   -0.3281   -3.3030 C.3     1  UNL11       0.0205
     28 C          -1.4605    0.6090   -0.6918 C.ar    1  UNL11      -0.0232
     29 H           2.8383   -0.3772    0.2893 H       1  UNL11       0.0407
     30 H           4.4859   -0.2128   -0.3871 H       1  UNL11       0.0407
     31 H           1.3715   -0.0013   -2.3569 H       1  UNL11       0.0620
     32 H           0.5434    1.9758   -3.5047 H       1  UNL11       0.0618
     33 H           1.6792    4.1666   -3.1214 H       1  UNL11       0.0618
     34 H           3.5609    4.2735   -1.6254 H       1  UNL11       0.0618
     35 H           4.4089    2.2531   -0.4550 H       1  UNL11       0.0620
     36 H           1.6587   -2.6817   -2.4336 H       1  UNL11       0.1728
     37 H          -0.0576   -1.0020   -2.0966 H       1  UNL11       0.1731
     38 H           0.4958    1.3419    1.9179 H       1  UNL11       0.0625
     39 H          -1.4487    2.6998    2.4642 H       1  UNL11       0.0618
     40 H          -3.4599    2.7360    0.9698 H       1  UNL11       0.0637
     41 H          -3.1567    1.7022   -4.2637 H       1  UNL11       0.0444
     42 H          -1.8648    1.0967   -3.2171 H       1  UNL11       0.0444
     43 H          -2.5325    0.1357   -5.8536 H       1  UNL11       0.0278
     44 H          -1.3260   -0.4677   -4.7096 H       1  UNL11       0.0278
     45 H          -3.0874   -2.0675   -5.6380 H       1  UNL11       0.0266
     46 H          -2.6251   -2.1857   -3.9187 H       1  UNL11       0.0266
     47 H          -4.9717   -2.3840   -3.9738 H       1  UNL11       0.0278
     48 H          -5.1714   -1.1797   -5.2593 H       1  UNL11       0.0278
     49 H          -5.4339   -0.7747   -2.4563 H       1  UNL11       0.0444
     50 H          -5.5521    0.4483   -3.7500 H       1  UNL11       0.0444
     51 H          -1.4548    0.0096   -1.5891 H       1  UNL11       0.0644
@<TRIPOS>BOND
     1     1     2    2
     2     2     3    1
     3     2    10   am
     4     3     4    1
     5     3    29    1
     6     3    30    1
     7     4     5   ar
     8     5     6   ar
     9     5    31    1
    10     6     7   ar
    11     6    32    1
    12     7     8   ar
    13     7    33    1
    14     8     9   ar
    15     8    34    1
    16     9     4   ar
    17     9    35    1
    18    10    11    1
    19    10    36    1
    20    11    12   am
    21    11    37    1
    22    12    13    2
    23    12    14    1
    24    14    15   ar
    25    15    16   ar
    26    15    38    1
    27    16    17   ar
    28    16    39    1
    29    17    18   ar
    30    17    40    1
    31    18    19    1
    32    18    28   ar
    33    19    20    2
    34    19    21    2
    35    19    22    1
    36    22    23    1
    37    23    24    1
    38    23    41    1
    39    23    42    1
    40    24    25    1
    41    24    43    1
    42    24    44    1
    43    25    26    1
    44    25    45    1
    45    25    46    1
    46    26    27    1
    47    26    47    1
    48    26    48    1
    49    27    22    1
    50    27    49    1
    51    27    50    1
    52    28    14   ar
    53    28    51    1
@<TRIPOS>MOLECULE
*****
 51 53 0 0 0
SMALL
GASTEIGER

@<TRIPOS>ATOM
      1 O           0.9675   -1.3495   -4.1471 O.2     1  UNL11      -0.2739
      2 C          -0.1937   -1.1491   -3.7119 C.2     1  UNL11       0.2334
      3 C          -1.3115   -1.1146   -4.6814 C.3     1  UNL11       0.0505
      4 C          -2.3233   -2.1545   -4.4010 C.ar    1  UNL11      -0.0386
      5 C          -3.6199   -1.7891   -4.1289 C.ar    1  UNL11      -0.0581
      6 C          -4.6111   -2.7059   -3.8535 C.ar    1  UNL11      -0.0615
      7 C          -4.3166   -4.0392   -3.8447 C.ar    1  UNL11      -0.0617
      8 C          -3.0194   -4.4285   -4.1158 C.ar    1  UNL11      -0.0615
      9 C          -2.0209   -3.4935   -4.3942 C.ar    1  UNL11      -0.0581
     10 N          -0.3882   -0.9652   -2.3270 N.am    1  UNL11      -0.2339
     11 N           0.7448   -1.0145   -1.4721 N.am    1  UNL11      -0.2304
     12 C           0.7934   -0.2632   -0.2740 C.2     1  UNL11       0.2602
     13 O           1.8170   -0.3317    0.4350 O.2     1  UNL11      -0.2687
     14 C          -0.3365    0.5677    0.1123 C.ar    1  UNL11       0.0400
     15 C          -0.3609    1.3362    1.2508 C.ar    1  UNL11      -0.0495
     16 C          -1.4833    2.1095    1.5482 C.ar    1  UNL11      -0.0592
     17 C          -2.5911    2.1357    0.7337 C.ar    1  UNL11      -0.0353
     18 C          -2.5597    1.3628   -0.4055 C.ar    1  UNL11       0.1062
     19 S          -3.9534    1.3601   -1.4951 S.O2    1  UNL11       0.0609
     20 O          -3.4364    1.8590   -2.8156 O.2     1  UNL11      -0.1528
     21 O          -4.4286   -0.0423   -1.6740 O.2     1  UNL11      -0.1528
     22 N          -5.1896    2.3603   -0.9520 N.3     1  UNL11      -0.1766
     23 C          -5.8917    1.9165    0.1988 C.3     1  UNL11       0.0205
     24 C          -6.8102    2.9060    0.8090 C.3     1  UNL11      -0.0385
     25 C          -6.8344    4.2255    0.0741 C.3     1  UNL11      -0.0506
     26 C          -6.8835    4.0700   -1.4270 C.3     1  UNL11      -0.0385
     27 C          -5.9476    3.0320   -1.9422 C.3     1  UNL11       0.0205
     28 C          -1.4605    0.6090   -0.6918 C.ar    1  UNL11      -0.0232
     29 H          -1.7955   -0.1119   -4.5847 H       1  UNL11       0.0407
     30 H          -0.9154   -1.1713   -5.7258 H       1  UNL11       0.0407
     31 H          -3.8824   -0.7461   -4.1289 H       1  UNL11       0.0620
     32 H          -5.6160   -2.3807   -3.6444 H       1  UNL11       0.0618
     33 H          -5.0282   -4.8078   -3.6393 H       1  UNL11       0.0618
     34 H          -2.7659   -5.4743   -4.1166 H       1  UNL11       0.0618
     35 H          -0.9939   -3.8043   -4.6087 H       1  UNL11       0.0620
     36 H          -1.3248   -0.7971   -1.9295 H       1  UNL11       0.1728
     37 H           1.5051   -1.6188   -1.7732 H       1  UNL11       0.1731
     38 H           0.4958    1.3419    1.9179 H       1  UNL11       0.0625
     39 H          -1.4487    2.6998    2.4642 H       1  UNL11       0.0618
     40 H          -3.4599    2.7360    0.9698 H       1  UNL11       0.0637
     41 H          -6.4443    0.9818   -0.0567 H       1  UNL11       0.0444
     42 H          -5.1230    1.5927    0.9493 H       1  UNL11       0.0444
     43 H          -7.8522    2.5265    0.9449 H       1  UNL11       0.0278
     44 H          -6.4569    3.1369    1.8444 H       1  UNL11       0.0278
     45 H          -7.7989    4.7349    0.3716 H       1  UNL11       0.0266
     46 H          -6.0201    4.8707    0.4064 H       1  UNL11       0.0266
     47 H          -6.6419    5.0805   -1.8560 H       1  UNL11       0.0278
     48 H          -7.9255    3.8624   -1.7491 H       1  UNL11       0.0278
     49 H          -5.2647    3.4913   -2.6832 H       1  UNL11       0.0444
     50 H          -6.5365    2.2540   -2.4954 H       1  UNL11       0.0444
     51 H          -1.4548    0.0096   -1.5891 H       1  UNL11       0.0644
@<TRIPOS>BOND
     1     1     2    2
     2     2     3    1
     3     2    10   am
     4     3     4    1
     5     3    29    1
     6     3    30    1
     7     4     5   ar
     8     5     6   ar
     9     5    31    1
    10     6     7   ar
    11     6    32    1
    12     7     8   ar
    13     7    33    1
    14     8     9   ar
    15     8    34    1
    16     9     4   ar
    17     9    35    1
    18    10    11    1
    19    10    36    1
    20    11    12   am
    21    11    37    1
    22    12    13    2
    23    12    14    1
    24    14    15   ar
    25    15    16   ar
    26    15    38    1
    27    16    17   ar
    28    16    39    1
    29    17    18   ar
    30    17    40    1
    31    18    19    1
    32    18    28   ar
    33    19    20    2
    34    19    21    2
    35    19    22    1
    36    22    23    1
    37    23    24    1
    38    23    41    1
    39    23    42    1
    40    24    25    1
    41    24    43    1
    42    24    44    1
    43    25    26    1
    44    25    45    1
    45    25    46    1
    46    26    27    1
    47    26    47    1
    48    26    48    1
    49    27    22    1
    50    27    49    1
    51    27    50    1
    52    28    14   ar
    53    28    51    1
@<TRIPOS>MOLECULE
*****
 51 53 0 0 0
SMALL
GASTEIGER

@<TRIPOS>ATOM
      1 O          -0.1686   -0.1925    3.7407 O.2     1  UNL11      -0.2739
      2 C           0.0618   -0.4010    2.5236 C.2     1  UNL11       0.2334
      3 C          -1.0830   -0.4256    1.5857 C.3     1  UNL11       0.0505
      4 C          -0.8440   -1.3275    0.4398 C.ar    1  UNL11      -0.0386
      5 C          -0.8538   -0.8237   -0.8387 C.ar    1  UNL11      -0.0581
      6 C          -0.6442   -1.6089   -1.9515 C.ar    1  UNL11      -0.0615
      7 C          -0.4151   -2.9467   -1.8028 C.ar    1  UNL11      -0.0617
      8 C          -0.4007   -3.4740   -0.5262 C.ar    1  UNL11      -0.0615
      9 C          -0.6136   -2.6718    0.5961 C.ar    1  UNL11      -0.0581
     10 N           1.3916   -0.6027    2.0989 N.am    1  UNL11      -0.2339
     11 N           1.6347   -0.8222    0.7171 N.am    1  UNL11      -0.2304
     12 C           0.7934   -0.2632   -0.2740 C.2     1  UNL11       0.2602
     13 O           1.0431   -0.4969   -1.4732 O.2     1  UNL11      -0.2687
     14 C          -0.3365    0.5677    0.1123 C.ar    1  UNL11       0.0400
     15 C          -0.3609    1.3362    1.2508 C.ar    1  UNL11      -0.0495
     16 C          -1.4833    2.1095    1.5482 C.ar    1  UNL11      -0.0592
     17 C          -2.5911    2.1357    0.7337 C.ar    1  UNL11      -0.0353
     18 C          -2.5597    1.3628   -0.4055 C.ar    1  UNL11       0.1062
     19 S          -3.9534    1.3601   -1.4951 S.O2    1  UNL11       0.0609
     20 O          -4.4230   -0.0670   -1.5489 O.2     1  UNL11      -0.1528
     21 O          -5.0388    2.1916   -0.8991 O.2     1  UNL11      -0.1528
     22 N          -3.5563    1.8884   -3.0400 N.3     1  UNL11      -0.1766
     23 C          -3.2603    3.2704   -3.1703 C.3     1  UNL11       0.0205
     24 C          -2.6833    3.6811   -4.4716 C.3     1  UNL11      -0.0385
     25 C          -2.5214    2.5317   -5.4384 C.3     1  UNL11      -0.0506
     26 C          -3.7164    1.6094   -5.4719 C.3     1  UNL11      -0.0385
     27 C          -4.2428    1.2786   -4.1184 C.3     1  UNL11       0.0205
     28 C          -1.4605    0.6090   -0.6918 C.ar    1  UNL11      -0.0232
     29 H          -1.9650   -0.8041    2.1584 H       1  UNL11       0.0407
     30 H          -1.3403    0.6151    1.2669 H       1  UNL11       0.0407
     31 H          -1.0313    0.2266   -0.9877 H       1  UNL11       0.0620
     32 H          -0.6600   -1.1774   -2.9379 H       1  UNL11       0.0618
     33 H          -0.2459   -3.6187   -2.6147 H       1  UNL11       0.0618
     34 H          -0.2195   -4.5254   -0.3859 H       1  UNL11       0.0618
     35 H          -0.6018   -3.0918    1.6065 H       1  UNL11       0.0620
     36 H           2.1797   -0.5930    2.7640 H       1  UNL11       0.1728
     37 H           2.4429   -1.3966    0.4918 H       1  UNL11       0.1731
     38 H           0.4958    1.3419    1.9179 H       1  UNL11       0.0625
     39 H          -1.4487    2.6998    2.4642 H       1  UNL11       0.0618
     40 H          -3.4599    2.7360    0.9698 H       1  UNL11       0.0637
     41 H          -4.1843    3.8569   -2.9545 H       1  UNL11       0.0444
     42 H          -2.5571    3.5367   -2.3376 H       1  UNL11       0.0444
     43 H          -3.2367    4.5176   -4.9637 H       1  UNL11       0.0278
     44 H          -1.6552    4.0857   -4.2997 H       1  UNL11       0.0278
     45 H          -2.4483    2.9932   -6.4680 H       1  UNL11       0.0266
     46 H          -1.5838    2.0035   -5.2610 H       1  UNL11       0.0266
     47 H          -3.3831    0.6824   -6.0134 H       1  UNL11       0.0278
     48 H          -4.5105    2.0469   -6.1126 H       1  UNL11       0.0278
     49 H          -4.2411    0.1793   -3.9843 H       1  UNL11       0.0444
     50 H          -5.3149    1.6024   -4.0562 H       1  UNL11       0.0444
     51 H          -1.4548    0.0096   -1.5891 H       1  UNL11       0.0644
@<TRIPOS>BOND
     1     1     2    2
     2     2     3    1
     3     2    10   am
     4     3     4    1
     5     3    29    1
     6     3    30    1
     7     4     5   ar
     8     5     6   ar
     9     5    31    1
    10     6     7   ar
    11     6    32    1
    12     7     8   ar
    13     7    33    1
    14     8     9   ar
    15     8    34    1
    16     9     4   ar
    17     9    35    1
    18    10    11    1
    19    10    36    1
    20    11    12   am
    21    11    37    1
    22    12    13    2
    23    12    14    1
    24    14    15   ar
    25    15    16   ar
    26    15    38    1
    27    16    17   ar
    28    16    39    1
    29    17    18   ar
    30    17    40    1
    31    18    19    1
    32    18    28   ar
    33    19    20    2
    34    19    21    2
    35    19    22    1
    36    22    23    1
    37    23    24    1
    38    23    41    1
    39    23    42    1
    40    24    25    1
    41    24    43    1
    42    24    44    1
    43    25    26    1
    44    25    45    1
    45    25    46    1
    46    26    27    1
    47    26    47    1
    48    26    48    1
    49    27    22    1
    50    27    49    1
    51    27    50    1
    52    28    14   ar
    53    28    51    1
@<TRIPOS>MOLECULE
*****
 51 53 0 0 0
SMALL
GASTEIGER

@<TRIPOS>ATOM
      1 O           3.8122    2.9858    1.3632 O.2     1  UNL11      -0.2739
      2 C           3.5743    1.9569    0.6829 C.2     1  UNL11       0.2334
      3 C           4.5959    1.5043   -0.2877 C.3     1  UNL11       0.0505
      4 C           5.3933    2.6283   -0.8210 C.ar    1  UNL11      -0.0386
      5 C           4.7667    3.6527   -1.4894 C.ar    1  UNL11      -0.0581
      6 C           5.4497    4.7272   -2.0165 C.ar    1  UNL11      -0.0615
      7 C           6.8066    4.7991   -1.8817 C.ar    1  UNL11      -0.0617
      8 C           7.4564    3.7800   -1.2132 C.ar    1  UNL11      -0.0615
      9 C           6.7573    2.6950   -0.6818 C.ar    1  UNL11      -0.0581
     10 N           2.3525    1.2767    0.8670 N.am    1  UNL11      -0.2339
     11 N           2.1070    0.1070    0.1000 N.am    1  UNL11      -0.2304
     12 C           0.7934   -0.2632   -0.2740 C.2     1  UNL11       0.2602
     13 O           0.6308   -1.3069   -0.9368 O.2     1  UNL11      -0.2687
     14 C          -0.3365    0.5677    0.1123 C.ar    1  UNL11       0.0400
     15 C          -0.3609    1.3362    1.2508 C.ar    1  UNL11      -0.0495
     16 C          -1.4833    2.1095    1.5482 C.ar    1  UNL11      -0.0592
     17 C          -2.5911    2.1357    0.7337 C.ar    1  UNL11      -0.0353
     18 C          -2.5597    1.3628   -0.4055 C.ar    1  UNL11       0.1062
     19 S          -3.9534    1.3601   -1.4951 S.O2    1  UNL11       0.0609
     20 O          -5.1127    0.8768   -0.6690 O.2     1  UNL11      -0.1528
     21 O          -4.2344    2.7591   -1.9293 O.2     1  UNL11      -0.1528
     22 N          -3.7299    0.3433   -2.8141 N.3     1  UNL11      -0.1766
     23 C          -2.7802    0.7712   -3.7783 C.3     1  UNL11       0.0205
     24 C          -2.4148   -0.2322   -4.8053 C.3     1  UNL11      -0.0385
     25 C          -3.1407   -1.5462   -4.6362 C.3     1  UNL11      -0.0506
     26 C          -4.6084   -1.3794   -4.3235 C.3     1  UNL11      -0.0385
     27 C          -4.8771   -0.3281   -3.3030 C.3     1  UNL11       0.0205
     28 C          -1.4605    0.6090   -0.6918 C.ar    1  UNL11      -0.0232
     29 H           5.2803    0.8107    0.2597 H       1  UNL11       0.0407
     30 H           4.1158    0.8971   -1.0950 H       1  UNL11       0.0407
     31 H           3.6985    3.6242   -1.6110 H       1  UNL11       0.0620
     32 H           4.9233    5.5108   -2.5344 H       1  UNL11       0.0618
     33 H           7.4043    5.5971   -2.2631 H       1  UNL11       0.0618
     34 H           8.5252    3.8179   -1.0933 H       1  UNL11       0.0618
     35 H           7.2743    1.8888   -0.1525 H       1  UNL11       0.0620
     36 H           1.6444    1.6080    1.5396 H       1  UNL11       0.1728
     37 H           2.9263   -0.4361   -0.1603 H       1  UNL11       0.1731
     38 H           0.4958    1.3419    1.9179 H       1  UNL11       0.0625
     39 H          -1.4487    2.6998    2.4642 H       1  UNL11       0.0618
     40 H          -3.4599    2.7360    0.9698 H       1  UNL11       0.0637
     41 H          -3.1567    1.7022   -4.2637 H       1  UNL11       0.0444
     42 H          -1.8648    1.0967   -3.2171 H       1  UNL11       0.0444
     43 H          -2.5325    0.1357   -5.8536 H       1  UNL11       0.0278
     44 H          -1.3260   -0.4677   -4.7096 H       1  UNL11       0.0278
     45 H          -3.0874   -2.0675   -5.6380 H       1  UNL11       0.0266
     46 H          -2.6251   -2.1857   -3.9187 H       1  UNL11       0.0266
     47 H          -4.9717   -2.3840   -3.9738 H       1  UNL11       0.0278
     48 H          -5.1714   -1.1797   -5.2593 H       1  UNL11       0.0278
     49 H          -5.4339   -0.7747   -2.4563 H       1  UNL11       0.0444
     50 H          -5.5521    0.4483   -3.7500 H       1  UNL11       0.0444
     51 H          -1.4548    0.0096   -1.5891 H       1  UNL11       0.0644
@<TRIPOS>BOND
     1     1     2    2
     2     2     3    1
     3     2    10   am
     4     3     4    1
     5     3    29    1
     6     3    30    1
     7     4     5   ar
     8     5     6   ar
     9     5    31    1
    10     6     7   ar
    11     6    32    1
    12     7     8   ar
    13     7    33    1
    14     8     9   ar
    15     8    34    1
    16     9     4   ar
    17     9    35    1
    18    10    11    1
    19    10    36    1
    20    11    12   am
    21    11    37    1
    22    12    13    2
    23    12    14    1
    24    14    15   ar
    25    15    16   ar
    26    15    38    1
    27    16    17   ar
    28    16    39    1
    29    17    18   ar
    30    17    40    1
    31    18    19    1
    32    18    28   ar
    33    19    20    2
    34    19    21    2
    35    19    22    1
    36    22    23    1
    37    23    24    1
    38    23    41    1
    39    23    42    1
    40    24    25    1
    41    24    43    1
    42    24    44    1
    43    25    26    1
    44    25    45    1
    45    25    46    1
    46    26    27    1
    47    26    47    1
    48    26    48    1
    49    27    22    1
    50    27    49    1
    51    27    50    1
    52    28    14   ar
    53    28    51    1
@<TRIPOS>MOLECULE
*****
 51 53 0 0 0
SMALL
GASTEIGER

@<TRIPOS>ATOM
      1 O           3.8882   -2.4007   -1.9869 O.2     1  UNL11      -0.2739
      2 C           2.9216   -1.6822   -1.6297 C.2     1  UNL11       0.2334
      3 C           3.1493   -0.2291   -1.4644 C.3     1  UNL11       0.0505
      4 C           4.5396    0.0743   -1.0660 C.ar    1  UNL11      -0.0386
      5 C           5.5597   -0.7572   -1.4616 C.ar    1  UNL11      -0.0581
      6 C           6.8766   -0.5366   -1.1210 C.ar    1  UNL11      -0.0615
      7 C           7.2063    0.5473   -0.3586 C.ar    1  UNL11      -0.0617
      8 C           6.1962    1.3963    0.0498 C.ar    1  UNL11      -0.0615
      9 C           4.8646    1.1660   -0.2998 C.ar    1  UNL11      -0.0581
     10 N           1.6655   -2.2815   -1.4008 N.am    1  UNL11      -0.2339
     11 N           0.5806   -1.4517   -1.0120 N.am    1  UNL11      -0.2304
     12 C           0.7934   -0.2632   -0.2740 C.2     1  UNL11       0.2602
     13 O           1.9605    0.0496    0.0347 O.2     1  UNL11      -0.2687
     14 C          -0.3365    0.5677    0.1123 C.ar    1  UNL11       0.0400
     15 C          -0.3609    1.3362    1.2508 C.ar    1  UNL11      -0.0495
     16 C          -1.4833    2.1095    1.5482 C.ar    1  UNL11      -0.0592
     17 C          -2.5911    2.1357    0.7337 C.ar    1  UNL11      -0.0353
     18 C          -2.5597    1.3628   -0.4055 C.ar    1  UNL11       0.1062
     19 S          -3.9534    1.3601   -1.4951 S.O2    1  UNL11       0.0609
     20 O          -5.1127    0.8768   -0.6690 O.2     1  UNL11      -0.1528
     21 O          -4.2344    2.7591   -1.9293 O.2     1  UNL11      -0.1528
     22 N          -3.7299    0.3433   -2.8141 N.3     1  UNL11      -0.1766
     23 C          -2.7802    0.7712   -3.7783 C.3     1  UNL11       0.0205
     24 C          -2.4148   -0.2322   -4.8053 C.3     1  UNL11      -0.0385
     25 C          -3.1407   -1.5462   -4.6362 C.3     1  UNL11      -0.0506
     26 C          -4.6084   -1.3794   -4.3235 C.3     1  UNL11      -0.0385
     27 C          -4.8771   -0.3281   -3.3030 C.3     1  UNL11       0.0205
     28 C          -1.4605    0.6090   -0.6918 C.ar    1  UNL11      -0.0232
     29 H           2.9516    0.2463   -2.4563 H       1  UNL11       0.0407
     30 H           2.3965    0.1991   -0.7568 H       1  UNL11       0.0407
     31 H           5.3312   -1.6189   -2.0633 H       1  UNL11       0.0620
     32 H           7.6484   -1.2114   -1.4498 H       1  UNL11       0.0618
     33 H           8.2014    0.7838   -0.0536 H       1  UNL11       0.0618
     34 H           6.4340    2.2578    0.6491 H       1  UNL11       0.0618
     35 H           4.0661    1.8401    0.0250 H       1  UNL11       0.0620
     36 H           1.5221   -3.2969   -1.5099 H       1  UNL11       0.1728
     37 H          -0.3442   -1.7631   -1.2978 H       1  UNL11       0.1731
     38 H           0.4958    1.3419    1.9179 H       1  UNL11       0.0625
     39 H          -1.4487    2.6998    2.4642 H       1  UNL11       0.0618
     40 H          -3.4599    2.7360    0.9698 H       1  UNL11       0.0637
     41 H          -3.1567    1.7022   -4.2637 H       1  UNL11       0.0444
     42 H          -1.8648    1.0967   -3.2171 H       1  UNL11       0.0444
     43 H          -2.5325    0.1357   -5.8536 H       1  UNL11       0.0278
     44 H          -1.3260   -0.4677   -4.7096 H       1  UNL11       0.0278
     45 H          -3.0874   -2.0675   -5.6380 H       1  UNL11       0.0266
     46 H          -2.6251   -2.1857   -3.9187 H       1  UNL11       0.0266
     47 H          -4.9717   -2.3840   -3.9738 H       1  UNL11       0.0278
     48 H          -5.1714   -1.1797   -5.2593 H       1  UNL11       0.0278
     49 H          -5.4339   -0.7747   -2.4563 H       1  UNL11       0.0444
     50 H          -5.5521    0.4483   -3.7500 H       1  UNL11       0.0444
     51 H          -1.4548    0.0096   -1.5891 H       1  UNL11       0.0644
@<TRIPOS>BOND
     1     1     2    2
     2     2     3    1
     3     2    10   am
     4     3     4    1
     5     3    29    1
     6     3    30    1
     7     4     5   ar
     8     5     6   ar
     9     5    31    1
    10     6     7   ar
    11     6    32    1
    12     7     8   ar
    13     7    33    1
    14     8     9   ar
    15     8    34    1
    16     9     4   ar
    17     9    35    1
    18    10    11    1
    19    10    36    1
    20    11    12   am
    21    11    37    1
    22    12    13    2
    23    12    14    1
    24    14    15   ar
    25    15    16   ar
    26    15    38    1
    27    16    17   ar
    28    16    39    1
    29    17    18   ar
    30    17    40    1
    31    18    19    1
    32    18    28   ar
    33    19    20    2
    34    19    21    2
    35    19    22    1
    36    22    23    1
    37    23    24    1
    38    23    41    1
    39    23    42    1
    40    24    25    1
    41    24    43    1
    42    24    44    1
    43    25    26    1
    44    25    45    1
    45    25    46    1
    46    26    27    1
    47    26    47    1
    48    26    48    1
    49    27    22    1
    50    27    49    1
    51    27    50    1
    52    28    14   ar
    53    28    51    1
@<TRIPOS>MOLECULE
*****
 51 53 0 0 0
SMALL
GASTEIGER

@<TRIPOS>ATOM
      1 O          -0.1686   -0.1925    3.7407 O.2     1  UNL11      -0.2739
      2 C           0.0618   -0.4010    2.5236 C.2     1  UNL11       0.2334
      3 C          -1.0830   -0.4256    1.5857 C.3     1  UNL11       0.0505
      4 C          -1.6465   -1.7829    1.4313 C.ar    1  UNL11      -0.0386
      5 C          -2.6589   -2.2001    2.2617 C.ar    1  UNL11      -0.0581
      6 C          -3.2253   -3.4533    2.1762 C.ar    1  UNL11      -0.0615
      7 C          -2.7783   -4.3355    1.2347 C.ar    1  UNL11      -0.0617
      8 C          -1.7614   -3.9366    0.3893 C.ar    1  UNL11      -0.0615
      9 C          -1.1930   -2.6650    0.4822 C.ar    1  UNL11      -0.0581
     10 N           1.3916   -0.6027    2.0989 N.am    1  UNL11      -0.2339
     11 N           1.6347   -0.8222    0.7171 N.am    1  UNL11      -0.2304
     12 C           0.7934   -0.2632   -0.2740 C.2     1  UNL11       0.2602
     13 O           1.0431   -0.4969   -1.4732 O.2     1  UNL11      -0.2687
     14 C          -0.3365    0.5677    0.1123 C.ar    1  UNL11       0.0400
     15 C          -0.3609    1.3362    1.2508 C.ar    1  UNL11      -0.0495
     16 C          -1.4833    2.1095    1.5482 C.ar    1  UNL11      -0.0592
     17 C          -2.5911    2.1357    0.7337 C.ar    1  UNL11      -0.0353
     18 C          -2.5597    1.3628   -0.4055 C.ar    1  UNL11       0.1062
     19 S          -3.9534    1.3601   -1.4951 S.O2    1  UNL11       0.0609
     20 O          -5.1127    0.8768   -0.6690 O.2     1  UNL11      -0.1528
     21 O          -4.2344    2.7591   -1.9293 O.2     1  UNL11      -0.1528
     22 N          -3.7299    0.3433   -2.8141 N.3     1  UNL11      -0.1766
     23 C          -4.1657   -0.9974   -2.6498 C.3     1  UNL11       0.0205
     24 C          -4.1871   -1.8187   -3.8827 C.3     1  UNL11      -0.0385
     25 C          -3.7248   -1.0640   -5.1068 C.3     1  UNL11      -0.0506
     26 C          -2.4967   -0.2215   -4.8581 C.3     1  UNL11      -0.0385
     27 C          -2.5560    0.5430   -3.5812 C.3     1  UNL11       0.0205
     28 C          -1.4605    0.6090   -0.6918 C.ar    1  UNL11      -0.0232
     29 H          -1.8709    0.2398    2.0162 H       1  UNL11       0.0407
     30 H          -0.7880    0.0308    0.6082 H       1  UNL11       0.0407
     31 H          -3.0323   -1.5272    3.0132 H       1  UNL11       0.0620
     32 H          -4.0169   -3.7440    2.8456 H       1  UNL11       0.0618
     33 H          -3.1650   -5.3222    1.1078 H       1  UNL11       0.0618
     34 H          -1.3957   -4.6150   -0.3617 H       1  UNL11       0.0618
     35 H          -0.3875   -2.3513   -0.1887 H       1  UNL11       0.0620
     36 H           2.1797   -0.5930    2.7640 H       1  UNL11       0.1728
     37 H           2.4429   -1.3966    0.4918 H       1  UNL11       0.1731
     38 H           0.4958    1.3419    1.9179 H       1  UNL11       0.0625
     39 H          -1.4487    2.6998    2.4642 H       1  UNL11       0.0618
     40 H          -3.4599    2.7360    0.9698 H       1  UNL11       0.0637
     41 H          -3.5355   -1.4863   -1.8700 H       1  UNL11       0.0444
     42 H          -5.1919   -0.9571   -2.1978 H       1  UNL11       0.0444
     43 H          -3.6231   -2.7789   -3.7917 H       1  UNL11       0.0278
     44 H          -5.2406   -2.1292   -4.0922 H       1  UNL11       0.0278
     45 H          -3.4239   -1.8466   -5.8653 H       1  UNL11       0.0266
     46 H          -4.5457   -0.4962   -5.5466 H       1  UNL11       0.0266
     47 H          -2.4062    0.4704   -5.7394 H       1  UNL11       0.0278
     48 H          -1.5891   -0.8596   -4.8989 H       1  UNL11       0.0278
     49 H          -2.4328    1.6225   -3.7955 H       1  UNL11       0.0444
     50 H          -1.6847    0.2473   -2.9397 H       1  UNL11       0.0444
     51 H          -1.4548    0.0096   -1.5891 H       1  UNL11       0.0644
@<TRIPOS>BOND
     1     1     2    2
     2     2     3    1
     3     2    10   am
     4     3     4    1
     5     3    29    1
     6     3    30    1
     7     4     5   ar
     8     5     6   ar
     9     5    31    1
    10     6     7   ar
    11     6    32    1
    12     7     8   ar
    13     7    33    1
    14     8     9   ar
    15     8    34    1
    16     9     4   ar
    17     9    35    1
    18    10    11    1
    19    10    36    1
    20    11    12   am
    21    11    37    1
    22    12    13    2
    23    12    14    1
    24    14    15   ar
    25    15    16   ar
    26    15    38    1
    27    16    17   ar
    28    16    39    1
    29    17    18   ar
    30    17    40    1
    31    18    19    1
    32    18    28   ar
    33    19    20    2
    34    19    21    2
    35    19    22    1
    36    22    23    1
    37    23    24    1
    38    23    41    1
    39    23    42    1
    40    24    25    1
    41    24    43    1
    42    24    44    1
    43    25    26    1
    44    25    45    1
    45    25    46    1
    46    26    27    1
    47    26    47    1
    48    26    48    1
    49    27    22    1
    50    27    49    1
    51    27    50    1
    52    28    14   ar
    53    28    51    1
@<TRIPOS>MOLECULE
*****
 51 53 0 0 0
SMALL
GASTEIGER

@<TRIPOS>ATOM
      1 O           3.8179   -3.0164   -0.8682 O.2     1  UNL11      -0.2739
      2 C           2.8414   -2.2895   -0.5582 C.2     1  UNL11       0.2334
      3 C           1.4891   -2.7063   -0.9921 C.3     1  UNL11       0.0505
      4 C           0.8218   -3.5614    0.0115 C.ar    1  UNL11      -0.0386
      5 C           1.1160   -3.4054    1.3448 C.ar    1  UNL11      -0.0581
      6 C           0.5353   -4.1721    2.3315 C.ar    1  UNL11      -0.0615
      7 C          -0.3735   -5.1340    1.9947 C.ar    1  UNL11      -0.0617
      8 C          -0.6840   -5.3075    0.6600 C.ar    1  UNL11      -0.0615
      9 C          -0.0915   -4.5264   -0.3336 C.ar    1  UNL11      -0.0581
     10 N           3.0675   -1.1124    0.1854 N.am    1  UNL11      -0.2339
     11 N           1.9501   -0.3108    0.5397 N.am    1  UNL11      -0.2304
     12 C           0.7934   -0.2632   -0.2740 C.2     1  UNL11       0.2602
     13 O           0.7679   -0.9426   -1.3194 O.2     1  UNL11      -0.2687
     14 C          -0.3365    0.5677    0.1123 C.ar    1  UNL11       0.0400
     15 C          -0.3609    1.3362    1.2508 C.ar    1  UNL11      -0.0495
     16 C          -1.4833    2.1095    1.5482 C.ar    1  UNL11      -0.0592
     17 C          -2.5911    2.1357    0.7337 C.ar    1  UNL11      -0.0353
     18 C          -2.5597    1.3628   -0.4055 C.ar    1  UNL11       0.1062
     19 S          -3.9534    1.3601   -1.4951 S.O2    1  UNL11       0.0609
     20 O          -5.1127    0.8768   -0.6690 O.2     1  UNL11      -0.1528
     21 O          -4.2344    2.7591   -1.9293 O.2     1  UNL11      -0.1528
     22 N          -3.7299    0.3433   -2.8141 N.3     1  UNL11      -0.1766
     23 C          -3.2840   -0.9717   -2.5202 C.3     1  UNL11       0.0205
     24 C          -3.3189   -1.9269   -3.6521 C.3     1  UNL11      -0.0385
     25 C          -3.8249   -1.3095   -4.9346 C.3     1  UNL11      -0.0506
     26 C          -3.2496    0.0604   -5.2031 C.3     1  UNL11      -0.0385
     27 C          -3.2293    0.9367   -3.9988 C.3     1  UNL11       0.0205
     28 C          -1.4605    0.6090   -0.6918 C.ar    1  UNL11      -0.0232
     29 H           0.8870   -1.7737   -1.1217 H       1  UNL11       0.0407
     30 H           1.5411   -3.1877   -2.0003 H       1  UNL11       0.0407
     31 H           1.8279   -2.6555    1.6410 H       1  UNL11       0.0620
     32 H           0.7920   -4.0205    3.3661 H       1  UNL11       0.0618
     33 H          -0.8638   -5.7673    2.7003 H       1  UNL11       0.0618
     34 H          -1.3995   -6.0581    0.3726 H       1  UNL11       0.0618
     35 H          -0.3391   -4.6657   -1.3903 H       1  UNL11       0.0620
     36 H           4.0159   -0.8277    0.4733 H       1  UNL11       0.1728
     37 H           2.0353    0.2159    1.4053 H       1  UNL11       0.1731
     38 H           0.4958    1.3419    1.9179 H       1  UNL11       0.0625
     39 H          -1.4487    2.6998    2.4642 H       1  UNL11       0.0618
     40 H          -3.4599    2.7360    0.9698 H       1  UNL11       0.0637
     41 H          -2.2549   -0.9145   -2.0938 H       1  UNL11       0.0444
     42 H          -3.9174   -1.3534   -1.6763 H       1  UNL11       0.0444
     43 H          -2.3439   -2.4408   -3.8355 H       1  UNL11       0.0278
     44 H          -4.0312   -2.7530   -3.4063 H       1  UNL11       0.0278
     45 H          -3.4597   -1.9762   -5.7715 H       1  UNL11       0.0266
     46 H          -4.9149   -1.3253   -4.9701 H       1  UNL11       0.0266
     47 H          -3.8773    0.5106   -6.0197 H       1  UNL11       0.0278
     48 H          -2.2345   -0.0380   -5.6416 H       1  UNL11       0.0278
     49 H          -3.7917    1.8662   -4.2137 H       1  UNL11       0.0444
     50 H          -2.1714    1.2483   -3.7938 H       1  UNL11       0.0444
     51 H          -1.4548    0.0096   -1.5891 H       1  UNL11       0.0644
@<TRIPOS>BOND
     1     1     2    2
     2     2     3    1
     3     2    10   am
     4     3     4    1
     5     3    29    1
     6     3    30    1
     7     4     5   ar
     8     5     6   ar
     9     5    31    1
    10     6     7   ar
    11     6    32    1
    12     7     8   ar
    13     7    33    1
    14     8     9   ar
    15     8    34    1
    16     9     4   ar
    17     9    35    1
    18    10    11    1
    19    10    36    1
    20    11    12   am
    21    11    37    1
    22    12    13    2
    23    12    14    1
    24    14    15   ar
    25    15    16   ar
    26    15    38    1
    27    16    17   ar
    28    16    39    1
    29    17    18   ar
    30    17    40    1
    31    18    19    1
    32    18    28   ar
    33    19    20    2
    34    19    21    2
    35    19    22    1
    36    22    23    1
    37    23    24    1
    38    23    41    1
    39    23    42    1
    40    24    25    1
    41    24    43    1
    42    24    44    1
    43    25    26    1
    44    25    45    1
    45    25    46    1
    46    26    27    1
    47    26    47    1
    48    26    48    1
    49    27    22    1
    50    27    49    1
    51    27    50    1
    52    28    14   ar
    53    28    51    1
@<TRIPOS>MOLECULE
*****
 51 53 0 0 0
SMALL
GASTEIGER

@<TRIPOS>ATOM
      1 O           3.8882   -2.4007   -1.9869 O.2     1  UNL11      -0.2739
      2 C           2.9216   -1.6822   -1.6297 C.2     1  UNL11       0.2334
      3 C           3.1493   -0.2291   -1.4644 C.3     1  UNL11       0.0505
      4 C           4.5396    0.0743   -1.0660 C.ar    1  UNL11      -0.0386
      5 C           5.5597   -0.7572   -1.4616 C.ar    1  UNL11      -0.0581
      6 C           6.8766   -0.5366   -1.1210 C.ar    1  UNL11      -0.0615
      7 C           7.2063    0.5473   -0.3586 C.ar    1  UNL11      -0.0617
      8 C           6.1962    1.3963    0.0498 C.ar    1  UNL11      -0.0615
      9 C           4.8646    1.1660   -0.2998 C.ar    1  UNL11      -0.0581
     10 N           1.6655   -2.2815   -1.4008 N.am    1  UNL11      -0.2339
     11 N           0.5806   -1.4517   -1.0120 N.am    1  UNL11      -0.2304
     12 C           0.7934   -0.2632   -0.2740 C.2     1  UNL11       0.2602
     13 O           1.9605    0.0496    0.0347 O.2     1  UNL11      -0.2687
     14 C          -0.3365    0.5677    0.1123 C.ar    1  UNL11       0.0400
     15 C          -0.3609    1.3362    1.2508 C.ar    1  UNL11      -0.0495
     16 C          -1.4833    2.1095    1.5482 C.ar    1  UNL11      -0.0592
     17 C          -2.5911    2.1357    0.7337 C.ar    1  UNL11      -0.0353
     18 C          -2.5597    1.3628   -0.4055 C.ar    1  UNL11       0.1062
     19 S          -3.9534    1.3601   -1.4951 S.O2    1  UNL11       0.0609
     20 O          -4.5871    2.7152   -1.3459 O.2     1  UNL11      -0.1528
     21 O          -3.4727    1.2163   -2.8997 O.2     1  UNL11      -0.1528
     22 N          -5.0666    0.1638   -1.1038 N.3     1  UNL11      -0.1766
     23 C          -4.6643   -1.1724   -1.3635 C.3     1  UNL11       0.0205
     24 C          -5.5416   -2.2254   -0.8009 C.3     1  UNL11      -0.0385
     25 C          -6.7276   -1.6701   -0.0479 C.3     1  UNL11      -0.0506
     26 C          -7.3975   -0.5184   -0.7582 C.3     1  UNL11      -0.0385
     27 C          -6.4331    0.4709   -1.3148 C.3     1  UNL11       0.0205
     28 C          -1.4605    0.6090   -0.6918 C.ar    1  UNL11      -0.0232
     29 H           2.9516    0.2463   -2.4563 H       1  UNL11       0.0407
     30 H           2.3965    0.1991   -0.7568 H       1  UNL11       0.0407
     31 H           5.3312   -1.6189   -2.0633 H       1  UNL11       0.0620
     32 H           7.6484   -1.2114   -1.4498 H       1  UNL11       0.0618
     33 H           8.2014    0.7838   -0.0536 H       1  UNL11       0.0618
     34 H           6.4340    2.2578    0.6491 H       1  UNL11       0.0618
     35 H           4.0661    1.8401    0.0250 H       1  UNL11       0.0620
     36 H           1.5221   -3.2969   -1.5099 H       1  UNL11       0.1728
     37 H          -0.3442   -1.7631   -1.2978 H       1  UNL11       0.1731
     38 H           0.4958    1.3419    1.9179 H       1  UNL11       0.0625
     39 H          -1.4487    2.6998    2.4642 H       1  UNL11       0.0618
     40 H          -3.4599    2.7360    0.9698 H       1  UNL11       0.0637
     41 H          -4.5566   -1.3066   -2.4656 H       1  UNL11       0.0444
     42 H          -3.6224   -1.2864   -0.9629 H       1  UNL11       0.0444
     43 H          -5.8861   -2.9730   -1.5563 H       1  UNL11       0.0278
     44 H          -4.9580   -2.8235   -0.0580 H       1  UNL11       0.0278
     45 H          -7.4914   -2.5026   -0.0038 H       1  UNL11       0.0266
     46 H          -6.4580   -1.4331    0.9821 H       1  UNL11       0.0266
     47 H          -8.0793   -0.0379   -0.0047 H       1  UNL11       0.0278
     48 H          -8.0719   -0.9067   -1.5500 H       1  UNL11       0.0278
     49 H          -6.6561    1.4726   -0.8985 H       1  UNL11       0.0444
     50 H          -6.5899    0.5476   -2.4228 H       1  UNL11       0.0444
     51 H          -1.4548    0.0096   -1.5891 H       1  UNL11       0.0644
@<TRIPOS>BOND
     1     1     2    2
     2     2     3    1
     3     2    10   am
     4     3     4    1
     5     3    29    1
     6     3    30    1
     7     4     5   ar
     8     5     6   ar
     9     5    31    1
    10     6     7   ar
    11     6    32    1
    12     7     8   ar
    13     7    33    1
    14     8     9   ar
    15     8    34    1
    16     9     4   ar
    17     9    35    1
    18    10    11    1
    19    10    36    1
    20    11    12   am
    21    11    37    1
    22    12    13    2
    23    12    14    1
    24    14    15   ar
    25    15    16   ar
    26    15    38    1
    27    16    17   ar
    28    16    39    1
    29    17    18   ar
    30    17    40    1
    31    18    19    1
    32    18    28   ar
    33    19    20    2
    34    19    21    2
    35    19    22    1
    36    22    23    1
    37    23    24    1
    38    23    41    1
    39    23    42    1
    40    24    25    1
    41    24    43    1
    42    24    44    1
    43    25    26    1
    44    25    45    1
    45    25    46    1
    46    26    27    1
    47    26    47    1
    48    26    48    1
    49    27    22    1
    50    27    49    1
    51    27    50    1
    52    28    14   ar
    53    28    51    1
@<TRIPOS>MOLECULE
*****
 51 53 0 0 0
SMALL
GASTEIGER

@<TRIPOS>ATOM
      1 O          -1.3693   -1.7073   -4.2725 O.2     1  UNL11      -0.2739
      2 C          -0.3803   -1.7497   -3.4992 C.2     1  UNL11       0.2334
      3 C           0.7552   -2.6288   -3.8578 C.3     1  UNL11       0.0505
      4 C           2.0436   -2.1047   -3.3589 C.ar    1  UNL11      -0.0386
      5 C           3.2055   -2.7918   -3.6166 C.ar    1  UNL11      -0.0581
      6 C           4.4390   -2.3630   -3.1767 C.ar    1  UNL11      -0.0615
      7 C           4.5360   -1.2098   -2.4521 C.ar    1  UNL11      -0.0617
      8 C           3.3803   -0.5033   -2.1817 C.ar    1  UNL11      -0.0615
      9 C           2.1345   -0.9442   -2.6313 C.ar    1  UNL11      -0.0581
     10 N          -0.3882   -0.9652   -2.3270 N.am    1  UNL11      -0.2339
     11 N           0.7448   -1.0145   -1.4721 N.am    1  UNL11      -0.2304
     12 C           0.7934   -0.2632   -0.2740 C.2     1  UNL11       0.2602
     13 O           1.8170   -0.3317    0.4350 O.2     1  UNL11      -0.2687
     14 C          -0.3365    0.5677    0.1123 C.ar    1  UNL11       0.0400
     15 C          -0.3609    1.3362    1.2508 C.ar    1  UNL11      -0.0495
     16 C          -1.4833    2.1095    1.5482 C.ar    1  UNL11      -0.0592
     17 C          -2.5911    2.1357    0.7337 C.ar    1  UNL11      -0.0353
     18 C          -2.5597    1.3628   -0.4055 C.ar    1  UNL11       0.1062
     19 S          -3.9534    1.3601   -1.4951 S.O2    1  UNL11       0.0609
     20 O          -3.5938    0.4189   -2.6108 O.2     1  UNL11      -0.1528
     21 O          -5.1348    0.8058   -0.7728 O.2     1  UNL11      -0.1528
     22 N          -4.2783    2.8862   -2.1189 N.3     1  UNL11      -0.1766
     23 C          -5.1765    3.6890   -1.3685 C.3     1  UNL11       0.0205
     24 C          -5.2721    5.1063   -1.7894 C.3     1  UNL11      -0.0385
     25 C          -4.3846    5.4372   -2.9662 C.3     1  UNL11      -0.0506
     26 C          -4.4210    4.3891   -4.0524 C.3     1  UNL11      -0.0385
     27 C          -4.3500    2.9963   -3.5291 C.3     1  UNL11       0.0205
     28 C          -1.4605    0.6090   -0.6918 C.ar    1  UNL11      -0.0232
     29 H           0.5641   -3.6197   -3.3775 H       1  UNL11       0.0407
     30 H           0.7645   -2.8127   -4.9610 H       1  UNL11       0.0407
     31 H           3.1610   -3.7036   -4.1854 H       1  UNL11       0.0620
     32 H           5.3274   -2.9294   -3.3984 H       1  UNL11       0.0618
     33 H           5.4536   -0.8147   -2.0762 H       1  UNL11       0.0618
     34 H           3.4341    0.4096   -1.6145 H       1  UNL11       0.0618
     35 H           1.2203   -0.3828   -2.4158 H       1  UNL11       0.0620
     36 H          -1.1899   -0.3642   -2.0832 H       1  UNL11       0.1728
     37 H           1.5051   -1.6188   -1.7732 H       1  UNL11       0.1731
     38 H           0.4958    1.3419    1.9179 H       1  UNL11       0.0625
     39 H          -1.4487    2.6998    2.4642 H       1  UNL11       0.0618
     40 H          -3.4599    2.7360    0.9698 H       1  UNL11       0.0637
     41 H          -6.1844    3.2115   -1.3858 H       1  UNL11       0.0444
     42 H          -4.8547    3.6284   -0.2953 H       1  UNL11       0.0444
     43 H          -6.3174    5.4439   -1.9939 H       1  UNL11       0.0278
     44 H          -4.9248    5.7573   -0.9493 H       1  UNL11       0.0278
     45 H          -4.8054    6.3819   -3.4231 H       1  UNL11       0.0266
     46 H          -3.3714    5.6695   -2.6359 H       1  UNL11       0.0266
     47 H          -3.5532    4.6101   -4.7319 H       1  UNL11       0.0278
     48 H          -5.3236    4.5327   -4.6826 H       1  UNL11       0.0278
     49 H          -3.4842    2.4782   -3.9856 H       1  UNL11       0.0444
     50 H          -5.2636    2.4364   -3.8609 H       1  UNL11       0.0444
     51 H          -1.4548    0.0096   -1.5891 H       1  UNL11       0.0644
@<TRIPOS>BOND
     1     1     2    2
     2     2     3    1
     3     2    10   am
     4     3     4    1
     5     3    29    1
     6     3    30    1
     7     4     5   ar
     8     5     6   ar
     9     5    31    1
    10     6     7   ar
    11     6    32    1
    12     7     8   ar
    13     7    33    1
    14     8     9   ar
    15     8    34    1
    16     9     4   ar
    17     9    35    1
    18    10    11    1
    19    10    36    1
    20    11    12   am
    21    11    37    1
    22    12    13    2
    23    12    14    1
    24    14    15   ar
    25    15    16   ar
    26    15    38    1
    27    16    17   ar
    28    16    39    1
    29    17    18   ar
    30    17    40    1
    31    18    19    1
    32    18    28   ar
    33    19    20    2
    34    19    21    2
    35    19    22    1
    36    22    23    1
    37    23    24    1
    38    23    41    1
    39    23    42    1
    40    24    25    1
    41    24    43    1
    42    24    44    1
    43    25    26    1
    44    25    45    1
    45    25    46    1
    46    26    27    1
    47    26    47    1
    48    26    48    1
    49    27    22    1
    50    27    49    1
    51    27    50    1
    52    28    14   ar
    53    28    51    1
@<TRIPOS>MOLECULE
*****
 51 53 0 0 0
SMALL
GASTEIGER

@<TRIPOS>ATOM
      1 O           1.6771    3.4128    1.3954 O.2     1  UNL11      -0.2739
      2 C           1.4663    2.3660    0.7338 C.2     1  UNL11       0.2334
      3 C           0.2881    2.3253   -0.1611 C.3     1  UNL11       0.0505
      4 C          -0.8156    3.1744    0.3335 C.ar    1  UNL11      -0.0386
      5 C          -0.9645    3.3820    1.6838 C.ar    1  UNL11      -0.0581
      6 C          -1.9737    4.1569    2.2126 C.ar    1  UNL11      -0.0615
      7 C          -2.8762    4.7538    1.3796 C.ar    1  UNL11      -0.0617
      8 C          -2.7449    4.5584    0.0186 C.ar    1  UNL11      -0.0615
      9 C          -1.7194    3.7722   -0.5093 C.ar    1  UNL11      -0.0581
     10 N           2.3525    1.2767    0.8670 N.am    1  UNL11      -0.2339
     11 N           2.1070    0.1070    0.1000 N.am    1  UNL11      -0.2304
     12 C           0.7934   -0.2632   -0.2740 C.2     1  UNL11       0.2602
     13 O           0.6308   -1.3069   -0.9368 O.2     1  UNL11      -0.2687
     14 C          -0.3365    0.5677    0.1123 C.ar    1  UNL11       0.0400
     15 C          -0.3609    1.3362    1.2508 C.ar    1  UNL11      -0.0495
     16 C          -1.4833    2.1095    1.5482 C.ar    1  UNL11      -0.0592
     17 C          -2.5911    2.1357    0.7337 C.ar    1  UNL11      -0.0353
     18 C          -2.5597    1.3628   -0.4055 C.ar    1  UNL11       0.1062
     19 S          -3.9534    1.3601   -1.4951 S.O2    1  UNL11       0.0609
     20 O          -4.4230   -0.0670   -1.5489 O.2     1  UNL11      -0.1528
     21 O          -5.0388    2.1916   -0.8991 O.2     1  UNL11      -0.1528
     22 N          -3.5563    1.8884   -3.0400 N.3     1  UNL11      -0.1766
     23 C          -2.7534    1.0097   -3.8131 C.3     1  UNL11       0.0205
     24 C          -2.6081    1.3677   -5.2434 C.3     1  UNL11      -0.0385
     25 C          -3.3494    2.6296   -5.6178 C.3     1  UNL11      -0.0506
     26 C          -3.1844    3.7389   -4.6069 C.3     1  UNL11      -0.0385
     27 C          -3.3174    3.2756   -3.1975 C.3     1  UNL11       0.0205
     28 C          -1.4605    0.6090   -0.6918 C.ar    1  UNL11      -0.0232
     29 H           0.6199    2.7159   -1.1542 H       1  UNL11       0.0407
     30 H          -0.0280    1.2661   -0.3314 H       1  UNL11       0.0407
     31 H          -0.2686    2.9252    2.3650 H       1  UNL11       0.0620
     32 H          -2.0580    4.2958    3.2770 H       1  UNL11       0.0618
     33 H          -3.6845    5.3660    1.7132 H       1  UNL11       0.0618
     34 H          -3.4436    5.0216   -0.6561 H       1  UNL11       0.0618
     35 H          -1.6174    3.6189   -1.5879 H       1  UNL11       0.0620
     36 H           3.1645    1.3139    1.5015 H       1  UNL11       0.1728
     37 H           2.9263   -0.4361   -0.1603 H       1  UNL11       0.1731
     38 H           0.4958    1.3419    1.9179 H       1  UNL11       0.0625
     39 H          -1.4487    2.6998    2.4642 H       1  UNL11       0.0618
     40 H          -3.4599    2.7360    0.9698 H       1  UNL11       0.0637
     41 H          -1.7507    0.9234   -3.3321 H       1  UNL11       0.0444
     42 H          -3.2005   -0.0150   -3.7176 H       1  UNL11       0.0444
     43 H          -1.5459    1.4349   -5.5833 H       1  UNL11       0.0278
     44 H          -3.0527    0.5531   -5.8671 H       1  UNL11       0.0278
     45 H          -2.8770    3.0008   -6.5756 H       1  UNL11       0.0266
     46 H          -4.3946    2.4142   -5.8431 H       1  UNL11       0.0266
     47 H          -3.9652    4.5087   -4.8545 H       1  UNL11       0.0278
     48 H          -2.2132    4.2522   -4.7678 H       1  UNL11       0.0278
     49 H          -4.1229    3.8491   -2.6989 H       1  UNL11       0.0444
     50 H          -2.3710    3.5154   -2.6453 H       1  UNL11       0.0444
     51 H          -1.4548    0.0096   -1.5891 H       1  UNL11       0.0644
@<TRIPOS>BOND
     1     1     2    2
     2     2     3    1
     3     2    10   am
     4     3     4    1
     5     3    29    1
     6     3    30    1
     7     4     5   ar
     8     5     6   ar
     9     5    31    1
    10     6     7   ar
    11     6    32    1
    12     7     8   ar
    13     7    33    1
    14     8     9   ar
    15     8    34    1
    16     9     4   ar
    17     9    35    1
    18    10    11    1
    19    10    36    1
    20    11    12   am
    21    11    37    1
    22    12    13    2
    23    12    14    1
    24    14    15   ar
    25    15    16   ar
    26    15    38    1
    27    16    17   ar
    28    16    39    1
    29    17    18   ar
    30    17    40    1
    31    18    19    1
    32    18    28   ar
    33    19    20    2
    34    19    21    2
    35    19    22    1
    36    22    23    1
    37    23    24    1
    38    23    41    1
    39    23    42    1
    40    24    25    1
    41    24    43    1
    42    24    44    1
    43    25    26    1
    44    25    45    1
    45    25    46    1
    46    26    27    1
    47    26    47    1
    48    26    48    1
    49    27    22    1
    50    27    49    1
    51    27    50    1
    52    28    14   ar
    53    28    51    1
@<TRIPOS>MOLECULE
*****
 51 53 0 0 0
SMALL
GASTEIGER

@<TRIPOS>ATOM
      1 O          -1.0960    1.8188   -3.2979 O.2     1  UNL11      -0.2739
      2 C          -0.3693    1.3068   -2.4104 C.2     1  UNL11       0.2334
      3 C          -0.2035    2.0337   -1.1319 C.3     1  UNL11       0.0505
      4 C          -1.3895    2.8497   -0.7981 C.ar    1  UNL11      -0.0386
      5 C          -1.2388    4.0088   -0.0754 C.ar    1  UNL11      -0.0581
      6 C          -2.3015    4.8131    0.2748 C.ar    1  UNL11      -0.0615
      7 C          -3.5671    4.4643   -0.1008 C.ar    1  UNL11      -0.0617
      8 C          -3.7412    3.3030   -0.8282 C.ar    1  UNL11      -0.0615
      9 C          -2.6593    2.4938   -1.1792 C.ar    1  UNL11      -0.0581
     10 N           0.2572    0.0685   -2.6628 N.am    1  UNL11      -0.2339
     11 N           1.0631   -0.5025   -1.6424 N.am    1  UNL11      -0.2304
     12 C           0.7934   -0.2632   -0.2740 C.2     1  UNL11       0.2602
     13 O           1.5393   -0.7779    0.5826 O.2     1  UNL11      -0.2687
     14 C          -0.3365    0.5677    0.1123 C.ar    1  UNL11       0.0400
     15 C          -0.3609    1.3362    1.2508 C.ar    1  UNL11      -0.0495
     16 C          -1.4833    2.1095    1.5482 C.ar    1  UNL11      -0.0592
     17 C          -2.5911    2.1357    0.7337 C.ar    1  UNL11      -0.0353
     18 C          -2.5597    1.3628   -0.4055 C.ar    1  UNL11       0.1062
     19 S          -3.9534    1.3601   -1.4951 S.O2    1  UNL11       0.0609
     20 O          -4.5871    2.7152   -1.3459 O.2     1  UNL11      -0.1528
     21 O          -3.4727    1.2163   -2.8997 O.2     1  UNL11      -0.1528
     22 N          -5.0666    0.1638   -1.1038 N.3     1  UNL11      -0.1766
     23 C          -4.5402   -1.1405   -0.9130 C.3     1  UNL11       0.0205
     24 C          -5.4798   -2.1318   -0.3390 C.3     1  UNL11      -0.0385
     25 C          -6.8514   -1.5608   -0.0658 C.3     1  UNL11      -0.0506
     26 C          -7.3660   -0.6871   -1.1846 C.3     1  UNL11      -0.0385
     27 C          -6.3409    0.2541   -1.7155 C.3     1  UNL11       0.0205
     28 C          -1.4605    0.6090   -0.6918 C.ar    1  UNL11      -0.0232
     29 H          -0.0663    1.2628   -0.3345 H       1  UNL11       0.0407
     30 H           0.7396    2.6346   -1.1516 H       1  UNL11       0.0407
     31 H          -0.2538    4.3100    0.2344 H       1  UNL11       0.0620
     32 H          -2.1434    5.7142    0.8425 H       1  UNL11       0.0618
     33 H          -4.4391    5.0337    0.1332 H       1  UNL11       0.0618
     34 H          -4.7298    3.0106   -1.1367 H       1  UNL11       0.0618
     35 H          -2.7997    1.5743   -1.7555 H       1  UNL11       0.0620
     36 H           0.1417   -0.4234   -3.5618 H       1  UNL11       0.1728
     37 H           1.8328   -1.0878   -1.9567 H       1  UNL11       0.1731
     38 H           0.4958    1.3419    1.9179 H       1  UNL11       0.0625
     39 H          -1.4487    2.6998    2.4642 H       1  UNL11       0.0618
     40 H          -3.4599    2.7360    0.9698 H       1  UNL11       0.0637
     41 H          -4.1346   -1.5092   -1.8844 H       1  UNL11       0.0444
     42 H          -3.6391   -1.0385   -0.2523 H       1  UNL11       0.0444
     43 H          -5.5700   -3.0668   -0.9439 H       1  UNL11       0.0278
     44 H          -5.0859   -2.4729    0.6503 H       1  UNL11       0.0278
     45 H          -7.5546   -2.4441   -0.0045 H       1  UNL11       0.0266
     46 H          -6.8800   -1.0655    0.9055 H       1  UNL11       0.0266
     47 H          -8.2488   -0.1298   -0.7678 H       1  UNL11       0.0278
     48 H          -7.7827   -1.3213   -1.9950 H       1  UNL11       0.0278
     49 H          -6.7192    1.2915   -1.6318 H       1  UNL11       0.0444
     50 H          -6.1993    0.0573   -2.8107 H       1  UNL11       0.0444
     51 H          -1.4548    0.0096   -1.5891 H       1  UNL11       0.0644
@<TRIPOS>BOND
     1     1     2    2
     2     2     3    1
     3     2    10   am
     4     3     4    1
     5     3    29    1
     6     3    30    1
     7     4     5   ar
     8     5     6   ar
     9     5    31    1
    10     6     7   ar
    11     6    32    1
    12     7     8   ar
    13     7    33    1
    14     8     9   ar
    15     8    34    1
    16     9     4   ar
    17     9    35    1
    18    10    11    1
    19    10    36    1
    20    11    12   am
    21    11    37    1
    22    12    13    2
    23    12    14    1
    24    14    15   ar
    25    15    16   ar
    26    15    38    1
    27    16    17   ar
    28    16    39    1
    29    17    18   ar
    30    17    40    1
    31    18    19    1
    32    18    28   ar
    33    19    20    2
    34    19    21    2
    35    19    22    1
    36    22    23    1
    37    23    24    1
    38    23    41    1
    39    23    42    1
    40    24    25    1
    41    24    43    1
    42    24    44    1
    43    25    26    1
    44    25    45    1
    45    25    46    1
    46    26    27    1
    47    26    47    1
    48    26    48    1
    49    27    22    1
    50    27    49    1
    51    27    50    1
    52    28    14   ar
    53    28    51    1
@<TRIPOS>MOLECULE
*****
 51 53 0 0 0
SMALL
GASTEIGER

@<TRIPOS>ATOM
      1 O           2.3347   -4.1964   -2.4886 O.2     1  UNL11      -0.2739
      2 C           1.3875   -3.4449   -2.1482 C.2     1  UNL11       0.2334
      3 C           0.0135   -3.8192   -2.5517 C.3     1  UNL11       0.0505
      4 C          -0.6530   -4.6640   -1.5389 C.ar    1  UNL11      -0.0386
      5 C          -0.3216   -4.5285   -0.2121 C.ar    1  UNL11      -0.0581
      6 C          -0.8994   -5.2873    0.7824 C.ar    1  UNL11      -0.0615
      7 C          -1.8434   -6.2199    0.4605 C.ar    1  UNL11      -0.0617
      8 C          -2.1916   -6.3724   -0.8674 C.ar    1  UNL11      -0.0615
      9 C          -1.6018   -5.5996   -1.8691 C.ar    1  UNL11      -0.0581
     10 N           1.6655   -2.2815   -1.4008 N.am    1  UNL11      -0.2339
     11 N           0.5806   -1.4517   -1.0120 N.am    1  UNL11      -0.2304
     12 C           0.7934   -0.2632   -0.2740 C.2     1  UNL11       0.2602
     13 O           1.9605    0.0496    0.0347 O.2     1  UNL11      -0.2687
     14 C          -0.3365    0.5677    0.1123 C.ar    1  UNL11       0.0400
     15 C          -0.3609    1.3362    1.2508 C.ar    1  UNL11      -0.0495
     16 C          -1.4833    2.1095    1.5482 C.ar    1  UNL11      -0.0592
     17 C          -2.5911    2.1357    0.7337 C.ar    1  UNL11      -0.0353
     18 C          -2.5597    1.3628   -0.4055 C.ar    1  UNL11       0.1062
     19 S          -3.9534    1.3601   -1.4951 S.O2    1  UNL11       0.0609
     20 O          -4.9587    2.2865   -0.8696 O.2     1  UNL11      -0.1528
     21 O          -3.5431    1.9288   -2.8115 O.2     1  UNL11      -0.1528
     22 N          -4.6219   -0.1714   -1.6719 N.3     1  UNL11      -0.1766
     23 C          -5.3079   -0.6874   -0.5416 C.3     1  UNL11       0.0205
     24 C          -6.0928   -1.9215   -0.7781 C.3     1  UNL11      -0.0385
     25 C          -6.0088   -2.4143   -2.2036 C.3     1  UNL11      -0.0506
     26 C          -4.6096   -2.3656   -2.7688 C.3     1  UNL11      -0.0385
     27 C          -3.8910   -1.0997   -2.4530 C.3     1  UNL11       0.0205
     28 C          -1.4605    0.6090   -0.6918 C.ar    1  UNL11      -0.0232
     29 H          -0.5647   -2.8688   -2.6585 H       1  UNL11       0.0407
     30 H           0.0266   -4.2928   -3.5648 H       1  UNL11       0.0407
     31 H           0.4186   -3.8018    0.0725 H       1  UNL11       0.0620
     32 H          -0.6129   -5.1523    1.8115 H       1  UNL11       0.0618
     33 H          -2.3340   -6.8453    1.1728 H       1  UNL11       0.0618
     34 H          -2.9353   -7.0998   -1.1432 H       1  UNL11       0.0618
     35 H          -1.8794   -5.7222   -2.9204 H       1  UNL11       0.0620
     36 H           2.6285   -2.0265   -1.1343 H       1  UNL11       0.1728
     37 H          -0.3442   -1.7631   -1.2978 H       1  UNL11       0.1731
     38 H           0.4958    1.3419    1.9179 H       1  UNL11       0.0625
     39 H          -1.4487    2.6998    2.4642 H       1  UNL11       0.0618
     40 H          -3.4599    2.7360    0.9698 H       1  UNL11       0.0637
     41 H          -4.5724   -0.8484    0.2815 H       1  UNL11       0.0444
     42 H          -5.9795    0.1280   -0.1633 H       1  UNL11       0.0444
     43 H          -5.8459   -2.7521   -0.0728 H       1  UNL11       0.0278
     44 H          -7.1735   -1.7042   -0.5907 H       1  UNL11       0.0278
     45 H          -6.3025   -3.5059   -2.1780 H       1  UNL11       0.0266
     46 H          -6.7383   -1.9051   -2.8346 H       1  UNL11       0.0266
     47 H          -4.7139   -2.5047   -3.8793 H       1  UNL11       0.0278
     48 H          -4.0333   -3.2485   -2.4212 H       1  UNL11       0.0278
     49 H          -3.5689   -0.6173   -3.3964 H       1  UNL11       0.0444
     50 H          -2.9535   -1.3450   -1.8881 H       1  UNL11       0.0444
     51 H          -1.4548    0.0096   -1.5891 H       1  UNL11       0.0644
@<TRIPOS>BOND
     1     1     2    2
     2     2     3    1
     3     2    10   am
     4     3     4    1
     5     3    29    1
     6     3    30    1
     7     4     5   ar
     8     5     6   ar
     9     5    31    1
    10     6     7   ar
    11     6    32    1
    12     7     8   ar
    13     7    33    1
    14     8     9   ar
    15     8    34    1
    16     9     4   ar
    17     9    35    1
    18    10    11    1
    19    10    36    1
    20    11    12   am
    21    11    37    1
    22    12    13    2
    23    12    14    1
    24    14    15   ar
    25    15    16   ar
    26    15    38    1
    27    16    17   ar
    28    16    39    1
    29    17    18   ar
    30    17    40    1
    31    18    19    1
    32    18    28   ar
    33    19    20    2
    34    19    21    2
    35    19    22    1
    36    22    23    1
    37    23    24    1
    38    23    41    1
    39    23    42    1
    40    24    25    1
    41    24    43    1
    42    24    44    1
    43    25    26    1
    44    25    45    1
    45    25    46    1
    46    26    27    1
    47    26    47    1
    48    26    48    1
    49    27    22    1
    50    27    49    1
    51    27    50    1
    52    28    14   ar
    53    28    51    1
@<TRIPOS>MOLECULE
*****
 51 53 0 0 0
SMALL
GASTEIGER

@<TRIPOS>ATOM
      1 O           0.9675   -1.3495   -4.1471 O.2     1  UNL11      -0.2739
      2 C          -0.1937   -1.1491   -3.7119 C.2     1  UNL11       0.2334
      3 C          -1.3115   -1.1146   -4.6814 C.3     1  UNL11       0.0505
      4 C          -2.3233   -2.1545   -4.4010 C.ar    1  UNL11      -0.0386
      5 C          -3.6199   -1.7891   -4.1289 C.ar    1  UNL11      -0.0581
      6 C          -4.6111   -2.7059   -3.8535 C.ar    1  UNL11      -0.0615
      7 C          -4.3166   -4.0392   -3.8447 C.ar    1  UNL11      -0.0617
      8 C          -3.0194   -4.4285   -4.1158 C.ar    1  UNL11      -0.0615
      9 C          -2.0209   -3.4935   -4.3942 C.ar    1  UNL11      -0.0581
     10 N          -0.3882   -0.9652   -2.3270 N.am    1  UNL11      -0.2339
     11 N           0.7448   -1.0145   -1.4721 N.am    1  UNL11      -0.2304
     12 C           0.7934   -0.2632   -0.2740 C.2     1  UNL11       0.2602
     13 O           1.8170   -0.3317    0.4350 O.2     1  UNL11      -0.2687
     14 C          -0.3365    0.5677    0.1123 C.ar    1  UNL11       0.0400
     15 C          -0.3609    1.3362    1.2508 C.ar    1  UNL11      -0.0495
     16 C          -1.4833    2.1095    1.5482 C.ar    1  UNL11      -0.0592
     17 C          -2.5911    2.1357    0.7337 C.ar    1  UNL11      -0.0353
     18 C          -2.5597    1.3628   -0.4055 C.ar    1  UNL11       0.1062
     19 S          -3.9534    1.3601   -1.4951 S.O2    1  UNL11       0.0609
     20 O          -4.4230   -0.0670   -1.5489 O.2     1  UNL11      -0.1528
     21 O          -5.0388    2.1916   -0.8991 O.2     1  UNL11      -0.1528
     22 N          -3.5563    1.8884   -3.0400 N.3     1  UNL11      -0.1766
     23 C          -3.2603    3.2704   -3.1703 C.3     1  UNL11       0.0205
     24 C          -2.6833    3.6811   -4.4716 C.3     1  UNL11      -0.0385
     25 C          -2.5214    2.5317   -5.4384 C.3     1  UNL11      -0.0506
     26 C          -3.7164    1.6094   -5.4719 C.3     1  UNL11      -0.0385
     27 C          -4.2428    1.2786   -4.1184 C.3     1  UNL11       0.0205
     28 C          -1.4605    0.6090   -0.6918 C.ar    1  UNL11      -0.0232
     29 H          -1.7955   -0.1119   -4.5847 H       1  UNL11       0.0407
     30 H          -0.9154   -1.1713   -5.7258 H       1  UNL11       0.0407
     31 H          -3.8824   -0.7461   -4.1289 H       1  UNL11       0.0620
     32 H          -5.6160   -2.3807   -3.6444 H       1  UNL11       0.0618
     33 H          -5.0282   -4.8078   -3.6393 H       1  UNL11       0.0618
     34 H          -2.7659   -5.4743   -4.1166 H       1  UNL11       0.0618
     35 H          -0.9939   -3.8043   -4.6087 H       1  UNL11       0.0620
     36 H          -1.3248   -0.7971   -1.9295 H       1  UNL11       0.1728
     37 H           1.5051   -1.6188   -1.7732 H       1  UNL11       0.1731
     38 H           0.4958    1.3419    1.9179 H       1  UNL11       0.0625
     39 H          -1.4487    2.6998    2.4642 H       1  UNL11       0.0618
     40 H          -3.4599    2.7360    0.9698 H       1  UNL11       0.0637
     41 H          -4.1843    3.8569   -2.9545 H       1  UNL11       0.0444
     42 H          -2.5571    3.5367   -2.3376 H       1  UNL11       0.0444
     43 H          -3.2367    4.5176   -4.9637 H       1  UNL11       0.0278
     44 H          -1.6552    4.0857   -4.2997 H       1  UNL11       0.0278
     45 H          -2.4483    2.9932   -6.4680 H       1  UNL11       0.0266
     46 H          -1.5838    2.0035   -5.2610 H       1  UNL11       0.0266
     47 H          -3.3831    0.6824   -6.0134 H       1  UNL11       0.0278
     48 H          -4.5105    2.0469   -6.1126 H       1  UNL11       0.0278
     49 H          -4.2411    0.1793   -3.9843 H       1  UNL11       0.0444
     50 H          -5.3149    1.6024   -4.0562 H       1  UNL11       0.0444
     51 H          -1.4548    0.0096   -1.5891 H       1  UNL11       0.0644
@<TRIPOS>BOND
     1     1     2    2
     2     2     3    1
     3     2    10   am
     4     3     4    1
     5     3    29    1
     6     3    30    1
     7     4     5   ar
     8     5     6   ar
     9     5    31    1
    10     6     7   ar
    11     6    32    1
    12     7     8   ar
    13     7    33    1
    14     8     9   ar
    15     8    34    1
    16     9     4   ar
    17     9    35    1
    18    10    11    1
    19    10    36    1
    20    11    12   am
    21    11    37    1
    22    12    13    2
    23    12    14    1
    24    14    15   ar
    25    15    16   ar
    26    15    38    1
    27    16    17   ar
    28    16    39    1
    29    17    18   ar
    30    17    40    1
    31    18    19    1
    32    18    28   ar
    33    19    20    2
    34    19    21    2
    35    19    22    1
    36    22    23    1
    37    23    24    1
    38    23    41    1
    39    23    42    1
    40    24    25    1
    41    24    43    1
    42    24    44    1
    43    25    26    1
    44    25    45    1
    45    25    46    1
    46    26    27    1
    47    26    47    1
    48    26    48    1
    49    27    22    1
    50    27    49    1
    51    27    50    1
    52    28    14   ar
    53    28    51    1
@<TRIPOS>MOLECULE
*****
 51 53 0 0 0
SMALL
GASTEIGER

@<TRIPOS>ATOM
      1 O           3.8882   -2.4007   -1.9869 O.2     1  UNL11      -0.2739
      2 C           2.9216   -1.6822   -1.6297 C.2     1  UNL11       0.2334
      3 C           3.1493   -0.2291   -1.4644 C.3     1  UNL11       0.0505
      4 C           3.5617    0.1162   -0.0880 C.ar    1  UNL11      -0.0386
      5 C           4.2634   -0.7958    0.6633 C.ar    1  UNL11      -0.0581
      6 C           4.6734   -0.5413    1.9539 C.ar    1  UNL11      -0.0615
      7 C           4.3819    0.6608    2.5323 C.ar    1  UNL11      -0.0617
      8 C           3.6775    1.5924    1.7947 C.ar    1  UNL11      -0.0615
      9 C           3.2659    1.3269    0.4875 C.ar    1  UNL11      -0.0581
     10 N           1.6655   -2.2815   -1.4008 N.am    1  UNL11      -0.2339
     11 N           0.5806   -1.4517   -1.0120 N.am    1  UNL11      -0.2304
     12 C           0.7934   -0.2632   -0.2740 C.2     1  UNL11       0.2602
     13 O           1.9605    0.0496    0.0347 O.2     1  UNL11      -0.2687
     14 C          -0.3365    0.5677    0.1123 C.ar    1  UNL11       0.0400
     15 C          -0.3609    1.3362    1.2508 C.ar    1  UNL11      -0.0495
     16 C          -1.4833    2.1095    1.5482 C.ar    1  UNL11      -0.0592
     17 C          -2.5911    2.1357    0.7337 C.ar    1  UNL11      -0.0353
     18 C          -2.5597    1.3628   -0.4055 C.ar    1  UNL11       0.1062
     19 S          -3.9534    1.3601   -1.4951 S.O2    1  UNL11       0.0609
     20 O          -5.1127    0.8768   -0.6690 O.2     1  UNL11      -0.1528
     21 O          -4.2344    2.7591   -1.9293 O.2     1  UNL11      -0.1528
     22 N          -3.7299    0.3433   -2.8141 N.3     1  UNL11      -0.1766
     23 C          -4.1657   -0.9974   -2.6498 C.3     1  UNL11       0.0205
     24 C          -4.1871   -1.8187   -3.8827 C.3     1  UNL11      -0.0385
     25 C          -3.7248   -1.0640   -5.1068 C.3     1  UNL11      -0.0506
     26 C          -2.4967   -0.2215   -4.8581 C.3     1  UNL11      -0.0385
     27 C          -2.5560    0.5430   -3.5812 C.3     1  UNL11       0.0205
     28 C          -1.4605    0.6090   -0.6918 C.ar    1  UNL11      -0.0232
     29 H           3.9738    0.0529   -2.1642 H       1  UNL11       0.0407
     30 H           2.2470    0.3411   -1.7983 H       1  UNL11       0.0407
     31 H           4.5082   -1.7515    0.2347 H       1  UNL11       0.0620
     32 H           5.2212   -1.2819    2.5113 H       1  UNL11       0.0618
     33 H           4.6636    0.9308    3.5258 H       1  UNL11       0.0618
     34 H           3.4393    2.5472    2.2301 H       1  UNL11       0.0618
     35 H           2.7080    2.0665   -0.0948 H       1  UNL11       0.0620
     36 H           1.5221   -3.2969   -1.5099 H       1  UNL11       0.1728
     37 H          -0.3442   -1.7631   -1.2978 H       1  UNL11       0.1731
     38 H           0.4958    1.3419    1.9179 H       1  UNL11       0.0625
     39 H          -1.4487    2.6998    2.4642 H       1  UNL11       0.0618
     40 H          -3.4599    2.7360    0.9698 H       1  UNL11       0.0637
     41 H          -3.5355   -1.4863   -1.8700 H       1  UNL11       0.0444
     42 H          -5.1919   -0.9571   -2.1978 H       1  UNL11       0.0444
     43 H          -3.6231   -2.7789   -3.7917 H       1  UNL11       0.0278
     44 H          -5.2406   -2.1292   -4.0922 H       1  UNL11       0.0278
     45 H          -3.4239   -1.8466   -5.8653 H       1  UNL11       0.0266
     46 H          -4.5457   -0.4962   -5.5466 H       1  UNL11       0.0266
     47 H          -2.4062    0.4704   -5.7394 H       1  UNL11       0.0278
     48 H          -1.5891   -0.8596   -4.8989 H       1  UNL11       0.0278
     49 H          -2.4328    1.6225   -3.7955 H       1  UNL11       0.0444
     50 H          -1.6847    0.2473   -2.9397 H       1  UNL11       0.0444
     51 H          -1.4548    0.0096   -1.5891 H       1  UNL11       0.0644
@<TRIPOS>BOND
     1     1     2    2
     2     2     3    1
     3     2    10   am
     4     3     4    1
     5     3    29    1
     6     3    30    1
     7     4     5   ar
     8     5     6   ar
     9     5    31    1
    10     6     7   ar
    11     6    32    1
    12     7     8   ar
    13     7    33    1
    14     8     9   ar
    15     8    34    1
    16     9     4   ar
    17     9    35    1
    18    10    11    1
    19    10    36    1
    20    11    12   am
    21    11    37    1
    22    12    13    2
    23    12    14    1
    24    14    15   ar
    25    15    16   ar
    26    15    38    1
    27    16    17   ar
    28    16    39    1
    29    17    18   ar
    30    17    40    1
    31    18    19    1
    32    18    28   ar
    33    19    20    2
    34    19    21    2
    35    19    22    1
    36    22    23    1
    37    23    24    1
    38    23    41    1
    39    23    42    1
    40    24    25    1
    41    24    43    1
    42    24    44    1
    43    25    26    1
    44    25    45    1
    45    25    46    1
    46    26    27    1
    47    26    47    1
    48    26    48    1
    49    27    22    1
    50    27    49    1
    51    27    50    1
    52    28    14   ar
    53    28    51    1
@<TRIPOS>MOLECULE
*****
 51 53 0 0 0
SMALL
GASTEIGER

@<TRIPOS>ATOM
      1 O           4.0305   -2.7920   -0.7290 O.2     1  UNL11      -0.2739
      2 C           3.0463   -2.0755   -0.4193 C.2     1  UNL11       0.2334
      3 C           1.7323   -2.7300   -0.2299 C.3     1  UNL11       0.0505
      4 C           0.8957   -2.0217    0.7610 C.ar    1  UNL11      -0.0386
      5 C          -0.3536   -2.5045    1.0690 C.ar    1  UNL11      -0.0581
      6 C          -1.1872   -1.8908    1.9785 C.ar    1  UNL11      -0.0615
      7 C          -0.7766   -0.7536    2.6132 C.ar    1  UNL11      -0.0617
      8 C           0.4758   -0.2511    2.3185 C.ar    1  UNL11      -0.0615
      9 C           1.3145   -0.8789    1.3961 C.ar    1  UNL11      -0.0581
     10 N           3.2276   -0.6853   -0.2650 N.am    1  UNL11      -0.2339
     11 N           2.1070    0.1070    0.1000 N.am    1  UNL11      -0.2304
     12 C           0.7934   -0.2632   -0.2740 C.2     1  UNL11       0.2602
     13 O           0.6308   -1.3069   -0.9368 O.2     1  UNL11      -0.2687
     14 C          -0.3365    0.5677    0.1123 C.ar    1  UNL11       0.0400
     15 C          -0.3609    1.3362    1.2508 C.ar    1  UNL11      -0.0495
     16 C          -1.4833    2.1095    1.5482 C.ar    1  UNL11      -0.0592
     17 C          -2.5911    2.1357    0.7337 C.ar    1  UNL11      -0.0353
     18 C          -2.5597    1.3628   -0.4055 C.ar    1  UNL11       0.1062
     19 S          -3.9534    1.3601   -1.4951 S.O2    1  UNL11       0.0609
     20 O          -4.1116    2.7828   -1.9543 O.2     1  UNL11      -0.1528
     21 O          -3.6412    0.5132   -2.6825 O.2     1  UNL11      -0.1528
     22 N          -5.3595    0.8479   -0.7309 N.3     1  UNL11      -0.1766
     23 C          -5.6576    1.4693    0.5098 C.3     1  UNL11       0.0205
     24 C          -7.0063    1.1916    1.0566 C.3     1  UNL11      -0.0385
     25 C          -7.8256    0.2751    0.1788 C.3     1  UNL11      -0.0506
     26 C          -7.0396   -0.8992   -0.3530 C.3     1  UNL11      -0.0385
     27 C          -5.6869   -0.5249   -0.8517 C.3     1  UNL11       0.0205
     28 C          -1.4605    0.6090   -0.6918 C.ar    1  UNL11      -0.0232
     29 H           1.2110   -2.7054   -1.2182 H       1  UNL11       0.0407
     30 H           1.8745   -3.8104    0.0218 H       1  UNL11       0.0407
     31 H          -0.7045   -3.3989    0.5855 H       1  UNL11       0.0620
     32 H          -2.1600   -2.2993    2.1932 H       1  UNL11       0.0618
     33 H          -1.3648   -0.2215    3.3275 H       1  UNL11       0.0618
     34 H           0.8203    0.6426    2.8090 H       1  UNL11       0.0618
     35 H           2.3063   -0.4790    1.1643 H       1  UNL11       0.0620
     36 H           4.1465   -0.2399   -0.4094 H       1  UNL11       0.1728
     37 H           2.3091    0.9432    0.6420 H       1  UNL11       0.1731
     38 H           0.4958    1.3419    1.9179 H       1  UNL11       0.0625
     39 H          -1.4487    2.6998    2.4642 H       1  UNL11       0.0618
     40 H          -3.4599    2.7360    0.9698 H       1  UNL11       0.0637
     41 H          -4.8737    1.1851    1.2507 H       1  UNL11       0.0444
     42 H          -5.5218    2.5738    0.3661 H       1  UNL11       0.0444
     43 H          -6.9944    0.8048    2.1048 H       1  UNL11       0.0278
     44 H          -7.5768    2.1514    1.1167 H       1  UNL11       0.0278
     45 H          -8.6331   -0.1579    0.8412 H       1  UNL11       0.0266
     46 H          -8.3296    0.8381   -0.6077 H       1  UNL11       0.0266
     47 H          -7.6624   -1.3490   -1.1735 H       1  UNL11       0.0278
     48 H          -6.9733   -1.6895    0.4240 H       1  UNL11       0.0278
     49 H          -5.5880   -0.8375   -1.9094 H       1  UNL11       0.0444
     50 H          -4.9153   -1.1029   -0.2783 H       1  UNL11       0.0444
     51 H          -1.4548    0.0096   -1.5891 H       1  UNL11       0.0644
@<TRIPOS>BOND
     1     1     2    2
     2     2     3    1
     3     2    10   am
     4     3     4    1
     5     3    29    1
     6     3    30    1
     7     4     5   ar
     8     5     6   ar
     9     5    31    1
    10     6     7   ar
    11     6    32    1
    12     7     8   ar
    13     7    33    1
    14     8     9   ar
    15     8    34    1
    16     9     4   ar
    17     9    35    1
    18    10    11    1
    19    10    36    1
    20    11    12   am
    21    11    37    1
    22    12    13    2
    23    12    14    1
    24    14    15   ar
    25    15    16   ar
    26    15    38    1
    27    16    17   ar
    28    16    39    1
    29    17    18   ar
    30    17    40    1
    31    18    19    1
    32    18    28   ar
    33    19    20    2
    34    19    21    2
    35    19    22    1
    36    22    23    1
    37    23    24    1
    38    23    41    1
    39    23    42    1
    40    24    25    1
    41    24    43    1
    42    24    44    1
    43    25    26    1
    44    25    45    1
    45    25    46    1
    46    26    27    1
    47    26    47    1
    48    26    48    1
    49    27    22    1
    50    27    49    1
    51    27    50    1
    52    28    14   ar
    53    28    51    1
