@<TRIPOS>MOLECULE
*****
 48 51 0 0 0
SMALL
GASTEIGER

@<TRIPOS>ATOM
      1 O           4.3294    1.5110   -0.0914 O.2     1  UNL11      -0.2698
      2 C           3.1191    1.1774   -0.2122 C.2     1  UNL11       0.2484
      3 N           2.8213    0.0968   -1.0685 N.am    1  UNL11      -0.2815
      4 C           1.5671   -0.4482   -1.3757 C.ar    1  UNL11       0.0339
      5 C           1.1538   -0.4418   -2.7065 C.ar    1  UNL11      -0.0405
      6 C          -0.0439   -0.9374   -3.1141 C.ar    1  UNL11      -0.0597
      7 C          -0.9305   -1.4878   -2.1871 C.ar    1  UNL11      -0.0581
      8 C          -0.5675   -1.5120   -0.8858 C.ar    1  UNL11      -0.0396
      9 C          -1.4257   -2.0526    0.2017 C.3     1  UNL11       0.0208
     10 C          -2.3277   -3.1324   -0.2416 C.2     1  UNL11       0.1150
     11 N          -3.5767   -2.7833   -0.6929 N.2     1  UNL11      -0.0076
     12 N          -4.4162   -3.6780   -1.1757 N.am    1  UNL11      -0.0358
     13 C          -4.1088   -4.9953   -1.2601 C.2     1  UNL11       0.4340
     14 O          -4.9468   -5.8282   -1.7334 O.2     1  UNL11      -0.2120
     15 C          -2.8515   -5.4173   -0.8155 C.2     1  UNL11       0.0740
     16 C          -2.0011   -4.4434   -0.3146 C.2     1  UNL11      -0.0072
     17 C          -0.7031   -4.9387    0.1973 C.3     1  UNL11      -0.0252
     18 C          -0.1643   -5.8253   -0.9399 C.3     1  UNL11      -0.0487
     19 C          -1.0256   -7.0578   -0.9211 C.3     1  UNL11      -0.0484
     20 C          -2.4851   -6.8339   -0.8880 C.3     1  UNL11      -0.0176
     21 C           0.6881   -0.9885   -0.4874 C.ar    1  UNL11      -0.0369
     22 C           2.1352    1.9392    0.5437 C.ar    1  UNL11       0.0424
     23 C           0.9839    1.3497    0.9773 C.ar    1  UNL11      -0.0142
     24 C           0.0358    2.0583    1.7007 C.ar    1  UNL11       0.1268
     25 F          -1.1027    1.4493    2.1183 F       1  UNL11      -0.2054
     26 C           0.2920    3.3790    1.9698 C.ar    1  UNL11       0.0088
     27 C           1.4281    4.0058    1.5561 C.ar    1  UNL11       0.1268
     28 F           1.5885    5.3102    1.8707 F       1  UNL11      -0.2054
     29 C           2.3392    3.2759    0.8455 C.ar    1  UNL11      -0.0142
     30 H           3.6894   -0.3328   -1.5283 H       1  UNL11       0.1551
     31 H           1.8234   -0.0184   -3.4545 H       1  UNL11       0.0636
     32 H          -0.3731   -0.9335   -4.1516 H       1  UNL11       0.0618
     33 H          -1.8738   -1.8835   -2.5710 H       1  UNL11       0.0620
     34 H          -0.7875   -2.3765    1.0503 H       1  UNL11       0.0379
     35 H          -2.0641   -1.1897    0.5551 H       1  UNL11       0.0379
     36 H          -5.3584   -3.3484   -1.5063 H       1  UNL11       0.4828
     37 H           0.0398   -4.1932    0.4357 H       1  UNL11       0.0314
     38 H          -0.8860   -5.5997    1.0999 H       1  UNL11       0.0314
     39 H          -0.3107   -5.2689   -1.8795 H       1  UNL11       0.0268
     40 H           0.8890   -6.1000   -0.7423 H       1  UNL11       0.0268
     41 H          -0.7499   -7.6293   -1.8470 H       1  UNL11       0.0269
     42 H          -0.6471   -7.6811   -0.0722 H       1  UNL11       0.0269
     43 H          -2.8710   -7.2942    0.0799 H       1  UNL11       0.0316
     44 H          -3.0232   -7.3356   -1.7394 H       1  UNL11       0.0316
     45 H           0.9168   -1.0346    0.5497 H       1  UNL11       0.0639
     46 H           0.7392    0.3173    0.7862 H       1  UNL11       0.0654
     47 H          -0.4466    3.9375    2.5355 H       1  UNL11       0.0675
     48 H           3.2529    3.7399    0.5008 H       1  UNL11       0.0654
@<TRIPOS>BOND
     1     1     2    2
     2     2     3   am
     3     2    22    1
     4     3     4    1
     5     3    30    1
     6     4     5   ar
     7     5     6   ar
     8     5    31    1
     9     6     7   ar
    10     6    32    1
    11     7     8   ar
    12     7    33    1
    13     8     9    1
    14     8    21   ar
    15     9    10    1
    16     9    34    1
    17     9    35    1
    18    10    11    2
    19    11    12    1
    20    12    13   am
    21    12    36    1
    22    13    14    2
    23    13    15    1
    24    15    16    2
    25    16    17    1
    26    16    10    1
    27    17    18    1
    28    17    37    1
    29    17    38    1
    30    18    19    1
    31    18    39    1
    32    18    40    1
    33    19    20    1
    34    19    41    1
    35    19    42    1
    36    20    15    1
    37    20    43    1
    38    20    44    1
    39    21     4   ar
    40    21    45    1
    41    22    23   ar
    42    23    24   ar
    43    23    46    1
    44    24    25    1
    45    24    26   ar
    46    26    27   ar
    47    26    47    1
    48    27    28    1
    49    27    29   ar
    50    29    22   ar
    51    29    48    1
@<TRIPOS>MOLECULE
*****
 48 51 0 0 0
SMALL
GASTEIGER

@<TRIPOS>ATOM
      1 O           4.3294    1.5110   -0.0914 O.2     1  UNL11      -0.2698
      2 C           3.1191    1.1774   -0.2122 C.2     1  UNL11       0.2484
      3 N           2.8213    0.0968   -1.0685 N.am    1  UNL11      -0.2815
      4 C           1.5671   -0.4482   -1.3757 C.ar    1  UNL11       0.0339
      5 C           1.1538   -0.4418   -2.7065 C.ar    1  UNL11      -0.0405
      6 C          -0.0439   -0.9374   -3.1141 C.ar    1  UNL11      -0.0597
      7 C          -0.9305   -1.4878   -2.1871 C.ar    1  UNL11      -0.0581
      8 C          -0.5675   -1.5120   -0.8858 C.ar    1  UNL11      -0.0396
      9 C          -1.4257   -2.0526    0.2017 C.3     1  UNL11       0.0208
     10 C          -2.8701   -1.9216   -0.0678 C.2     1  UNL11       0.1150
     11 N          -3.7141   -1.7708    1.0049 N.2     1  UNL11      -0.0076
     12 N          -5.0083   -1.5735    0.8484 N.am    1  UNL11      -0.0358
     13 C          -5.5931   -1.5063   -0.3724 C.2     1  UNL11       0.4340
     14 O          -6.8464   -1.3135   -0.4818 O.2     1  UNL11      -0.2120
     15 C          -4.7886   -1.6535   -1.5072 C.2     1  UNL11       0.0740
     16 C          -3.4338   -1.8602   -1.2962 C.2     1  UNL11      -0.0072
     17 C          -2.6269   -2.0675   -2.5201 C.3     1  UNL11      -0.0252
     18 C          -3.0253   -0.8959   -3.4357 C.3     1  UNL11      -0.0487
     19 C          -4.4215   -1.2120   -3.8960 C.3     1  UNL11      -0.0484
     20 C          -5.3860   -1.5900   -2.8433 C.3     1  UNL11      -0.0176
     21 C           0.6881   -0.9885   -0.4874 C.ar    1  UNL11      -0.0369
     22 C           2.1352    1.9392    0.5437 C.ar    1  UNL11       0.0424
     23 C           2.5232    2.9710    1.3471 C.ar    1  UNL11      -0.0142
     24 C           1.6005    3.7099    2.0730 C.ar    1  UNL11       0.1268
     25 F           2.0127    4.7300    2.8673 F       1  UNL11      -0.2054
     26 C           0.2762    3.3702    1.9581 C.ar    1  UNL11       0.0088
     27 C          -0.1539    2.3480    1.1675 C.ar    1  UNL11       0.1268
     28 F          -1.4797    2.0908    1.1214 F       1  UNL11      -0.2054
     29 C           0.7840    1.6423    0.4674 C.ar    1  UNL11      -0.0142
     30 H           3.6894   -0.3328   -1.5283 H       1  UNL11       0.1551
     31 H           1.8234   -0.0184   -3.4545 H       1  UNL11       0.0636
     32 H          -0.3731   -0.9335   -4.1516 H       1  UNL11       0.0618
     33 H          -1.8738   -1.8835   -2.5710 H       1  UNL11       0.0620
     34 H          -1.1427   -3.1062    0.4072 H       1  UNL11       0.0379
     35 H          -1.1871   -1.4416    1.1219 H       1  UNL11       0.0379
     36 H          -5.6023   -1.4646    1.7091 H       1  UNL11       0.4828
     37 H          -1.5545   -2.0628   -2.3998 H       1  UNL11       0.0314
     38 H          -2.9519   -3.0305   -3.0224 H       1  UNL11       0.0314
     39 H          -3.0224    0.0140   -2.8147 H       1  UNL11       0.0268
     40 H          -2.3451   -0.8450   -4.3069 H       1  UNL11       0.0268
     41 H          -4.7784   -0.2881   -4.4242 H       1  UNL11       0.0269
     42 H          -4.3101   -1.9815   -4.7010 H       1  UNL11       0.0269
     43 H          -5.7280   -2.6526   -3.0706 H       1  UNL11       0.0316
     44 H          -6.3009   -0.9349   -2.8337 H       1  UNL11       0.0316
     45 H           0.9168   -1.0346    0.5497 H       1  UNL11       0.0639
     46 H           3.5515    3.2705    1.4708 H       1  UNL11       0.0654
     47 H          -0.4494    3.9453    2.5239 H       1  UNL11       0.0675
     48 H           0.4797    0.8242   -0.1706 H       1  UNL11       0.0654
@<TRIPOS>BOND
     1     1     2    2
     2     2     3   am
     3     2    22    1
     4     3     4    1
     5     3    30    1
     6     4     5   ar
     7     5     6   ar
     8     5    31    1
     9     6     7   ar
    10     6    32    1
    11     7     8   ar
    12     7    33    1
    13     8     9    1
    14     8    21   ar
    15     9    10    1
    16     9    34    1
    17     9    35    1
    18    10    11    2
    19    11    12    1
    20    12    13   am
    21    12    36    1
    22    13    14    2
    23    13    15    1
    24    15    16    2
    25    16    17    1
    26    16    10    1
    27    17    18    1
    28    17    37    1
    29    17    38    1
    30    18    19    1
    31    18    39    1
    32    18    40    1
    33    19    20    1
    34    19    41    1
    35    19    42    1
    36    20    15    1
    37    20    43    1
    38    20    44    1
    39    21     4   ar
    40    21    45    1
    41    22    23   ar
    42    23    24   ar
    43    23    46    1
    44    24    25    1
    45    24    26   ar
    46    26    27   ar
    47    26    47    1
    48    27    28    1
    49    27    29   ar
    50    29    22   ar
    51    29    48    1
@<TRIPOS>MOLECULE
*****
 48 51 0 0 0
SMALL
GASTEIGER

@<TRIPOS>ATOM
      1 O           4.3294    1.5110   -0.0914 O.2     1  UNL11      -0.2698
      2 C           3.1191    1.1774   -0.2122 C.2     1  UNL11       0.2484
      3 N           2.8213    0.0968   -1.0685 N.am    1  UNL11      -0.2815
      4 C           1.5671   -0.4482   -1.3757 C.ar    1  UNL11       0.0339
      5 C           1.1538   -0.4418   -2.7065 C.ar    1  UNL11      -0.0405
      6 C          -0.0439   -0.9374   -3.1141 C.ar    1  UNL11      -0.0597
      7 C          -0.9305   -1.4878   -2.1871 C.ar    1  UNL11      -0.0581
      8 C          -0.5675   -1.5120   -0.8858 C.ar    1  UNL11      -0.0396
      9 C          -1.4257   -2.0526    0.2017 C.3     1  UNL11       0.0208
     10 C          -2.8701   -1.9216   -0.0678 C.2     1  UNL11       0.1150
     11 N          -3.2874   -0.8682   -0.8435 N.2     1  UNL11      -0.0076
     12 N          -4.5500   -0.7200   -1.1930 N.am    1  UNL11      -0.0358
     13 C          -5.5182   -1.5895   -0.8143 C.2     1  UNL11       0.4340
     14 O          -6.7264   -1.4120   -1.1731 O.2     1  UNL11      -0.2120
     15 C          -5.1593   -2.6844   -0.0212 C.2     1  UNL11       0.0740
     16 C          -3.8213   -2.8007    0.3235 C.2     1  UNL11      -0.0072
     17 C          -3.4926   -3.9405    1.2095 C.3     1  UNL11      -0.0252
     18 C          -4.1497   -5.1516    0.5232 C.3     1  UNL11      -0.0487
     19 C          -5.6272   -4.9734    0.7387 C.3     1  UNL11      -0.0484
     20 C          -6.1792   -3.6436    0.4101 C.3     1  UNL11      -0.0176
     21 C           0.6881   -0.9885   -0.4874 C.ar    1  UNL11      -0.0369
     22 C           2.1352    1.9392    0.5437 C.ar    1  UNL11       0.0424
     23 C           2.5232    2.9710    1.3471 C.ar    1  UNL11      -0.0142
     24 C           1.6005    3.7099    2.0730 C.ar    1  UNL11       0.1268
     25 F           2.0127    4.7300    2.8673 F       1  UNL11      -0.2054
     26 C           0.2762    3.3702    1.9581 C.ar    1  UNL11       0.0088
     27 C          -0.1539    2.3480    1.1675 C.ar    1  UNL11       0.1268
     28 F          -1.4797    2.0908    1.1214 F       1  UNL11      -0.2054
     29 C           0.7840    1.6423    0.4674 C.ar    1  UNL11      -0.0142
     30 H           3.6894   -0.3328   -1.5283 H       1  UNL11       0.1551
     31 H           1.8234   -0.0184   -3.4545 H       1  UNL11       0.0636
     32 H          -0.3731   -0.9335   -4.1516 H       1  UNL11       0.0618
     33 H          -1.8738   -1.8835   -2.5710 H       1  UNL11       0.0620
     34 H          -1.1427   -3.1062    0.4072 H       1  UNL11       0.0379
     35 H          -1.1871   -1.4416    1.1219 H       1  UNL11       0.0379
     36 H          -4.8072    0.1072   -1.7889 H       1  UNL11       0.4828
     37 H          -2.4449   -4.1532    1.3565 H       1  UNL11       0.0314
     38 H          -3.9976   -3.7903    2.2132 H       1  UNL11       0.0314
     39 H          -3.9074   -5.0851   -0.5494 H       1  UNL11       0.0268
     40 H          -3.8109   -6.0903    1.0009 H       1  UNL11       0.0268
     41 H          -6.1187   -5.7565    0.1022 H       1  UNL11       0.0269
     42 H          -5.8220   -5.2930    1.7934 H       1  UNL11       0.0269
     43 H          -6.6080   -3.2134    1.3739 H       1  UNL11       0.0316
     44 H          -7.0159   -3.6914   -0.3407 H       1  UNL11       0.0316
     45 H           0.9168   -1.0346    0.5497 H       1  UNL11       0.0639
     46 H           3.5515    3.2705    1.4708 H       1  UNL11       0.0654
     47 H          -0.4494    3.9453    2.5239 H       1  UNL11       0.0675
     48 H           0.4797    0.8242   -0.1706 H       1  UNL11       0.0654
@<TRIPOS>BOND
     1     1     2    2
     2     2     3   am
     3     2    22    1
     4     3     4    1
     5     3    30    1
     6     4     5   ar
     7     5     6   ar
     8     5    31    1
     9     6     7   ar
    10     6    32    1
    11     7     8   ar
    12     7    33    1
    13     8     9    1
    14     8    21   ar
    15     9    10    1
    16     9    34    1
    17     9    35    1
    18    10    11    2
    19    11    12    1
    20    12    13   am
    21    12    36    1
    22    13    14    2
    23    13    15    1
    24    15    16    2
    25    16    17    1
    26    16    10    1
    27    17    18    1
    28    17    37    1
    29    17    38    1
    30    18    19    1
    31    18    39    1
    32    18    40    1
    33    19    20    1
    34    19    41    1
    35    19    42    1
    36    20    15    1
    37    20    43    1
    38    20    44    1
    39    21     4   ar
    40    21    45    1
    41    22    23   ar
    42    23    24   ar
    43    23    46    1
    44    24    25    1
    45    24    26   ar
    46    26    27   ar
    47    26    47    1
    48    27    28    1
    49    27    29   ar
    50    29    22   ar
    51    29    48    1
@<TRIPOS>MOLECULE
*****
 48 51 0 0 0
SMALL
GASTEIGER

@<TRIPOS>ATOM
      1 O           2.1545    1.7480    0.3660 O.2     1  UNL11      -0.2698
      2 C           3.1191    1.1774   -0.2122 C.2     1  UNL11       0.2484
      3 N           2.8213    0.0968   -1.0685 N.am    1  UNL11      -0.2815
      4 C           1.5671   -0.4482   -1.3757 C.ar    1  UNL11       0.0339
      5 C           1.1538   -0.4418   -2.7065 C.ar    1  UNL11      -0.0405
      6 C          -0.0439   -0.9374   -3.1141 C.ar    1  UNL11      -0.0597
      7 C          -0.9305   -1.4878   -2.1871 C.ar    1  UNL11      -0.0581
      8 C          -0.5675   -1.5120   -0.8858 C.ar    1  UNL11      -0.0396
      9 C          -1.4257   -2.0526    0.2017 C.3     1  UNL11       0.0208
     10 C          -1.2114   -3.4886    0.4622 C.2     1  UNL11       0.1150
     11 N          -2.2758   -4.2259    0.9194 N.2     1  UNL11      -0.0076
     12 N          -2.1898   -5.5282    1.1067 N.am    1  UNL11      -0.0358
     13 C          -1.0538   -6.2262    0.8635 C.2     1  UNL11       0.4340
     14 O          -1.0110   -7.4836    1.0560 O.2     1  UNL11      -0.2120
     15 C           0.0684   -5.5337    0.3969 C.2     1  UNL11       0.0740
     16 C          -0.0663   -4.1657    0.2152 C.2     1  UNL11      -0.0072
     17 C           1.1595   -3.4618   -0.2252 C.3     1  UNL11      -0.0252
     18 C           1.6543   -4.2855   -1.4278 C.3     1  UNL11      -0.0487
     19 C           2.1918   -5.5603   -0.8386 C.3     1  UNL11      -0.0484
     20 C           1.3149   -6.2542    0.1261 C.3     1  UNL11      -0.0176
     21 C           0.6881   -0.9885   -0.4874 C.ar    1  UNL11      -0.0369
     22 C           4.4570    1.6852    0.0566 C.ar    1  UNL11       0.0424
     23 C           4.7523    2.2640    1.2560 C.ar    1  UNL11      -0.0142
     24 C           6.0215    2.7514    1.5316 C.ar    1  UNL11       0.1268
     25 F           6.2890    3.3254    2.7318 F       1  UNL11      -0.2054
     26 C           6.9783    2.6330    0.5554 C.ar    1  UNL11       0.0088
     27 C           6.7258    2.0620   -0.6549 C.ar    1  UNL11       0.1268
     28 F           7.7349    1.9923   -1.5510 F       1  UNL11      -0.2054
     29 C           5.4638    1.5933   -0.8907 C.ar    1  UNL11      -0.0142
     30 H           3.6894   -0.3328   -1.5283 H       1  UNL11       0.1551
     31 H           1.8234   -0.0184   -3.4545 H       1  UNL11       0.0636
     32 H          -0.3731   -0.9335   -4.1516 H       1  UNL11       0.0618
     33 H          -1.8738   -1.8835   -2.5710 H       1  UNL11       0.0620
     34 H          -1.2849   -1.4457    1.1205 H       1  UNL11       0.0379
     35 H          -2.4928   -1.9179   -0.1452 H       1  UNL11       0.0379
     36 H          -3.0401   -6.0373    1.4580 H       1  UNL11       0.4828
     37 H           1.0435   -2.4345   -0.5343 H       1  UNL11       0.0314
     38 H           1.9426   -3.5300    0.5918 H       1  UNL11       0.0314
     39 H           0.7757   -4.4947   -2.0587 H       1  UNL11       0.0268
     40 H           2.4635   -3.7440   -1.9533 H       1  UNL11       0.0268
     41 H           2.3983   -6.2308   -1.7148 H       1  UNL11       0.0269
     42 H           3.2000   -5.3038   -0.4259 H       1  UNL11       0.0269
     43 H           1.8691   -6.2807    1.1210 H       1  UNL11       0.0316
     44 H           1.0974   -7.3182   -0.1685 H       1  UNL11       0.0316
     45 H           0.9168   -1.0346    0.5497 H       1  UNL11       0.0639
     46 H           4.0323    2.3816    2.0498 H       1  UNL11       0.0654
     47 H           7.9727    3.0127    0.7663 H       1  UNL11       0.0675
     48 H           5.2266    1.1335   -1.8400 H       1  UNL11       0.0654
@<TRIPOS>BOND
     1     1     2    2
     2     2     3   am
     3     2    22    1
     4     3     4    1
     5     3    30    1
     6     4     5   ar
     7     5     6   ar
     8     5    31    1
     9     6     7   ar
    10     6    32    1
    11     7     8   ar
    12     7    33    1
    13     8     9    1
    14     8    21   ar
    15     9    10    1
    16     9    34    1
    17     9    35    1
    18    10    11    2
    19    11    12    1
    20    12    13   am
    21    12    36    1
    22    13    14    2
    23    13    15    1
    24    15    16    2
    25    16    17    1
    26    16    10    1
    27    17    18    1
    28    17    37    1
    29    17    38    1
    30    18    19    1
    31    18    39    1
    32    18    40    1
    33    19    20    1
    34    19    41    1
    35    19    42    1
    36    20    15    1
    37    20    43    1
    38    20    44    1
    39    21     4   ar
    40    21    45    1
    41    22    23   ar
    42    23    24   ar
    43    23    46    1
    44    24    25    1
    45    24    26   ar
    46    26    27   ar
    47    26    47    1
    48    27    28    1
    49    27    29   ar
    50    29    22   ar
    51    29    48    1
@<TRIPOS>MOLECULE
*****
 48 51 0 0 0
SMALL
GASTEIGER

@<TRIPOS>ATOM
      1 O           2.1545    1.7480    0.3660 O.2     1  UNL11      -0.2698
      2 C           3.1191    1.1774   -0.2122 C.2     1  UNL11       0.2484
      3 N           2.8213    0.0968   -1.0685 N.am    1  UNL11      -0.2815
      4 C           1.5671   -0.4482   -1.3757 C.ar    1  UNL11       0.0339
      5 C           1.1538   -0.4418   -2.7065 C.ar    1  UNL11      -0.0405
      6 C          -0.0439   -0.9374   -3.1141 C.ar    1  UNL11      -0.0597
      7 C          -0.9305   -1.4878   -2.1871 C.ar    1  UNL11      -0.0581
      8 C          -0.5675   -1.5120   -0.8858 C.ar    1  UNL11      -0.0396
      9 C          -1.4257   -2.0526    0.2017 C.3     1  UNL11       0.0208
     10 C          -1.2114   -3.4886    0.4622 C.2     1  UNL11       0.1150
     11 N          -1.9798   -4.3906   -0.2317 N.2     1  UNL11      -0.0076
     12 N          -1.8015   -5.6916   -0.1133 N.am    1  UNL11      -0.0358
     13 C          -0.8549   -6.2270    0.6955 C.2     1  UNL11       0.4340
     14 O          -0.7134   -7.4890    0.7819 O.2     1  UNL11      -0.2120
     15 C          -0.0387   -5.3620    1.4317 C.2     1  UNL11       0.0740
     16 C          -0.2615   -4.0021    1.2776 C.2     1  UNL11      -0.0072
     17 C           0.5846   -3.1229    2.1161 C.3     1  UNL11      -0.0252
     18 C           2.0159   -3.6331    1.8704 C.3     1  UNL11      -0.0487
     19 C           2.0920   -4.9541    2.5849 C.3     1  UNL11      -0.0484
     20 C           0.9932   -5.9044    2.3189 C.3     1  UNL11      -0.0176
     21 C           0.6881   -0.9885   -0.4874 C.ar    1  UNL11      -0.0369
     22 C           4.4570    1.6852    0.0566 C.ar    1  UNL11       0.0424
     23 C           5.5462    1.1260   -0.5449 C.ar    1  UNL11      -0.0142
     24 C           6.8283    1.5974   -0.3033 C.ar    1  UNL11       0.1268
     25 F           7.8956    1.0219   -0.9124 F       1  UNL11      -0.2054
     26 C           6.9698    2.6506    0.5645 C.ar    1  UNL11       0.0088
     27 C           5.9096    3.2379    1.1858 C.ar    1  UNL11       0.1268
     28 F           6.1521    4.2697    2.0240 F       1  UNL11      -0.2054
     29 C           4.6616    2.7464    0.9235 C.ar    1  UNL11      -0.0142
     30 H           3.6894   -0.3328   -1.5283 H       1  UNL11       0.1551
     31 H           1.8234   -0.0184   -3.4545 H       1  UNL11       0.0636
     32 H          -0.3731   -0.9335   -4.1516 H       1  UNL11       0.0618
     33 H          -1.8738   -1.8835   -2.5710 H       1  UNL11       0.0620
     34 H          -1.2849   -1.4457    1.1205 H       1  UNL11       0.0379
     35 H          -2.4928   -1.9179   -0.1452 H       1  UNL11       0.0379
     36 H          -2.4216   -6.3313   -0.6716 H       1  UNL11       0.4828
     37 H           0.5519   -2.0668    1.8968 H       1  UNL11       0.0314
     38 H           0.3341   -3.2954    3.2082 H       1  UNL11       0.0314
     39 H           2.1246   -3.7777    0.7836 H       1  UNL11       0.0268
     40 H           2.7511   -2.9288    2.3036 H       1  UNL11       0.0268
     41 H           3.0702   -5.4071    2.2722 H       1  UNL11       0.0269
     42 H           2.2203   -4.7071    3.6690 H       1  UNL11       0.0269
     43 H           0.4675   -6.0924    3.3119 H       1  UNL11       0.0316
     44 H           1.3581   -6.8976    1.9359 H       1  UNL11       0.0316
     45 H           0.9168   -1.0346    0.5497 H       1  UNL11       0.0639
     46 H           5.4830    0.2958   -1.2298 H       1  UNL11       0.0654
     47 H           7.9707    3.0230    0.7567 H       1  UNL11       0.0675
     48 H           3.7962    3.1876    1.3983 H       1  UNL11       0.0654
@<TRIPOS>BOND
     1     1     2    2
     2     2     3   am
     3     2    22    1
     4     3     4    1
     5     3    30    1
     6     4     5   ar
     7     5     6   ar
     8     5    31    1
     9     6     7   ar
    10     6    32    1
    11     7     8   ar
    12     7    33    1
    13     8     9    1
    14     8    21   ar
    15     9    10    1
    16     9    34    1
    17     9    35    1
    18    10    11    2
    19    11    12    1
    20    12    13   am
    21    12    36    1
    22    13    14    2
    23    13    15    1
    24    15    16    2
    25    16    17    1
    26    16    10    1
    27    17    18    1
    28    17    37    1
    29    17    38    1
    30    18    19    1
    31    18    39    1
    32    18    40    1
    33    19    20    1
    34    19    41    1
    35    19    42    1
    36    20    15    1
    37    20    43    1
    38    20    44    1
    39    21     4   ar
    40    21    45    1
    41    22    23   ar
    42    23    24   ar
    43    23    46    1
    44    24    25    1
    45    24    26   ar
    46    26    27   ar
    47    26    47    1
    48    27    28    1
    49    27    29   ar
    50    29    22   ar
    51    29    48    1
@<TRIPOS>MOLECULE
*****
 48 51 0 0 0
SMALL
GASTEIGER

@<TRIPOS>ATOM
      1 O           4.7119    1.3486   -1.3648 O.2     1  UNL11      -0.2698
      2 C           3.5953    0.9950   -1.8325 C.2     1  UNL11       0.2484
      3 N           2.8213    0.0968   -1.0685 N.am    1  UNL11      -0.2815
      4 C           1.5671   -0.4482   -1.3757 C.ar    1  UNL11       0.0339
      5 C           1.1538   -0.4418   -2.7065 C.ar    1  UNL11      -0.0405
      6 C          -0.0439   -0.9374   -3.1141 C.ar    1  UNL11      -0.0597
      7 C          -0.9305   -1.4878   -2.1871 C.ar    1  UNL11      -0.0581
      8 C          -0.5675   -1.5120   -0.8858 C.ar    1  UNL11      -0.0396
      9 C          -1.4257   -2.0526    0.2017 C.3     1  UNL11       0.0208
     10 C          -2.8701   -1.9216   -0.0678 C.2     1  UNL11       0.1150
     11 N          -3.2874   -0.8682   -0.8435 N.2     1  UNL11      -0.0076
     12 N          -4.5500   -0.7200   -1.1930 N.am    1  UNL11      -0.0358
     13 C          -5.5182   -1.5895   -0.8143 C.2     1  UNL11       0.4340
     14 O          -6.7264   -1.4120   -1.1731 O.2     1  UNL11      -0.2120
     15 C          -5.1593   -2.6844   -0.0212 C.2     1  UNL11       0.0740
     16 C          -3.8213   -2.8007    0.3235 C.2     1  UNL11      -0.0072
     17 C          -3.4926   -3.9405    1.2095 C.3     1  UNL11      -0.0252
     18 C          -4.1497   -5.1516    0.5232 C.3     1  UNL11      -0.0487
     19 C          -5.6272   -4.9734    0.7387 C.3     1  UNL11      -0.0484
     20 C          -6.1792   -3.6436    0.4101 C.3     1  UNL11      -0.0176
     21 C           0.6881   -0.9885   -0.4874 C.ar    1  UNL11      -0.0369
     22 C           3.2040    1.5459   -3.1223 C.ar    1  UNL11       0.0424
     23 C           1.8885    1.7475   -3.4213 C.ar    1  UNL11      -0.0142
     24 C           1.4963    2.2735   -4.6436 C.ar    1  UNL11       0.1268
     25 F           0.1807    2.4619   -4.9177 F       1  UNL11      -0.2054
     26 C           2.4776    2.5876   -5.5495 C.ar    1  UNL11       0.0088
     27 C           3.8020    2.4026   -5.2913 C.ar    1  UNL11       0.1268
     28 F           4.6929    2.7428   -6.2487 F       1  UNL11      -0.2054
     29 C           4.1505    1.8820   -4.0766 C.ar    1  UNL11      -0.0142
     30 H           3.2867   -0.1859   -0.1449 H       1  UNL11       0.1551
     31 H           1.8234   -0.0184   -3.4545 H       1  UNL11       0.0636
     32 H          -0.3731   -0.9335   -4.1516 H       1  UNL11       0.0618
     33 H          -1.8738   -1.8835   -2.5710 H       1  UNL11       0.0620
     34 H          -1.1427   -3.1062    0.4072 H       1  UNL11       0.0379
     35 H          -1.1871   -1.4416    1.1219 H       1  UNL11       0.0379
     36 H          -4.8072    0.1072   -1.7889 H       1  UNL11       0.4828
     37 H          -2.4449   -4.1532    1.3565 H       1  UNL11       0.0314
     38 H          -3.9976   -3.7903    2.2132 H       1  UNL11       0.0314
     39 H          -3.9074   -5.0851   -0.5494 H       1  UNL11       0.0268
     40 H          -3.8109   -6.0903    1.0009 H       1  UNL11       0.0268
     41 H          -6.1187   -5.7565    0.1022 H       1  UNL11       0.0269
     42 H          -5.8220   -5.2930    1.7934 H       1  UNL11       0.0269
     43 H          -6.6080   -3.2134    1.3739 H       1  UNL11       0.0316
     44 H          -7.0159   -3.6914   -0.3407 H       1  UNL11       0.0316
     45 H           0.9168   -1.0346    0.5497 H       1  UNL11       0.0639
     46 H           1.0844    1.5122   -2.7428 H       1  UNL11       0.0654
     47 H           2.1758    2.9994   -6.5070 H       1  UNL11       0.0675
     48 H           5.1923    1.7214   -3.8362 H       1  UNL11       0.0654
@<TRIPOS>BOND
     1     1     2    2
     2     2     3   am
     3     2    22    1
     4     3     4    1
     5     3    30    1
     6     4     5   ar
     7     5     6   ar
     8     5    31    1
     9     6     7   ar
    10     6    32    1
    11     7     8   ar
    12     7    33    1
    13     8     9    1
    14     8    21   ar
    15     9    10    1
    16     9    34    1
    17     9    35    1
    18    10    11    2
    19    11    12    1
    20    12    13   am
    21    12    36    1
    22    13    14    2
    23    13    15    1
    24    15    16    2
    25    16    17    1
    26    16    10    1
    27    17    18    1
    28    17    37    1
    29    17    38    1
    30    18    19    1
    31    18    39    1
    32    18    40    1
    33    19    20    1
    34    19    41    1
    35    19    42    1
    36    20    15    1
    37    20    43    1
    38    20    44    1
    39    21     4   ar
    40    21    45    1
    41    22    23   ar
    42    23    24   ar
    43    23    46    1
    44    24    25    1
    45    24    26   ar
    46    26    27   ar
    47    26    47    1
    48    27    28    1
    49    27    29   ar
    50    29    22   ar
    51    29    48    1
@<TRIPOS>MOLECULE
*****
 48 51 0 0 0
SMALL
GASTEIGER

@<TRIPOS>ATOM
      1 O           4.3294    1.5110   -0.0914 O.2     1  UNL11      -0.2698
      2 C           3.1191    1.1774   -0.2122 C.2     1  UNL11       0.2484
      3 N           2.8213    0.0968   -1.0685 N.am    1  UNL11      -0.2815
      4 C           1.5671   -0.4482   -1.3757 C.ar    1  UNL11       0.0339
      5 C           1.1538   -0.4418   -2.7065 C.ar    1  UNL11      -0.0405
      6 C          -0.0439   -0.9374   -3.1141 C.ar    1  UNL11      -0.0597
      7 C          -0.9305   -1.4878   -2.1871 C.ar    1  UNL11      -0.0581
      8 C          -0.5675   -1.5120   -0.8858 C.ar    1  UNL11      -0.0396
      9 C          -1.4257   -2.0526    0.2017 C.3     1  UNL11       0.0208
     10 C          -2.3079   -1.0410    0.8136 C.2     1  UNL11       0.1150
     11 N          -1.8328   -0.3428    1.8964 N.2     1  UNL11      -0.0076
     12 N          -2.5270    0.6285    2.4559 N.am    1  UNL11      -0.0358
     13 C          -3.7491    1.0038    2.0060 C.2     1  UNL11       0.4340
     14 O          -4.3878    1.9475    2.5731 O.2     1  UNL11      -0.2120
     15 C          -4.2912    0.3311    0.9059 C.2     1  UNL11       0.0740
     16 C          -3.5277   -0.6839    0.3496 C.2     1  UNL11      -0.0072
     17 C          -4.1606   -1.4079   -0.7761 C.3     1  UNL11      -0.0252
     18 C          -4.6395   -0.2902   -1.7200 C.3     1  UNL11      -0.0487
     19 C          -5.8136    0.3392   -1.0224 C.3     1  UNL11      -0.0484
     20 C          -5.6112    0.7070    0.3936 C.3     1  UNL11      -0.0176
     21 C           0.6881   -0.9885   -0.4874 C.ar    1  UNL11      -0.0369
     22 C           2.1352    1.9392    0.5437 C.ar    1  UNL11       0.0424
     23 C           0.8096    1.6252    0.4728 C.ar    1  UNL11      -0.0142
     24 C          -0.1424    2.3376    1.1873 C.ar    1  UNL11       0.1268
     25 F          -1.4554    2.0068    1.0973 F       1  UNL11      -0.2054
     26 C           0.2916    3.3748    1.9736 C.ar    1  UNL11       0.0088
     27 C           1.6049    3.7212    2.0731 C.ar    1  UNL11       0.1268
     28 F           1.9326    4.7590    2.8743 F       1  UNL11      -0.2054
     29 C           2.5141    2.9968    1.3545 C.ar    1  UNL11      -0.0142
     30 H           3.6894   -0.3328   -1.5283 H       1  UNL11       0.1551
     31 H           1.8234   -0.0184   -3.4545 H       1  UNL11       0.0636
     32 H          -0.3731   -0.9335   -4.1516 H       1  UNL11       0.0618
     33 H          -1.8738   -1.8835   -2.5710 H       1  UNL11       0.0620
     34 H          -2.0031   -2.9207   -0.1796 H       1  UNL11       0.0379
     35 H          -0.7198   -2.4271    1.0008 H       1  UNL11       0.0379
     36 H          -2.1089    1.1263    3.2823 H       1  UNL11       0.4828
     37 H          -3.5301   -2.0838   -1.3330 H       1  UNL11       0.0314
     38 H          -5.0745   -1.9613   -0.3968 H       1  UNL11       0.0314
     39 H          -3.8130    0.4327   -1.8090 H       1  UNL11       0.0268
     40 H          -4.9633   -0.7205   -2.6865 H       1  UNL11       0.0268
     41 H          -6.0608    1.2558   -1.6213 H       1  UNL11       0.0269
     42 H          -6.6748   -0.3561   -1.1877 H       1  UNL11       0.0269
     43 H          -6.3554    0.0991    1.0054 H       1  UNL11       0.0316
     44 H          -5.8157    1.7949    0.5957 H       1  UNL11       0.0316
     45 H           0.9168   -1.0346    0.5497 H       1  UNL11       0.0639
     46 H           0.4232    0.8221   -0.1340 H       1  UNL11       0.0654
     47 H          -0.4493    3.9350    2.5345 H       1  UNL11       0.0675
     48 H           3.5656    3.2427    1.4089 H       1  UNL11       0.0654
@<TRIPOS>BOND
     1     1     2    2
     2     2     3   am
     3     2    22    1
     4     3     4    1
     5     3    30    1
     6     4     5   ar
     7     5     6   ar
     8     5    31    1
     9     6     7   ar
    10     6    32    1
    11     7     8   ar
    12     7    33    1
    13     8     9    1
    14     8    21   ar
    15     9    10    1
    16     9    34    1
    17     9    35    1
    18    10    11    2
    19    11    12    1
    20    12    13   am
    21    12    36    1
    22    13    14    2
    23    13    15    1
    24    15    16    2
    25    16    17    1
    26    16    10    1
    27    17    18    1
    28    17    37    1
    29    17    38    1
    30    18    19    1
    31    18    39    1
    32    18    40    1
    33    19    20    1
    34    19    41    1
    35    19    42    1
    36    20    15    1
    37    20    43    1
    38    20    44    1
    39    21     4   ar
    40    21    45    1
    41    22    23   ar
    42    23    24   ar
    43    23    46    1
    44    24    25    1
    45    24    26   ar
    46    26    27   ar
    47    26    47    1
    48    27    28    1
    49    27    29   ar
    50    29    22   ar
    51    29    48    1
@<TRIPOS>MOLECULE
*****
 48 51 0 0 0
SMALL
GASTEIGER

@<TRIPOS>ATOM
      1 O           4.3449    1.7024   -0.4946 O.2     1  UNL11      -0.2698
      2 C           3.1350    1.4272   -0.7202 C.2     1  UNL11       0.2484
      3 N           2.8213    0.0968   -1.0685 N.am    1  UNL11      -0.2815
      4 C           1.5671   -0.4482   -1.3757 C.ar    1  UNL11       0.0339
      5 C           1.1538   -0.4418   -2.7065 C.ar    1  UNL11      -0.0405
      6 C          -0.0439   -0.9374   -3.1141 C.ar    1  UNL11      -0.0597
      7 C          -0.9305   -1.4878   -2.1871 C.ar    1  UNL11      -0.0581
      8 C          -0.5675   -1.5120   -0.8858 C.ar    1  UNL11      -0.0396
      9 C          -1.4257   -2.0526    0.2017 C.3     1  UNL11       0.0208
     10 C          -0.8113   -3.1768    0.9330 C.2     1  UNL11       0.1150
     11 N           0.3731   -2.9476    1.5890 N.2     1  UNL11      -0.0076
     12 N           0.9501   -3.8760    2.3261 N.am    1  UNL11      -0.0358
     13 C           0.4198   -5.1129    2.4873 C.2     1  UNL11       0.4340
     14 O           1.0073   -5.9819    3.2082 O.2     1  UNL11      -0.2120
     15 C          -0.7858   -5.4114    1.8441 C.2     1  UNL11       0.0740
     16 C          -1.3570   -4.4063    1.0786 C.2     1  UNL11      -0.0072
     17 C          -2.6017   -4.7803    0.3694 C.3     1  UNL11      -0.0252
     18 C          -3.4796   -5.4173    1.4617 C.3     1  UNL11      -0.0487
     19 C          -2.8444   -6.7492    1.7515 C.3     1  UNL11      -0.0484
     20 C          -1.3874   -6.7390    1.9925 C.3     1  UNL11      -0.0176
     21 C           0.6881   -0.9885   -0.4874 C.ar    1  UNL11      -0.0369
     22 C           2.1680    2.5092   -0.6018 C.ar    1  UNL11       0.0424
     23 C           0.8838    2.2544   -0.2189 C.ar    1  UNL11      -0.0142
     24 C          -0.0511    3.2721   -0.0980 C.ar    1  UNL11       0.1268
     25 F          -1.3232    2.9919    0.2821 F       1  UNL11      -0.2054
     26 C           0.3569    4.5521   -0.3765 C.ar    1  UNL11       0.0088
     27 C           1.6289    4.8501   -0.7614 C.ar    1  UNL11       0.1268
     28 F           1.9335    6.1423   -1.0139 F       1  UNL11      -0.2054
     29 C           2.5223    3.8215   -0.8699 C.ar    1  UNL11      -0.0142
     30 H           3.6773   -0.5483   -1.0963 H       1  UNL11       0.1551
     31 H           1.8234   -0.0184   -3.4545 H       1  UNL11       0.0636
     32 H          -0.3731   -0.9335   -4.1516 H       1  UNL11       0.0618
     33 H          -1.8738   -1.8835   -2.5710 H       1  UNL11       0.0620
     34 H          -1.7161   -1.2295    0.8877 H       1  UNL11       0.0379
     35 H          -2.3631   -2.4354   -0.3001 H       1  UNL11       0.0379
     36 H           1.8562   -3.6395    2.8042 H       1  UNL11       0.4828
     37 H          -3.1548   -3.9780   -0.0941 H       1  UNL11       0.0314
     38 H          -2.3667   -5.5785   -0.4005 H       1  UNL11       0.0314
     39 H          -3.4196   -4.7628    2.3459 H       1  UNL11       0.0268
     40 H          -4.5090   -5.5662    1.0844 H       1  UNL11       0.0268
     41 H          -3.3766   -7.1432    2.6578 H       1  UNL11       0.0269
     42 H          -3.1571   -7.4242    0.9154 H       1  UNL11       0.0269
     43 H          -0.9105   -7.3778    1.1787 H       1  UNL11       0.0316
     44 H          -1.1057   -7.1891    2.9845 H       1  UNL11       0.0316
     45 H           0.9168   -1.0346    0.5497 H       1  UNL11       0.0639
     46 H           0.5184    1.2654    0.0060 H       1  UNL11       0.0654
     47 H          -0.3707    5.3517   -0.2833 H       1  UNL11       0.0675
     48 H           3.5410    4.0201   -1.1726 H       1  UNL11       0.0654
@<TRIPOS>BOND
     1     1     2    2
     2     2     3   am
     3     2    22    1
     4     3     4    1
     5     3    30    1
     6     4     5   ar
     7     5     6   ar
     8     5    31    1
     9     6     7   ar
    10     6    32    1
    11     7     8   ar
    12     7    33    1
    13     8     9    1
    14     8    21   ar
    15     9    10    1
    16     9    34    1
    17     9    35    1
    18    10    11    2
    19    11    12    1
    20    12    13   am
    21    12    36    1
    22    13    14    2
    23    13    15    1
    24    15    16    2
    25    16    17    1
    26    16    10    1
    27    17    18    1
    28    17    37    1
    29    17    38    1
    30    18    19    1
    31    18    39    1
    32    18    40    1
    33    19    20    1
    34    19    41    1
    35    19    42    1
    36    20    15    1
    37    20    43    1
    38    20    44    1
    39    21     4   ar
    40    21    45    1
    41    22    23   ar
    42    23    24   ar
    43    23    46    1
    44    24    25    1
    45    24    26   ar
    46    26    27   ar
    47    26    47    1
    48    27    28    1
    49    27    29   ar
    50    29    22   ar
    51    29    48    1
@<TRIPOS>MOLECULE
*****
 48 51 0 0 0
SMALL
GASTEIGER

@<TRIPOS>ATOM
      1 O           4.3294    1.5110   -0.0914 O.2     1  UNL11      -0.2698
      2 C           3.1191    1.1774   -0.2122 C.2     1  UNL11       0.2484
      3 N           2.8213    0.0968   -1.0685 N.am    1  UNL11      -0.2815
      4 C           1.5671   -0.4482   -1.3757 C.ar    1  UNL11       0.0339
      5 C           1.1538   -0.4418   -2.7065 C.ar    1  UNL11      -0.0405
      6 C          -0.0439   -0.9374   -3.1141 C.ar    1  UNL11      -0.0597
      7 C          -0.9305   -1.4878   -2.1871 C.ar    1  UNL11      -0.0581
      8 C          -0.5675   -1.5120   -0.8858 C.ar    1  UNL11      -0.0396
      9 C          -1.4257   -2.0526    0.2017 C.3     1  UNL11       0.0208
     10 C          -2.3079   -1.0410    0.8136 C.2     1  UNL11       0.1150
     11 N          -1.7225    0.0561    1.3960 N.2     1  UNL11      -0.0076
     12 N          -2.4396    1.0414    1.8993 N.am    1  UNL11      -0.0358
     13 C          -3.7948    1.0413    1.8781 C.2     1  UNL11       0.4340
     14 O          -4.4516    2.0123    2.3739 O.2     1  UNL11      -0.2120
     15 C          -4.4535   -0.0487    1.2997 C.2     1  UNL11       0.0740
     16 C          -3.6604   -1.0625    0.7839 C.2     1  UNL11      -0.0072
     17 C          -4.3958   -2.2230    0.2322 C.3     1  UNL11      -0.0252
     18 C          -5.4359   -1.5942   -0.7125 C.3     1  UNL11      -0.0487
     19 C          -6.4516   -0.9511    0.1909 C.3     1  UNL11      -0.0484
     20 C          -5.9175   -0.0853    1.2615 C.3     1  UNL11      -0.0176
     21 C           0.6881   -0.9885   -0.4874 C.ar    1  UNL11      -0.0369
     22 C           2.1352    1.9392    0.5437 C.ar    1  UNL11       0.0424
     23 C           2.5232    2.9710    1.3471 C.ar    1  UNL11      -0.0142
     24 C           1.6005    3.7099    2.0730 C.ar    1  UNL11       0.1268
     25 F           2.0127    4.7300    2.8673 F       1  UNL11      -0.2054
     26 C           0.2762    3.3702    1.9581 C.ar    1  UNL11       0.0088
     27 C          -0.1539    2.3480    1.1675 C.ar    1  UNL11       0.1268
     28 F          -1.4797    2.0908    1.1214 F       1  UNL11      -0.2054
     29 C           0.7840    1.6423    0.4674 C.ar    1  UNL11      -0.0142
     30 H           3.6894   -0.3328   -1.5283 H       1  UNL11       0.1551
     31 H           1.8234   -0.0184   -3.4545 H       1  UNL11       0.0636
     32 H          -0.3731   -0.9335   -4.1516 H       1  UNL11       0.0618
     33 H          -1.8738   -1.8835   -2.5710 H       1  UNL11       0.0620
     34 H          -2.0031   -2.9207   -0.1796 H       1  UNL11       0.0379
     35 H          -0.7198   -2.4271    1.0008 H       1  UNL11       0.0379
     36 H          -1.9329    1.8549    2.3315 H       1  UNL11       0.4828
     37 H          -3.8162   -2.9442   -0.3231 H       1  UNL11       0.0314
     38 H          -4.9538   -2.7436    1.0705 H       1  UNL11       0.0314
     39 H          -4.9110   -0.8290   -1.3063 H       1  UNL11       0.0268
     40 H          -5.9201   -2.3797   -1.3230 H       1  UNL11       0.0268
     41 H          -7.1167   -0.3518   -0.4861 H       1  UNL11       0.0269
     42 H          -7.0964   -1.7851    0.5667 H       1  UNL11       0.0269
     43 H          -6.2327   -0.5488    2.2533 H       1  UNL11       0.0316
     44 H          -6.3357    0.9589    1.2280 H       1  UNL11       0.0316
     45 H           0.9168   -1.0346    0.5497 H       1  UNL11       0.0639
     46 H           3.5515    3.2705    1.4708 H       1  UNL11       0.0654
     47 H          -0.4494    3.9453    2.5239 H       1  UNL11       0.0675
     48 H           0.4797    0.8242   -0.1706 H       1  UNL11       0.0654
@<TRIPOS>BOND
     1     1     2    2
     2     2     3   am
     3     2    22    1
     4     3     4    1
     5     3    30    1
     6     4     5   ar
     7     5     6   ar
     8     5    31    1
     9     6     7   ar
    10     6    32    1
    11     7     8   ar
    12     7    33    1
    13     8     9    1
    14     8    21   ar
    15     9    10    1
    16     9    34    1
    17     9    35    1
    18    10    11    2
    19    11    12    1
    20    12    13   am
    21    12    36    1
    22    13    14    2
    23    13    15    1
    24    15    16    2
    25    16    17    1
    26    16    10    1
    27    17    18    1
    28    17    37    1
    29    17    38    1
    30    18    19    1
    31    18    39    1
    32    18    40    1
    33    19    20    1
    34    19    41    1
    35    19    42    1
    36    20    15    1
    37    20    43    1
    38    20    44    1
    39    21     4   ar
    40    21    45    1
    41    22    23   ar
    42    23    24   ar
    43    23    46    1
    44    24    25    1
    45    24    26   ar
    46    26    27   ar
    47    26    47    1
    48    27    28    1
    49    27    29   ar
    50    29    22   ar
    51    29    48    1
@<TRIPOS>MOLECULE
*****
 48 51 0 0 0
SMALL
GASTEIGER

@<TRIPOS>ATOM
      1 O           4.1295   -1.2568   -2.3666 O.2     1  UNL11      -0.2698
      2 C           4.0871   -0.2951   -1.5519 C.2     1  UNL11       0.2484
      3 N           2.8213    0.0968   -1.0685 N.am    1  UNL11      -0.2815
      4 C           1.5671   -0.4482   -1.3757 C.ar    1  UNL11       0.0339
      5 C           1.1538   -0.4418   -2.7065 C.ar    1  UNL11      -0.0405
      6 C          -0.0439   -0.9374   -3.1141 C.ar    1  UNL11      -0.0597
      7 C          -0.9305   -1.4878   -2.1871 C.ar    1  UNL11      -0.0581
      8 C          -0.5675   -1.5120   -0.8858 C.ar    1  UNL11      -0.0396
      9 C          -1.4257   -2.0526    0.2017 C.3     1  UNL11       0.0208
     10 C          -2.3079   -1.0410    0.8136 C.2     1  UNL11       0.1150
     11 N          -3.2265   -0.4154    0.0072 N.2     1  UNL11      -0.0076
     12 N          -4.1011    0.4459    0.4883 N.am    1  UNL11      -0.0358
     13 C          -4.1552    0.7727    1.8026 C.2     1  UNL11       0.4340
     14 O          -5.0154    1.6085    2.2286 O.2     1  UNL11      -0.2120
     15 C          -3.2453    0.1710    2.6782 C.2     1  UNL11       0.0740
     16 C          -2.3430   -0.7274    2.1293 C.2     1  UNL11      -0.0072
     17 C          -1.3613   -1.2987    3.0790 C.3     1  UNL11      -0.0252
     18 C          -2.2214   -1.7958    4.2549 C.3     1  UNL11      -0.0487
     19 C          -2.6848   -0.5504    4.9589 C.3     1  UNL11      -0.0484
     20 C          -3.2717    0.5021    4.1050 C.3     1  UNL11      -0.0176
     21 C           0.6881   -0.9885   -0.4874 C.ar    1  UNL11      -0.0369
     22 C           5.3508    0.3269   -1.1828 C.ar    1  UNL11       0.0424
     23 C           6.3975    0.3456   -2.0573 C.ar    1  UNL11      -0.0142
     24 C           7.6083    0.9354   -1.7247 C.ar    1  UNL11       0.1268
     25 F           8.6352    0.9382   -2.6118 F       1  UNL11      -0.2054
     26 C           7.7228    1.5040   -0.4814 C.ar    1  UNL11       0.0088
     27 C           6.7031    1.5077    0.4213 C.ar    1  UNL11       0.1268
     28 F           6.9142    2.0932    1.6208 F       1  UNL11      -0.2054
     29 C           5.5252    0.9170    0.0585 C.ar    1  UNL11      -0.0142
     30 H           2.8652    0.9148   -0.3767 H       1  UNL11       0.1551
     31 H           1.8234   -0.0184   -3.4545 H       1  UNL11       0.0636
     32 H          -0.3731   -0.9335   -4.1516 H       1  UNL11       0.0618
     33 H          -1.8738   -1.8835   -2.5710 H       1  UNL11       0.0620
     34 H          -2.0031   -2.9207   -0.1796 H       1  UNL11       0.0379
     35 H          -0.7198   -2.4271    1.0008 H       1  UNL11       0.0379
     36 H          -4.7795    0.8916   -0.1800 H       1  UNL11       0.4828
     37 H          -0.7605   -2.1197    2.7192 H       1  UNL11       0.0314
     38 H          -0.6885   -0.4709    3.4628 H       1  UNL11       0.0314
     39 H          -3.0796   -2.3339    3.8217 H       1  UNL11       0.0268
     40 H          -1.6090   -2.4099    4.9419 H       1  UNL11       0.0268
     41 H          -3.4433   -0.8966    5.7104 H       1  UNL11       0.0269
     42 H          -1.8124   -0.2016    5.5669 H       1  UNL11       0.0269
     43 H          -2.6116    1.4244    4.2119 H       1  UNL11       0.0316
     44 H          -4.3118    0.7919    4.4218 H       1  UNL11       0.0316
     45 H           0.9168   -1.0346    0.5497 H       1  UNL11       0.0639
     46 H           6.3541   -0.0916   -3.0419 H       1  UNL11       0.0654
     47 H           8.6680    1.9668   -0.2167 H       1  UNL11       0.0675
     48 H           4.6934    0.9009    0.7491 H       1  UNL11       0.0654
@<TRIPOS>BOND
     1     1     2    2
     2     2     3   am
     3     2    22    1
     4     3     4    1
     5     3    30    1
     6     4     5   ar
     7     5     6   ar
     8     5    31    1
     9     6     7   ar
    10     6    32    1
    11     7     8   ar
    12     7    33    1
    13     8     9    1
    14     8    21   ar
    15     9    10    1
    16     9    34    1
    17     9    35    1
    18    10    11    2
    19    11    12    1
    20    12    13   am
    21    12    36    1
    22    13    14    2
    23    13    15    1
    24    15    16    2
    25    16    17    1
    26    16    10    1
    27    17    18    1
    28    17    37    1
    29    17    38    1
    30    18    19    1
    31    18    39    1
    32    18    40    1
    33    19    20    1
    34    19    41    1
    35    19    42    1
    36    20    15    1
    37    20    43    1
    38    20    44    1
    39    21     4   ar
    40    21    45    1
    41    22    23   ar
    42    23    24   ar
    43    23    46    1
    44    24    25    1
    45    24    26   ar
    46    26    27   ar
    47    26    47    1
    48    27    28    1
    49    27    29   ar
    50    29    22   ar
    51    29    48    1
@<TRIPOS>MOLECULE
*****
 48 51 0 0 0
SMALL
GASTEIGER

@<TRIPOS>ATOM
      1 O           3.1261    1.3753   -2.9397 O.2     1  UNL11      -0.2698
      2 C           3.5953    0.9950   -1.8325 C.2     1  UNL11       0.2484
      3 N           2.8213    0.0968   -1.0685 N.am    1  UNL11      -0.2815
      4 C           1.5671   -0.4482   -1.3757 C.ar    1  UNL11       0.0339
      5 C           1.1538   -0.4418   -2.7065 C.ar    1  UNL11      -0.0405
      6 C          -0.0439   -0.9374   -3.1141 C.ar    1  UNL11      -0.0597
      7 C          -0.9305   -1.4878   -2.1871 C.ar    1  UNL11      -0.0581
      8 C          -0.5675   -1.5120   -0.8858 C.ar    1  UNL11      -0.0396
      9 C          -1.4257   -2.0526    0.2017 C.3     1  UNL11       0.0208
     10 C          -2.3079   -1.0410    0.8136 C.2     1  UNL11       0.1150
     11 N          -3.6640   -1.2478    0.7524 N.2     1  UNL11      -0.0076
     12 N          -4.5185   -0.4318    1.3376 N.am    1  UNL11      -0.0358
     13 C          -4.1224    0.6605    2.0353 C.2     1  UNL11       0.4340
     14 O          -4.9786    1.4239    2.5868 O.2     1  UNL11      -0.2120
     15 C          -2.7532    0.9289    2.1348 C.2     1  UNL11       0.0740
     16 C          -1.8908    0.0456    1.5036 C.2     1  UNL11      -0.0072
     17 C          -0.4546    0.3960    1.5847 C.3     1  UNL11      -0.0252
     18 C          -0.2168    0.6619    3.0822 C.3     1  UNL11      -0.0487
     19 C          -0.8990    1.9722    3.3634 C.3     1  UNL11      -0.0484
     20 C          -2.2878    2.1024    2.8781 C.3     1  UNL11      -0.0176
     21 C           0.6881   -0.9885   -0.4874 C.ar    1  UNL11      -0.0369
     22 C           4.8960    1.5186   -1.4403 C.ar    1  UNL11       0.0424
     23 C           5.5686    2.3861   -2.2502 C.ar    1  UNL11      -0.0142
     24 C           6.8076    2.8975   -1.8927 C.ar    1  UNL11       0.1268
     25 F           7.4576    3.7569   -2.7176 F       1  UNL11      -0.2054
     26 C           7.3405    2.5026   -0.6917 C.ar    1  UNL11       0.0088
     27 C           6.7026    1.6392    0.1464 C.ar    1  UNL11       0.1268
     28 F           7.3101    1.3106    1.3079 F       1  UNL11      -0.2054
     29 C           5.4838    1.1558   -0.2393 C.ar    1  UNL11      -0.0142
     30 H           3.2867   -0.1859   -0.1449 H       1  UNL11       0.1551
     31 H           1.8234   -0.0184   -3.4545 H       1  UNL11       0.0636
     32 H          -0.3731   -0.9335   -4.1516 H       1  UNL11       0.0618
     33 H          -1.8738   -1.8835   -2.5710 H       1  UNL11       0.0620
     34 H          -2.0031   -2.9207   -0.1796 H       1  UNL11       0.0379
     35 H          -0.7198   -2.4271    1.0008 H       1  UNL11       0.0379
     36 H          -5.5450   -0.6442    1.2552 H       1  UNL11       0.4828
     37 H           0.2465   -0.3536    1.2514 H       1  UNL11       0.0314
     38 H          -0.2749    1.3649    1.0243 H       1  UNL11       0.0314
     39 H          -0.7081   -0.1536    3.6365 H       1  UNL11       0.0268
     40 H           0.8671    0.7515    3.2857 H       1  UNL11       0.0268
     41 H          -0.8742    2.0885    4.4796 H       1  UNL11       0.0269
     42 H          -0.2105    2.7639    2.9740 H       1  UNL11       0.0269
     43 H          -2.2992    2.9584    2.1265 H       1  UNL11       0.0316
     44 H          -3.0141    2.3618    3.6974 H       1  UNL11       0.0316
     45 H           0.9168   -1.0346    0.5497 H       1  UNL11       0.0639
     46 H           5.1907    2.7204   -3.2029 H       1  UNL11       0.0654
     47 H           8.3094    2.9000   -0.4076 H       1  UNL11       0.0675
     48 H           4.9478    0.4685    0.4005 H       1  UNL11       0.0654
@<TRIPOS>BOND
     1     1     2    2
     2     2     3   am
     3     2    22    1
     4     3     4    1
     5     3    30    1
     6     4     5   ar
     7     5     6   ar
     8     5    31    1
     9     6     7   ar
    10     6    32    1
    11     7     8   ar
    12     7    33    1
    13     8     9    1
    14     8    21   ar
    15     9    10    1
    16     9    34    1
    17     9    35    1
    18    10    11    2
    19    11    12    1
    20    12    13   am
    21    12    36    1
    22    13    14    2
    23    13    15    1
    24    15    16    2
    25    16    17    1
    26    16    10    1
    27    17    18    1
    28    17    37    1
    29    17    38    1
    30    18    19    1
    31    18    39    1
    32    18    40    1
    33    19    20    1
    34    19    41    1
    35    19    42    1
    36    20    15    1
    37    20    43    1
    38    20    44    1
    39    21     4   ar
    40    21    45    1
    41    22    23   ar
    42    23    24   ar
    43    23    46    1
    44    24    25    1
    45    24    26   ar
    46    26    27   ar
    47    26    47    1
    48    27    28    1
    49    27    29   ar
    50    29    22   ar
    51    29    48    1
@<TRIPOS>MOLECULE
*****
 48 51 0 0 0
SMALL
GASTEIGER

@<TRIPOS>ATOM
      1 O           4.3294    1.5110   -0.0914 O.2     1  UNL11      -0.2698
      2 C           3.1191    1.1774   -0.2122 C.2     1  UNL11       0.2484
      3 N           2.8213    0.0968   -1.0685 N.am    1  UNL11      -0.2815
      4 C           1.5671   -0.4482   -1.3757 C.ar    1  UNL11       0.0339
      5 C           1.1538   -0.4418   -2.7065 C.ar    1  UNL11      -0.0405
      6 C          -0.0439   -0.9374   -3.1141 C.ar    1  UNL11      -0.0597
      7 C          -0.9305   -1.4878   -2.1871 C.ar    1  UNL11      -0.0581
      8 C          -0.5675   -1.5120   -0.8858 C.ar    1  UNL11      -0.0396
      9 C          -1.4257   -2.0526    0.2017 C.3     1  UNL11       0.0208
     10 C          -0.8135   -1.9521    1.5400 C.2     1  UNL11       0.1150
     11 N          -1.6480   -1.8014    2.6201 N.2     1  UNL11      -0.0076
     12 N          -1.1882   -1.7778    3.8555 N.am    1  UNL11      -0.0358
     13 C           0.1302   -1.8995    4.1452 C.2     1  UNL11       0.4340
     14 O           0.5347   -1.8727    5.3517 O.2     1  UNL11      -0.2120
     15 C           1.0342   -2.0548    3.0892 C.2     1  UNL11       0.0740
     16 C           0.5075   -2.0730    1.8067 C.2     1  UNL11      -0.0072
     17 C           1.5019   -2.1822    0.7153 C.3     1  UNL11      -0.0252
     18 C           2.3853   -3.3728    1.1296 C.3     1  UNL11      -0.0487
     19 C           3.2073   -2.8712    2.2845 C.3     1  UNL11      -0.0484
     20 C           2.4673   -2.1860    3.3635 C.3     1  UNL11      -0.0176
     21 C           0.6881   -0.9885   -0.4874 C.ar    1  UNL11      -0.0369
     22 C           2.1352    1.9392    0.5437 C.ar    1  UNL11       0.0424
     23 C           0.9839    1.3497    0.9773 C.ar    1  UNL11      -0.0142
     24 C           0.0358    2.0583    1.7007 C.ar    1  UNL11       0.1268
     25 F          -1.1027    1.4493    2.1183 F       1  UNL11      -0.2054
     26 C           0.2920    3.3790    1.9698 C.ar    1  UNL11       0.0088
     27 C           1.4281    4.0058    1.5561 C.ar    1  UNL11       0.1268
     28 F           1.5885    5.3102    1.8707 F       1  UNL11      -0.2054
     29 C           2.3392    3.2759    0.8455 C.ar    1  UNL11      -0.0142
     30 H           3.6894   -0.3328   -1.5283 H       1  UNL11       0.1551
     31 H           1.8234   -0.0184   -3.4545 H       1  UNL11       0.0636
     32 H          -0.3731   -0.9335   -4.1516 H       1  UNL11       0.0618
     33 H          -1.8738   -1.8835   -2.5710 H       1  UNL11       0.0620
     34 H          -2.4193   -1.5585    0.1692 H       1  UNL11       0.0379
     35 H          -1.5734   -3.1485   -0.0314 H       1  UNL11       0.0379
     36 H          -1.8777   -1.6602    4.6406 H       1  UNL11       0.4828
     37 H           1.1157   -2.3668   -0.2753 H       1  UNL11       0.0314
     38 H           2.1498   -1.2519    0.7067 H       1  UNL11       0.0314
     39 H           1.7084   -4.1767    1.4604 H       1  UNL11       0.0268
     40 H           3.0496   -3.6632    0.2938 H       1  UNL11       0.0268
     41 H           3.7278   -3.7764    2.6963 H       1  UNL11       0.0269
     42 H           4.0207   -2.2496    1.8323 H       1  UNL11       0.0269
     43 H           2.8629   -1.1189    3.4133 H       1  UNL11       0.0316
     44 H           2.6326   -2.6555    4.3727 H       1  UNL11       0.0316
     45 H           0.9168   -1.0346    0.5497 H       1  UNL11       0.0639
     46 H           0.7392    0.3173    0.7862 H       1  UNL11       0.0654
     47 H          -0.4466    3.9375    2.5355 H       1  UNL11       0.0675
     48 H           3.2529    3.7399    0.5008 H       1  UNL11       0.0654
@<TRIPOS>BOND
     1     1     2    2
     2     2     3   am
     3     2    22    1
     4     3     4    1
     5     3    30    1
     6     4     5   ar
     7     5     6   ar
     8     5    31    1
     9     6     7   ar
    10     6    32    1
    11     7     8   ar
    12     7    33    1
    13     8     9    1
    14     8    21   ar
    15     9    10    1
    16     9    34    1
    17     9    35    1
    18    10    11    2
    19    11    12    1
    20    12    13   am
    21    12    36    1
    22    13    14    2
    23    13    15    1
    24    15    16    2
    25    16    17    1
    26    16    10    1
    27    17    18    1
    28    17    37    1
    29    17    38    1
    30    18    19    1
    31    18    39    1
    32    18    40    1
    33    19    20    1
    34    19    41    1
    35    19    42    1
    36    20    15    1
    37    20    43    1
    38    20    44    1
    39    21     4   ar
    40    21    45    1
    41    22    23   ar
    42    23    24   ar
    43    23    46    1
    44    24    25    1
    45    24    26   ar
    46    26    27   ar
    47    26    47    1
    48    27    28    1
    49    27    29   ar
    50    29    22   ar
    51    29    48    1
@<TRIPOS>MOLECULE
*****
 48 51 0 0 0
SMALL
GASTEIGER

@<TRIPOS>ATOM
      1 O           4.9600    0.8177   -1.4361 O.2     1  UNL11      -0.2698
      2 C           3.9116    0.3242   -1.9340 C.2     1  UNL11       0.2484
      3 N           2.8213    0.0968   -1.0685 N.am    1  UNL11      -0.2815
      4 C           1.5671   -0.4482   -1.3757 C.ar    1  UNL11       0.0339
      5 C           1.1538   -0.4418   -2.7065 C.ar    1  UNL11      -0.0405
      6 C          -0.0439   -0.9374   -3.1141 C.ar    1  UNL11      -0.0597
      7 C          -0.9305   -1.4878   -2.1871 C.ar    1  UNL11      -0.0581
      8 C          -0.5675   -1.5120   -0.8858 C.ar    1  UNL11      -0.0396
      9 C          -1.4257   -2.0526    0.2017 C.3     1  UNL11       0.0208
     10 C          -2.3079   -1.0410    0.8136 C.2     1  UNL11       0.1150
     11 N          -3.6640   -1.2478    0.7524 N.2     1  UNL11      -0.0076
     12 N          -4.5185   -0.4318    1.3376 N.am    1  UNL11      -0.0358
     13 C          -4.1224    0.6605    2.0353 C.2     1  UNL11       0.4340
     14 O          -4.9786    1.4239    2.5868 O.2     1  UNL11      -0.2120
     15 C          -2.7532    0.9289    2.1348 C.2     1  UNL11       0.0740
     16 C          -1.8908    0.0456    1.5036 C.2     1  UNL11      -0.0072
     17 C          -0.4546    0.3960    1.5847 C.3     1  UNL11      -0.0252
     18 C          -0.2168    0.6619    3.0822 C.3     1  UNL11      -0.0487
     19 C          -0.8990    1.9722    3.3634 C.3     1  UNL11      -0.0484
     20 C          -2.2878    2.1024    2.8781 C.3     1  UNL11      -0.0176
     21 C           0.6881   -0.9885   -0.4874 C.ar    1  UNL11      -0.0369
     22 C           3.9202    0.0319   -3.3603 C.ar    1  UNL11       0.0424
     23 C           5.0272    0.2876   -4.1152 C.ar    1  UNL11      -0.0142
     24 C           5.0554    0.0137   -5.4749 C.ar    1  UNL11       0.1268
     25 F           6.1683    0.2800   -6.2042 F       1  UNL11      -0.2054
     26 C           3.9290   -0.5264   -6.0422 C.ar    1  UNL11       0.0088
     27 C           2.8032   -0.7974   -5.3252 C.ar    1  UNL11       0.1268
     28 F           1.7446   -1.3290   -5.9754 F       1  UNL11      -0.2054
     29 C           2.8124   -0.5140   -3.9882 C.ar    1  UNL11      -0.0142
     30 H           3.0164    0.3851   -0.0544 H       1  UNL11       0.1551
     31 H           1.8234   -0.0184   -3.4545 H       1  UNL11       0.0636
     32 H          -0.3731   -0.9335   -4.1516 H       1  UNL11       0.0618
     33 H          -1.8738   -1.8835   -2.5710 H       1  UNL11       0.0620
     34 H          -2.0031   -2.9207   -0.1796 H       1  UNL11       0.0379
     35 H          -0.7198   -2.4271    1.0008 H       1  UNL11       0.0379
     36 H          -5.5450   -0.6442    1.2552 H       1  UNL11       0.4828
     37 H           0.2465   -0.3536    1.2514 H       1  UNL11       0.0314
     38 H          -0.2749    1.3649    1.0243 H       1  UNL11       0.0314
     39 H          -0.7081   -0.1536    3.6365 H       1  UNL11       0.0268
     40 H           0.8671    0.7515    3.2857 H       1  UNL11       0.0268
     41 H          -0.8742    2.0885    4.4796 H       1  UNL11       0.0269
     42 H          -0.2105    2.7639    2.9740 H       1  UNL11       0.0269
     43 H          -2.2992    2.9584    2.1265 H       1  UNL11       0.0316
     44 H          -3.0141    2.3618    3.6974 H       1  UNL11       0.0316
     45 H           0.9168   -1.0346    0.5497 H       1  UNL11       0.0639
     46 H           5.9321    0.7143   -3.7134 H       1  UNL11       0.0654
     47 H           3.9462   -0.7425   -7.1054 H       1  UNL11       0.0675
     48 H           1.9368   -0.7159   -3.3870 H       1  UNL11       0.0654
@<TRIPOS>BOND
     1     1     2    2
     2     2     3   am
     3     2    22    1
     4     3     4    1
     5     3    30    1
     6     4     5   ar
     7     5     6   ar
     8     5    31    1
     9     6     7   ar
    10     6    32    1
    11     7     8   ar
    12     7    33    1
    13     8     9    1
    14     8    21   ar
    15     9    10    1
    16     9    34    1
    17     9    35    1
    18    10    11    2
    19    11    12    1
    20    12    13   am
    21    12    36    1
    22    13    14    2
    23    13    15    1
    24    15    16    2
    25    16    17    1
    26    16    10    1
    27    17    18    1
    28    17    37    1
    29    17    38    1
    30    18    19    1
    31    18    39    1
    32    18    40    1
    33    19    20    1
    34    19    41    1
    35    19    42    1
    36    20    15    1
    37    20    43    1
    38    20    44    1
    39    21     4   ar
    40    21    45    1
    41    22    23   ar
    42    23    24   ar
    43    23    46    1
    44    24    25    1
    45    24    26   ar
    46    26    27   ar
    47    26    47    1
    48    27    28    1
    49    27    29   ar
    50    29    22   ar
    51    29    48    1
@<TRIPOS>MOLECULE
*****
 48 51 0 0 0
SMALL
GASTEIGER

@<TRIPOS>ATOM
      1 O           2.1545    1.7480    0.3660 O.2     1  UNL11      -0.2698
      2 C           3.1191    1.1774   -0.2122 C.2     1  UNL11       0.2484
      3 N           2.8213    0.0968   -1.0685 N.am    1  UNL11      -0.2815
      4 C           1.5671   -0.4482   -1.3757 C.ar    1  UNL11       0.0339
      5 C           1.1538   -0.4418   -2.7065 C.ar    1  UNL11      -0.0405
      6 C          -0.0439   -0.9374   -3.1141 C.ar    1  UNL11      -0.0597
      7 C          -0.9305   -1.4878   -2.1871 C.ar    1  UNL11      -0.0581
      8 C          -0.5675   -1.5120   -0.8858 C.ar    1  UNL11      -0.0396
      9 C          -1.4257   -2.0526    0.2017 C.3     1  UNL11       0.0208
     10 C          -0.8135   -1.9521    1.5400 C.2     1  UNL11       0.1150
     11 N           0.0592   -0.9178    1.7728 N.2     1  UNL11      -0.0076
     12 N           0.5924   -0.7125    2.9610 N.am    1  UNL11      -0.0358
     13 C           0.3195   -1.5016    4.0287 C.2     1  UNL11       0.4340
     14 O           0.8541   -1.2699    5.1603 O.2     1  UNL11      -0.2120
     15 C          -0.5616   -2.5744    3.8582 C.2     1  UNL11       0.0740
     16 C          -1.0980   -2.7538    2.5922 C.2     1  UNL11      -0.0072
     17 C          -1.9808   -3.9326    2.4398 C.3     1  UNL11      -0.0252
     18 C          -2.9707   -3.8148    3.6127 C.3     1  UNL11      -0.0487
     19 C          -2.1698   -4.1509    4.8402 C.3     1  UNL11      -0.0484
     20 C          -0.8779   -3.4509    4.9887 C.3     1  UNL11      -0.0176
     21 C           0.6881   -0.9885   -0.4874 C.ar    1  UNL11      -0.0369
     22 C           4.4570    1.6852    0.0566 C.ar    1  UNL11       0.0424
     23 C           5.4344    1.6038   -0.8914 C.ar    1  UNL11      -0.0142
     24 C           6.7142    2.0841   -0.6548 C.ar    1  UNL11       0.1268
     25 F           7.6696    1.9888   -1.6137 F       1  UNL11      -0.2054
     26 C           6.9698    2.6480    0.5696 C.ar    1  UNL11       0.0088
     27 C           6.0232    2.7493    1.5435 C.ar    1  UNL11       0.1268
     28 F           6.3730    3.3208    2.7170 F       1  UNL11      -0.2054
     29 C           4.7738    2.2649    1.2744 C.ar    1  UNL11      -0.0142
     30 H           3.6894   -0.3328   -1.5283 H       1  UNL11       0.1551
     31 H           1.8234   -0.0184   -3.4545 H       1  UNL11       0.0636
     32 H          -0.3731   -0.9335   -4.1516 H       1  UNL11       0.0618
     33 H          -1.8738   -1.8835   -2.5710 H       1  UNL11       0.0620
     34 H          -2.4193   -1.5585    0.1692 H       1  UNL11       0.0379
     35 H          -1.5734   -3.1485   -0.0314 H       1  UNL11       0.0379
     36 H           1.2535    0.0970    3.0764 H       1  UNL11       0.4828
     37 H          -2.5413   -4.0023    1.5203 H       1  UNL11       0.0314
     38 H          -1.3713   -4.8767    2.5895 H       1  UNL11       0.0314
     39 H          -3.3055   -2.7658    3.6479 H       1  UNL11       0.0268
     40 H          -3.7945   -4.5433    3.4905 H       1  UNL11       0.0268
     41 H          -2.8370   -3.9053    5.7089 H       1  UNL11       0.0269
     42 H          -2.0804   -5.2665    4.8497 H       1  UNL11       0.0269
     43 H          -0.0646   -4.2485    4.9874 H       1  UNL11       0.0316
     44 H          -0.7963   -2.8860    5.9584 H       1  UNL11       0.0316
     45 H           0.9168   -1.0346    0.5497 H       1  UNL11       0.0639
     46 H           5.2802    1.1662   -1.8645 H       1  UNL11       0.0654
     47 H           7.9693    3.0252    0.7594 H       1  UNL11       0.0675
     48 H           3.9967    2.3283    2.0235 H       1  UNL11       0.0654
@<TRIPOS>BOND
     1     1     2    2
     2     2     3   am
     3     2    22    1
     4     3     4    1
     5     3    30    1
     6     4     5   ar
     7     5     6   ar
     8     5    31    1
     9     6     7   ar
    10     6    32    1
    11     7     8   ar
    12     7    33    1
    13     8     9    1
    14     8    21   ar
    15     9    10    1
    16     9    34    1
    17     9    35    1
    18    10    11    2
    19    11    12    1
    20    12    13   am
    21    12    36    1
    22    13    14    2
    23    13    15    1
    24    15    16    2
    25    16    17    1
    26    16    10    1
    27    17    18    1
    28    17    37    1
    29    17    38    1
    30    18    19    1
    31    18    39    1
    32    18    40    1
    33    19    20    1
    34    19    41    1
    35    19    42    1
    36    20    15    1
    37    20    43    1
    38    20    44    1
    39    21     4   ar
    40    21    45    1
    41    22    23   ar
    42    23    24   ar
    43    23    46    1
    44    24    25    1
    45    24    26   ar
    46    26    27   ar
    47    26    47    1
    48    27    28    1
    49    27    29   ar
    50    29    22   ar
    51    29    48    1
@<TRIPOS>MOLECULE
*****
 48 51 0 0 0
SMALL
GASTEIGER

@<TRIPOS>ATOM
      1 O           4.3294    1.5110   -0.0914 O.2     1  UNL11      -0.2698
      2 C           3.1191    1.1774   -0.2122 C.2     1  UNL11       0.2484
      3 N           2.8213    0.0968   -1.0685 N.am    1  UNL11      -0.2815
      4 C           1.5671   -0.4482   -1.3757 C.ar    1  UNL11       0.0339
      5 C           1.1538   -0.4418   -2.7065 C.ar    1  UNL11      -0.0405
      6 C          -0.0439   -0.9374   -3.1141 C.ar    1  UNL11      -0.0597
      7 C          -0.9305   -1.4878   -2.1871 C.ar    1  UNL11      -0.0581
      8 C          -0.5675   -1.5120   -0.8858 C.ar    1  UNL11      -0.0396
      9 C          -1.4257   -2.0526    0.2017 C.3     1  UNL11       0.0208
     10 C          -1.7609   -1.0570    1.2373 C.2     1  UNL11       0.1150
     11 N          -2.4563    0.0629    0.8527 N.2     1  UNL11      -0.0076
     12 N          -2.8594    0.9646    1.7261 N.am    1  UNL11      -0.0358
     13 C          -2.6179    0.8514    3.0549 C.2     1  UNL11       0.4340
     14 O          -3.0246    1.7434    3.8667 O.2     1  UNL11      -0.2120
     15 C          -1.9125   -0.2665    3.5125 C.2     1  UNL11       0.0740
     16 C          -1.5069   -1.1887    2.5597 C.2     1  UNL11      -0.0072
     17 C          -0.7150   -2.3274    3.0776 C.3     1  UNL11      -0.0252
     18 C          -1.5471   -2.8571    4.2595 C.3     1  UNL11      -0.0487
     19 C          -1.3976   -1.8237    5.3417 C.3     1  UNL11      -0.0484
     20 C          -1.6299   -0.4212    4.9416 C.3     1  UNL11      -0.0176
     21 C           0.6881   -0.9885   -0.4874 C.ar    1  UNL11      -0.0369
     22 C           2.1352    1.9392    0.5437 C.ar    1  UNL11       0.0424
     23 C           0.9839    1.3497    0.9773 C.ar    1  UNL11      -0.0142
     24 C           0.0358    2.0583    1.7007 C.ar    1  UNL11       0.1268
     25 F          -1.1027    1.4493    2.1183 F       1  UNL11      -0.2054
     26 C           0.2920    3.3790    1.9698 C.ar    1  UNL11       0.0088
     27 C           1.4281    4.0058    1.5561 C.ar    1  UNL11       0.1268
     28 F           1.5885    5.3102    1.8707 F       1  UNL11      -0.2054
     29 C           2.3392    3.2759    0.8455 C.ar    1  UNL11      -0.0142
     30 H           3.6894   -0.3328   -1.5283 H       1  UNL11       0.1551
     31 H           1.8234   -0.0184   -3.4545 H       1  UNL11       0.0636
     32 H          -0.3731   -0.9335   -4.1516 H       1  UNL11       0.0618
     33 H          -1.8738   -1.8835   -2.5710 H       1  UNL11       0.0620
     34 H          -2.3381   -2.5070   -0.2382 H       1  UNL11       0.0379
     35 H          -0.8277   -2.8764    0.6923 H       1  UNL11       0.0379
     36 H          -3.3884    1.8004    1.3697 H       1  UNL11       0.4828
     37 H          -0.5311   -3.1407    2.3927 H       1  UNL11       0.0314
     38 H           0.2690   -1.9415    3.4874 H       1  UNL11       0.0314
     39 H          -2.5938   -2.9084    3.9195 H       1  UNL11       0.0268
     40 H          -1.1416   -3.8261    4.6068 H       1  UNL11       0.0268
     41 H          -2.1309   -2.1178    6.1390 H       1  UNL11       0.0269
     42 H          -0.3899   -2.0010    5.7951 H       1  UNL11       0.0269
     43 H          -0.6552    0.1414    5.1180 H       1  UNL11       0.0316
     44 H          -2.4270    0.0819    5.5563 H       1  UNL11       0.0316
     45 H           0.9168   -1.0346    0.5497 H       1  UNL11       0.0639
     46 H           0.7392    0.3173    0.7862 H       1  UNL11       0.0654
     47 H          -0.4466    3.9375    2.5355 H       1  UNL11       0.0675
     48 H           3.2529    3.7399    0.5008 H       1  UNL11       0.0654
@<TRIPOS>BOND
     1     1     2    2
     2     2     3   am
     3     2    22    1
     4     3     4    1
     5     3    30    1
     6     4     5   ar
     7     5     6   ar
     8     5    31    1
     9     6     7   ar
    10     6    32    1
    11     7     8   ar
    12     7    33    1
    13     8     9    1
    14     8    21   ar
    15     9    10    1
    16     9    34    1
    17     9    35    1
    18    10    11    2
    19    11    12    1
    20    12    13   am
    21    12    36    1
    22    13    14    2
    23    13    15    1
    24    15    16    2
    25    16    17    1
    26    16    10    1
    27    17    18    1
    28    17    37    1
    29    17    38    1
    30    18    19    1
    31    18    39    1
    32    18    40    1
    33    19    20    1
    34    19    41    1
    35    19    42    1
    36    20    15    1
    37    20    43    1
    38    20    44    1
    39    21     4   ar
    40    21    45    1
    41    22    23   ar
    42    23    24   ar
    43    23    46    1
    44    24    25    1
    45    24    26   ar
    46    26    27   ar
    47    26    47    1
    48    27    28    1
    49    27    29   ar
    50    29    22   ar
    51    29    48    1
@<TRIPOS>MOLECULE
*****
 48 51 0 0 0
SMALL
GASTEIGER

@<TRIPOS>ATOM
      1 O           2.1870    2.2574   -0.6706 O.2     1  UNL11      -0.2698
      2 C           3.1350    1.4272   -0.7202 C.2     1  UNL11       0.2484
      3 N           2.8213    0.0968   -1.0685 N.am    1  UNL11      -0.2815
      4 C           1.5671   -0.4482   -1.3757 C.ar    1  UNL11       0.0339
      5 C           1.1538   -0.4418   -2.7065 C.ar    1  UNL11      -0.0405
      6 C          -0.0439   -0.9374   -3.1141 C.ar    1  UNL11      -0.0597
      7 C          -0.9305   -1.4878   -2.1871 C.ar    1  UNL11      -0.0581
      8 C          -0.5675   -1.5120   -0.8858 C.ar    1  UNL11      -0.0396
      9 C          -1.4257   -2.0526    0.2017 C.3     1  UNL11       0.0208
     10 C          -0.8135   -1.9521    1.5400 C.2     1  UNL11       0.1150
     11 N          -0.5036   -0.7011    2.0139 N.2     1  UNL11      -0.0076
     12 N          -0.0230   -0.5173    3.2278 N.am    1  UNL11      -0.0358
     13 C           0.1978   -1.5417    4.0874 C.2     1  UNL11       0.4340
     14 O           0.6624   -1.3230    5.2520 O.2     1  UNL11      -0.2120
     15 C          -0.0961   -2.8425    3.6654 C.2     1  UNL11       0.0740
     16 C          -0.5985   -2.9897    2.3814 C.2     1  UNL11      -0.0072
     17 C          -0.8430   -4.3857    1.9534 C.3     1  UNL11      -0.0252
     18 C          -1.6656   -4.9929    3.1042 C.3     1  UNL11      -0.0487
     19 C          -0.6944   -5.1548    4.2407 C.3     1  UNL11      -0.0484
     20 C           0.1326   -3.9752    4.5658 C.3     1  UNL11      -0.0176
     21 C           0.6881   -0.9885   -0.4874 C.ar    1  UNL11      -0.0369
     22 C           4.4713    1.9164   -0.4123 C.ar    1  UNL11       0.0424
     23 C           4.6482    2.9566    0.4522 C.ar    1  UNL11      -0.0142
     24 C           5.9134    3.4352    0.7599 C.ar    1  UNL11       0.1268
     25 F           6.0623    4.4732    1.6211 F       1  UNL11      -0.2054
     26 C           6.9897    2.8268    0.1650 C.ar    1  UNL11       0.0088
     27 C           6.8577    1.7858   -0.7031 C.ar    1  UNL11       0.1268
     28 F           7.9791    1.2538   -1.2375 F       1  UNL11      -0.2054
     29 C           5.5957    1.3416   -0.9824 C.ar    1  UNL11      -0.0142
     30 H           3.6773   -0.5483   -1.0963 H       1  UNL11       0.1551
     31 H           1.8234   -0.0184   -3.4545 H       1  UNL11       0.0636
     32 H          -0.3731   -0.9335   -4.1516 H       1  UNL11       0.0618
     33 H          -1.8738   -1.8835   -2.5710 H       1  UNL11       0.0620
     34 H          -2.4193   -1.5585    0.1692 H       1  UNL11       0.0379
     35 H          -1.5734   -3.1485   -0.0314 H       1  UNL11       0.0379
     36 H           0.1943    0.4651    3.5332 H       1  UNL11       0.4828
     37 H          -1.3866   -4.5214    1.0311 H       1  UNL11       0.0314
     38 H           0.1455   -4.9381    1.9003 H       1  UNL11       0.0314
     39 H          -2.4443   -4.2589    3.3662 H       1  UNL11       0.0268
     40 H          -2.0645   -5.9813    2.8072 H       1  UNL11       0.0268
     41 H          -1.3189   -5.4376    5.1296 H       1  UNL11       0.0269
     42 H          -0.0971   -6.0709    4.0029 H       1  UNL11       0.0269
     43 H           1.2194   -4.2748    4.4021 H       1  UNL11       0.0316
     44 H           0.0289   -3.6514    5.6385 H       1  UNL11       0.0316
     45 H           0.9168   -1.0346    0.5497 H       1  UNL11       0.0639
     46 H           3.8328    3.4667    0.9393 H       1  UNL11       0.0654
     47 H           7.9815    3.1975    0.4026 H       1  UNL11       0.0675
     48 H           5.4520    0.5170   -1.6668 H       1  UNL11       0.0654
@<TRIPOS>BOND
     1     1     2    2
     2     2     3   am
     3     2    22    1
     4     3     4    1
     5     3    30    1
     6     4     5   ar
     7     5     6   ar
     8     5    31    1
     9     6     7   ar
    10     6    32    1
    11     7     8   ar
    12     7    33    1
    13     8     9    1
    14     8    21   ar
    15     9    10    1
    16     9    34    1
    17     9    35    1
    18    10    11    2
    19    11    12    1
    20    12    13   am
    21    12    36    1
    22    13    14    2
    23    13    15    1
    24    15    16    2
    25    16    17    1
    26    16    10    1
    27    17    18    1
    28    17    37    1
    29    17    38    1
    30    18    19    1
    31    18    39    1
    32    18    40    1
    33    19    20    1
    34    19    41    1
    35    19    42    1
    36    20    15    1
    37    20    43    1
    38    20    44    1
    39    21     4   ar
    40    21    45    1
    41    22    23   ar
    42    23    24   ar
    43    23    46    1
    44    24    25    1
    45    24    26   ar
    46    26    27   ar
    47    26    47    1
    48    27    28    1
    49    27    29   ar
    50    29    22   ar
    51    29    48    1
@<TRIPOS>MOLECULE
*****
 48 51 0 0 0
SMALL
GASTEIGER

@<TRIPOS>ATOM
      1 O           2.1870    2.2574   -0.6706 O.2     1  UNL11      -0.2698
      2 C           3.1350    1.4272   -0.7202 C.2     1  UNL11       0.2484
      3 N           2.8213    0.0968   -1.0685 N.am    1  UNL11      -0.2815
      4 C           1.5671   -0.4482   -1.3757 C.ar    1  UNL11       0.0339
      5 C           1.1538   -0.4418   -2.7065 C.ar    1  UNL11      -0.0405
      6 C          -0.0439   -0.9374   -3.1141 C.ar    1  UNL11      -0.0597
      7 C          -0.9305   -1.4878   -2.1871 C.ar    1  UNL11      -0.0581
      8 C          -0.5675   -1.5120   -0.8858 C.ar    1  UNL11      -0.0396
      9 C          -1.4257   -2.0526    0.2017 C.3     1  UNL11       0.0208
     10 C          -1.7566   -3.4806    0.0360 C.2     1  UNL11       0.1150
     11 N          -1.3657   -4.3508    1.0237 N.2     1  UNL11      -0.0076
     12 N          -1.6853   -5.6295    0.9896 N.am    1  UNL11      -0.0358
     13 C          -2.4163   -6.1717   -0.0147 C.2     1  UNL11       0.4340
     14 O          -2.7050   -7.4113   -0.0110 O.2     1  UNL11      -0.2120
     15 C          -2.8450   -5.3388   -1.0534 C.2     1  UNL11       0.0740
     16 C          -2.4855   -4.0017   -0.9777 C.2     1  UNL11      -0.0072
     17 C          -2.9101   -3.1662   -2.1238 C.3     1  UNL11      -0.0252
     18 C          -4.4077   -3.4835   -2.2858 C.3     1  UNL11      -0.0487
     19 C          -4.4570   -4.8770   -2.8491 C.3     1  UNL11      -0.0484
     20 C          -3.6343   -5.8900   -2.1576 C.3     1  UNL11      -0.0176
     21 C           0.6881   -0.9885   -0.4874 C.ar    1  UNL11      -0.0369
     22 C           4.4713    1.9164   -0.4123 C.ar    1  UNL11       0.0424
     23 C           4.6482    2.9566    0.4522 C.ar    1  UNL11      -0.0142
     24 C           5.9134    3.4352    0.7599 C.ar    1  UNL11       0.1268
     25 F           6.0623    4.4732    1.6211 F       1  UNL11      -0.2054
     26 C           6.9897    2.8268    0.1650 C.ar    1  UNL11       0.0088
     27 C           6.8577    1.7858   -0.7031 C.ar    1  UNL11       0.1268
     28 F           7.9791    1.2538   -1.2375 F       1  UNL11      -0.2054
     29 C           5.5957    1.3416   -0.9824 C.ar    1  UNL11      -0.0142
     30 H           3.6773   -0.5483   -1.0963 H       1  UNL11       0.1551
     31 H           1.8234   -0.0184   -3.4545 H       1  UNL11       0.0636
     32 H          -0.3731   -0.9335   -4.1516 H       1  UNL11       0.0618
     33 H          -1.8738   -1.8835   -2.5710 H       1  UNL11       0.0620
     34 H          -0.9465   -1.8559    1.1836 H       1  UNL11       0.0379
     35 H          -2.3904   -1.4654    0.1606 H       1  UNL11       0.0379
     36 H          -1.3568   -6.2453    1.7760 H       1  UNL11       0.4828
     37 H          -2.7930   -2.0990   -2.0148 H       1  UNL11       0.0314
     38 H          -2.3747   -3.5168   -3.0595 H       1  UNL11       0.0314
     39 H          -4.8529   -3.4606   -1.2784 H       1  UNL11       0.0268
     40 H          -4.8726   -2.7744   -2.9965 H       1  UNL11       0.0268
     41 H          -5.5382   -5.1761   -2.8123 H       1  UNL11       0.0269
     42 H          -4.2216   -4.7738   -3.9383 H       1  UNL11       0.0269
     43 H          -2.8706   -6.2708   -2.9123 H       1  UNL11       0.0316
     44 H          -4.2345   -6.7752   -1.8077 H       1  UNL11       0.0316
     45 H           0.9168   -1.0346    0.5497 H       1  UNL11       0.0639
     46 H           3.8328    3.4667    0.9393 H       1  UNL11       0.0654
     47 H           7.9815    3.1975    0.4026 H       1  UNL11       0.0675
     48 H           5.4520    0.5170   -1.6668 H       1  UNL11       0.0654
@<TRIPOS>BOND
     1     1     2    2
     2     2     3   am
     3     2    22    1
     4     3     4    1
     5     3    30    1
     6     4     5   ar
     7     5     6   ar
     8     5    31    1
     9     6     7   ar
    10     6    32    1
    11     7     8   ar
    12     7    33    1
    13     8     9    1
    14     8    21   ar
    15     9    10    1
    16     9    34    1
    17     9    35    1
    18    10    11    2
    19    11    12    1
    20    12    13   am
    21    12    36    1
    22    13    14    2
    23    13    15    1
    24    15    16    2
    25    16    17    1
    26    16    10    1
    27    17    18    1
    28    17    37    1
    29    17    38    1
    30    18    19    1
    31    18    39    1
    32    18    40    1
    33    19    20    1
    34    19    41    1
    35    19    42    1
    36    20    15    1
    37    20    43    1
    38    20    44    1
    39    21     4   ar
    40    21    45    1
    41    22    23   ar
    42    23    24   ar
    43    23    46    1
    44    24    25    1
    45    24    26   ar
    46    26    27   ar
    47    26    47    1
    48    27    28    1
    49    27    29   ar
    50    29    22   ar
    51    29    48    1
@<TRIPOS>MOLECULE
*****
 48 51 0 0 0
SMALL
GASTEIGER

@<TRIPOS>ATOM
      1 O           4.0955   -1.7900   -1.2819 O.2     1  UNL11      -0.2698
      2 C           4.0705   -0.5565   -1.0203 C.2     1  UNL11       0.2484
      3 N           2.8213    0.0968   -1.0685 N.am    1  UNL11      -0.2815
      4 C           1.5671   -0.4482   -1.3757 C.ar    1  UNL11       0.0339
      5 C           1.1538   -0.4418   -2.7065 C.ar    1  UNL11      -0.0405
      6 C          -0.0439   -0.9374   -3.1141 C.ar    1  UNL11      -0.0597
      7 C          -0.9305   -1.4878   -2.1871 C.ar    1  UNL11      -0.0581
      8 C          -0.5675   -1.5120   -0.8858 C.ar    1  UNL11      -0.0396
      9 C          -1.4257   -2.0526    0.2017 C.3     1  UNL11       0.0208
     10 C          -1.7566   -3.4806    0.0360 C.2     1  UNL11       0.1150
     11 N          -2.5581   -4.0698    0.9826 N.2     1  UNL11      -0.0076
     12 N          -2.9614   -5.3201    0.8709 N.am    1  UNL11      -0.0358
     13 C          -2.6162   -6.1065   -0.1776 C.2     1  UNL11       0.4340
     14 O          -3.0268   -7.3091   -0.2496 O.2     1  UNL11      -0.2120
     15 C          -1.7995   -5.5667   -1.1767 C.2     1  UNL11       0.0740
     16 C          -1.3980   -4.2490   -1.0183 C.2     1  UNL11      -0.0072
     17 C          -0.4893   -3.7336   -2.0675 C.3     1  UNL11      -0.0252
     18 C          -1.1921   -4.1008   -3.3869 C.3     1  UNL11      -0.0487
     19 C          -1.0403   -5.5915   -3.5131 C.3     1  UNL11      -0.0484
     20 C          -1.4030   -6.3878   -2.3234 C.3     1  UNL11      -0.0176
     21 C           0.6881   -0.9885   -0.4874 C.ar    1  UNL11      -0.0369
     22 C           5.3357    0.0849   -0.6920 C.ar    1  UNL11       0.0424
     23 C           6.5065   -0.3793   -1.2162 C.ar    1  UNL11      -0.0142
     24 C           7.7214    0.2198   -0.9171 C.ar    1  UNL11       0.1268
     25 F           8.8724   -0.2630   -1.4495 F       1  UNL11      -0.2054
     26 C           7.7109    1.3013   -0.0729 C.ar    1  UNL11       0.0088
     27 C           6.5652    1.7967    0.4717 C.ar    1  UNL11       0.1268
     28 F           6.6587    2.8660    1.2927 F       1  UNL11      -0.2054
     29 C           5.3872    1.1804    0.1546 C.ar    1  UNL11      -0.0142
     30 H           2.8779    1.1403   -0.8288 H       1  UNL11       0.1551
     31 H           1.8234   -0.0184   -3.4545 H       1  UNL11       0.0636
     32 H          -0.3731   -0.9335   -4.1516 H       1  UNL11       0.0618
     33 H          -1.8738   -1.8835   -2.5710 H       1  UNL11       0.0620
     34 H          -0.9465   -1.8559    1.1836 H       1  UNL11       0.0379
     35 H          -2.3904   -1.4654    0.1606 H       1  UNL11       0.0379
     36 H          -3.5746   -5.7144    1.6285 H       1  UNL11       0.4828
     37 H          -0.2968   -2.6718   -2.0625 H       1  UNL11       0.0314
     38 H           0.4911   -4.3010   -2.0233 H       1  UNL11       0.0314
     39 H          -2.2542   -3.8314   -3.2723 H       1  UNL11       0.0268
     40 H          -0.6927   -3.5990   -4.2370 H       1  UNL11       0.0268
     41 H          -1.6901   -5.8858   -4.3798 H       1  UNL11       0.0269
     42 H           0.0081   -5.7622   -3.8658 H       1  UNL11       0.0269
     43 H          -0.4618   -6.9359   -1.9896 H       1  UNL11       0.0316
     44 H          -2.1878   -7.1644   -2.5404 H       1  UNL11       0.0316
     45 H           0.9168   -1.0346    0.5497 H       1  UNL11       0.0639
     46 H           6.5629   -1.2270   -1.8798 H       1  UNL11       0.0654
     47 H           8.6588    1.7734    0.1639 H       1  UNL11       0.0675
     48 H           4.4575    1.5461    0.5679 H       1  UNL11       0.0654
@<TRIPOS>BOND
     1     1     2    2
     2     2     3   am
     3     2    22    1
     4     3     4    1
     5     3    30    1
     6     4     5   ar
     7     5     6   ar
     8     5    31    1
     9     6     7   ar
    10     6    32    1
    11     7     8   ar
    12     7    33    1
    13     8     9    1
    14     8    21   ar
    15     9    10    1
    16     9    34    1
    17     9    35    1
    18    10    11    2
    19    11    12    1
    20    12    13   am
    21    12    36    1
    22    13    14    2
    23    13    15    1
    24    15    16    2
    25    16    17    1
    26    16    10    1
    27    17    18    1
    28    17    37    1
    29    17    38    1
    30    18    19    1
    31    18    39    1
    32    18    40    1
    33    19    20    1
    34    19    41    1
    35    19    42    1
    36    20    15    1
    37    20    43    1
    38    20    44    1
    39    21     4   ar
    40    21    45    1
    41    22    23   ar
    42    23    24   ar
    43    23    46    1
    44    24    25    1
    45    24    26   ar
    46    26    27   ar
    47    26    47    1
    48    27    28    1
    49    27    29   ar
    50    29    22   ar
    51    29    48    1
@<TRIPOS>MOLECULE
*****
 48 51 0 0 0
SMALL
GASTEIGER

@<TRIPOS>ATOM
      1 O           4.3294    1.5110   -0.0914 O.2     1  UNL11      -0.2698
      2 C           3.1191    1.1774   -0.2122 C.2     1  UNL11       0.2484
      3 N           2.8213    0.0968   -1.0685 N.am    1  UNL11      -0.2815
      4 C           1.5671   -0.4482   -1.3757 C.ar    1  UNL11       0.0339
      5 C           1.1538   -0.4418   -2.7065 C.ar    1  UNL11      -0.0405
      6 C          -0.0439   -0.9374   -3.1141 C.ar    1  UNL11      -0.0597
      7 C          -0.9305   -1.4878   -2.1871 C.ar    1  UNL11      -0.0581
      8 C          -0.5675   -1.5120   -0.8858 C.ar    1  UNL11      -0.0396
      9 C          -1.4257   -2.0526    0.2017 C.3     1  UNL11       0.0208
     10 C          -0.8135   -1.9521    1.5400 C.2     1  UNL11       0.1150
     11 N           0.0592   -0.9178    1.7728 N.2     1  UNL11      -0.0076
     12 N           0.5924   -0.7125    2.9610 N.am    1  UNL11      -0.0358
     13 C           0.3195   -1.5016    4.0287 C.2     1  UNL11       0.4340
     14 O           0.8541   -1.2699    5.1603 O.2     1  UNL11      -0.2120
     15 C          -0.5616   -2.5744    3.8582 C.2     1  UNL11       0.0740
     16 C          -1.0980   -2.7538    2.5922 C.2     1  UNL11      -0.0072
     17 C          -1.9808   -3.9326    2.4398 C.3     1  UNL11      -0.0252
     18 C          -2.9707   -3.8148    3.6127 C.3     1  UNL11      -0.0487
     19 C          -2.1698   -4.1509    4.8402 C.3     1  UNL11      -0.0484
     20 C          -0.8779   -3.4509    4.9887 C.3     1  UNL11      -0.0176
     21 C           0.6881   -0.9885   -0.4874 C.ar    1  UNL11      -0.0369
     22 C           2.1352    1.9392    0.5437 C.ar    1  UNL11       0.0424
     23 C           0.9839    1.3497    0.9773 C.ar    1  UNL11      -0.0142
     24 C           0.0358    2.0583    1.7007 C.ar    1  UNL11       0.1268
     25 F          -1.1027    1.4493    2.1183 F       1  UNL11      -0.2054
     26 C           0.2920    3.3790    1.9698 C.ar    1  UNL11       0.0088
     27 C           1.4281    4.0058    1.5561 C.ar    1  UNL11       0.1268
     28 F           1.5885    5.3102    1.8707 F       1  UNL11      -0.2054
     29 C           2.3392    3.2759    0.8455 C.ar    1  UNL11      -0.0142
     30 H           3.6894   -0.3328   -1.5283 H       1  UNL11       0.1551
     31 H           1.8234   -0.0184   -3.4545 H       1  UNL11       0.0636
     32 H          -0.3731   -0.9335   -4.1516 H       1  UNL11       0.0618
     33 H          -1.8738   -1.8835   -2.5710 H       1  UNL11       0.0620
     34 H          -2.4193   -1.5585    0.1692 H       1  UNL11       0.0379
     35 H          -1.5734   -3.1485   -0.0314 H       1  UNL11       0.0379
     36 H           1.2535    0.0970    3.0764 H       1  UNL11       0.4828
     37 H          -2.5413   -4.0023    1.5203 H       1  UNL11       0.0314
     38 H          -1.3713   -4.8767    2.5895 H       1  UNL11       0.0314
     39 H          -3.3055   -2.7658    3.6479 H       1  UNL11       0.0268
     40 H          -3.7945   -4.5433    3.4905 H       1  UNL11       0.0268
     41 H          -2.8370   -3.9053    5.7089 H       1  UNL11       0.0269
     42 H          -2.0804   -5.2665    4.8497 H       1  UNL11       0.0269
     43 H          -0.0646   -4.2485    4.9874 H       1  UNL11       0.0316
     44 H          -0.7963   -2.8860    5.9584 H       1  UNL11       0.0316
     45 H           0.9168   -1.0346    0.5497 H       1  UNL11       0.0639
     46 H           0.7392    0.3173    0.7862 H       1  UNL11       0.0654
     47 H          -0.4466    3.9375    2.5355 H       1  UNL11       0.0675
     48 H           3.2529    3.7399    0.5008 H       1  UNL11       0.0654
@<TRIPOS>BOND
     1     1     2    2
     2     2     3   am
     3     2    22    1
     4     3     4    1
     5     3    30    1
     6     4     5   ar
     7     5     6   ar
     8     5    31    1
     9     6     7   ar
    10     6    32    1
    11     7     8   ar
    12     7    33    1
    13     8     9    1
    14     8    21   ar
    15     9    10    1
    16     9    34    1
    17     9    35    1
    18    10    11    2
    19    11    12    1
    20    12    13   am
    21    12    36    1
    22    13    14    2
    23    13    15    1
    24    15    16    2
    25    16    17    1
    26    16    10    1
    27    17    18    1
    28    17    37    1
    29    17    38    1
    30    18    19    1
    31    18    39    1
    32    18    40    1
    33    19    20    1
    34    19    41    1
    35    19    42    1
    36    20    15    1
    37    20    43    1
    38    20    44    1
    39    21     4   ar
    40    21    45    1
    41    22    23   ar
    42    23    24   ar
    43    23    46    1
    44    24    25    1
    45    24    26   ar
    46    26    27   ar
    47    26    47    1
    48    27    28    1
    49    27    29   ar
    50    29    22   ar
    51    29    48    1
@<TRIPOS>MOLECULE
*****
 48 51 0 0 0
SMALL
GASTEIGER

@<TRIPOS>ATOM
      1 O           2.1545    1.7480    0.3660 O.2     1  UNL11      -0.2698
      2 C           3.1191    1.1774   -0.2122 C.2     1  UNL11       0.2484
      3 N           2.8213    0.0968   -1.0685 N.am    1  UNL11      -0.2815
      4 C           1.5671   -0.4482   -1.3757 C.ar    1  UNL11       0.0339
      5 C           1.1538   -0.4418   -2.7065 C.ar    1  UNL11      -0.0405
      6 C          -0.0439   -0.9374   -3.1141 C.ar    1  UNL11      -0.0597
      7 C          -0.9305   -1.4878   -2.1871 C.ar    1  UNL11      -0.0581
      8 C          -0.5675   -1.5120   -0.8858 C.ar    1  UNL11      -0.0396
      9 C          -1.4257   -2.0526    0.2017 C.3     1  UNL11       0.0208
     10 C          -2.8701   -1.9216   -0.0678 C.2     1  UNL11       0.1150
     11 N          -3.5040   -0.7810    0.3598 N.2     1  UNL11      -0.0076
     12 N          -4.7751   -0.5517    0.0952 N.am    1  UNL11      -0.0358
     13 C          -5.5405   -1.4185   -0.6118 C.2     1  UNL11       0.4340
     14 O          -6.7644   -1.1604   -0.8473 O.2     1  UNL11      -0.2120
     15 C          -4.9550   -2.6011   -1.0756 C.2     1  UNL11       0.0740
     16 C          -3.6167   -2.8020   -0.7736 C.2     1  UNL11      -0.0072
     17 C          -3.0504   -4.0904   -1.2334 C.3     1  UNL11      -0.0252
     18 C          -3.4566   -4.1717   -2.7160 C.3     1  UNL11      -0.0487
     19 C          -4.9363   -4.4394   -2.7055 C.3     1  UNL11      -0.0484
     20 C          -5.7521   -3.5634   -1.8404 C.3     1  UNL11      -0.0176
     21 C           0.6881   -0.9885   -0.4874 C.ar    1  UNL11      -0.0369
     22 C           4.4570    1.6852    0.0566 C.ar    1  UNL11       0.0424
     23 C           4.7523    2.2640    1.2560 C.ar    1  UNL11      -0.0142
     24 C           6.0215    2.7514    1.5316 C.ar    1  UNL11       0.1268
     25 F           6.2890    3.3254    2.7318 F       1  UNL11      -0.2054
     26 C           6.9783    2.6330    0.5554 C.ar    1  UNL11       0.0088
     27 C           6.7258    2.0620   -0.6549 C.ar    1  UNL11       0.1268
     28 F           7.7349    1.9923   -1.5510 F       1  UNL11      -0.2054
     29 C           5.4638    1.5933   -0.8907 C.ar    1  UNL11      -0.0142
     30 H           3.6894   -0.3328   -1.5283 H       1  UNL11       0.1551
     31 H           1.8234   -0.0184   -3.4545 H       1  UNL11       0.0636
     32 H          -0.3731   -0.9335   -4.1516 H       1  UNL11       0.0618
     33 H          -1.8738   -1.8835   -2.5710 H       1  UNL11       0.0620
     34 H          -1.1427   -3.1062    0.4072 H       1  UNL11       0.0379
     35 H          -1.1871   -1.4416    1.1219 H       1  UNL11       0.0379
     36 H          -5.2037    0.3407    0.4495 H       1  UNL11       0.4828
     37 H          -1.9794   -4.2016   -1.1620 H       1  UNL11       0.0314
     38 H          -3.5614   -4.9398   -0.6833 H       1  UNL11       0.0314
     39 H          -3.2478   -3.1861   -3.1619 H       1  UNL11       0.0268
     40 H          -2.9270   -5.0077   -3.2107 H       1  UNL11       0.0268
     41 H          -5.2667   -4.3333   -3.7730 H       1  UNL11       0.0269
     42 H          -5.0471   -5.5288   -2.4746 H       1  UNL11       0.0269
     43 H          -6.2461   -4.2314   -1.0610 H       1  UNL11       0.0316
     44 H          -6.5718   -3.0358   -2.4023 H       1  UNL11       0.0316
     45 H           0.9168   -1.0346    0.5497 H       1  UNL11       0.0639
     46 H           4.0323    2.3816    2.0498 H       1  UNL11       0.0654
     47 H           7.9727    3.0127    0.7663 H       1  UNL11       0.0675
     48 H           5.2266    1.1335   -1.8400 H       1  UNL11       0.0654
@<TRIPOS>BOND
     1     1     2    2
     2     2     3   am
     3     2    22    1
     4     3     4    1
     5     3    30    1
     6     4     5   ar
     7     5     6   ar
     8     5    31    1
     9     6     7   ar
    10     6    32    1
    11     7     8   ar
    12     7    33    1
    13     8     9    1
    14     8    21   ar
    15     9    10    1
    16     9    34    1
    17     9    35    1
    18    10    11    2
    19    11    12    1
    20    12    13   am
    21    12    36    1
    22    13    14    2
    23    13    15    1
    24    15    16    2
    25    16    17    1
    26    16    10    1
    27    17    18    1
    28    17    37    1
    29    17    38    1
    30    18    19    1
    31    18    39    1
    32    18    40    1
    33    19    20    1
    34    19    41    1
    35    19    42    1
    36    20    15    1
    37    20    43    1
    38    20    44    1
    39    21     4   ar
    40    21    45    1
    41    22    23   ar
    42    23    24   ar
    43    23    46    1
    44    24    25    1
    45    24    26   ar
    46    26    27   ar
    47    26    47    1
    48    27    28    1
    49    27    29   ar
    50    29    22   ar
    51    29    48    1
@<TRIPOS>MOLECULE
*****
 48 51 0 0 0
SMALL
GASTEIGER

@<TRIPOS>ATOM
      1 O           4.3294    1.5110   -0.0914 O.2     1  UNL11      -0.2698
      2 C           3.1191    1.1774   -0.2122 C.2     1  UNL11       0.2484
      3 N           2.8213    0.0968   -1.0685 N.am    1  UNL11      -0.2815
      4 C           1.5671   -0.4482   -1.3757 C.ar    1  UNL11       0.0339
      5 C           1.1538   -0.4418   -2.7065 C.ar    1  UNL11      -0.0405
      6 C          -0.0439   -0.9374   -3.1141 C.ar    1  UNL11      -0.0597
      7 C          -0.9305   -1.4878   -2.1871 C.ar    1  UNL11      -0.0581
      8 C          -0.5675   -1.5120   -0.8858 C.ar    1  UNL11      -0.0396
      9 C          -1.4257   -2.0526    0.2017 C.3     1  UNL11       0.0208
     10 C          -2.3277   -3.1324   -0.2416 C.2     1  UNL11       0.1150
     11 N          -1.9167   -3.9278   -1.2828 N.2     1  UNL11      -0.0076
     12 N          -2.6283   -4.9596   -1.6918 N.am    1  UNL11      -0.0358
     13 C          -3.8066   -5.3058   -1.1185 C.2     1  UNL11       0.4340
     14 O          -4.4640   -6.3101   -1.5420 O.2     1  UNL11      -0.2120
     15 C          -4.2825   -4.5350   -0.0528 C.2     1  UNL11       0.0740
     16 C          -3.5030   -3.4590    0.3437 C.2     1  UNL11      -0.0072
     17 C          -4.0689   -2.6359    1.4365 C.3     1  UNL11      -0.0252
     18 C          -4.4547   -3.6611    2.5181 C.3     1  UNL11      -0.0487
     19 C          -5.6620   -4.3734    1.9738 C.3     1  UNL11      -0.0484
     20 C          -5.5540   -4.8769    0.5896 C.3     1  UNL11      -0.0176
     21 C           0.6881   -0.9885   -0.4874 C.ar    1  UNL11      -0.0369
     22 C           2.1352    1.9392    0.5437 C.ar    1  UNL11       0.0424
     23 C           2.5232    2.9710    1.3471 C.ar    1  UNL11      -0.0142
     24 C           1.6005    3.7099    2.0730 C.ar    1  UNL11       0.1268
     25 F           2.0127    4.7300    2.8673 F       1  UNL11      -0.2054
     26 C           0.2762    3.3702    1.9581 C.ar    1  UNL11       0.0088
     27 C          -0.1539    2.3480    1.1675 C.ar    1  UNL11       0.1268
     28 F          -1.4797    2.0908    1.1214 F       1  UNL11      -0.2054
     29 C           0.7840    1.6423    0.4674 C.ar    1  UNL11      -0.0142
     30 H           3.6894   -0.3328   -1.5283 H       1  UNL11       0.1551
     31 H           1.8234   -0.0184   -3.4545 H       1  UNL11       0.0636
     32 H          -0.3731   -0.9335   -4.1516 H       1  UNL11       0.0618
     33 H          -1.8738   -1.8835   -2.5710 H       1  UNL11       0.0620
     34 H          -0.7875   -2.3765    1.0503 H       1  UNL11       0.0379
     35 H          -2.0641   -1.1897    0.5551 H       1  UNL11       0.0379
     36 H          -2.2600   -5.5310   -2.4940 H       1  UNL11       0.4828
     37 H          -3.4146   -1.8991    1.8766 H       1  UNL11       0.0314
     38 H          -5.0193   -2.1360    1.0731 H       1  UNL11       0.0314
     39 H          -3.6086   -4.3598    2.6164 H       1  UNL11       0.0268
     40 H          -4.7174   -3.1416    3.4590 H       1  UNL11       0.0268
     41 H          -5.8459   -5.2294    2.6762 H       1  UNL11       0.0269
     42 H          -6.5239   -3.6774    2.1331 H       1  UNL11       0.0269
     43 H          -6.3531   -4.3435   -0.0224 H       1  UNL11       0.0316
     44 H          -5.7491   -5.9823    0.5106 H       1  UNL11       0.0316
     45 H           0.9168   -1.0346    0.5497 H       1  UNL11       0.0639
     46 H           3.5515    3.2705    1.4708 H       1  UNL11       0.0654
     47 H          -0.4494    3.9453    2.5239 H       1  UNL11       0.0675
     48 H           0.4797    0.8242   -0.1706 H       1  UNL11       0.0654
@<TRIPOS>BOND
     1     1     2    2
     2     2     3   am
     3     2    22    1
     4     3     4    1
     5     3    30    1
     6     4     5   ar
     7     5     6   ar
     8     5    31    1
     9     6     7   ar
    10     6    32    1
    11     7     8   ar
    12     7    33    1
    13     8     9    1
    14     8    21   ar
    15     9    10    1
    16     9    34    1
    17     9    35    1
    18    10    11    2
    19    11    12    1
    20    12    13   am
    21    12    36    1
    22    13    14    2
    23    13    15    1
    24    15    16    2
    25    16    17    1
    26    16    10    1
    27    17    18    1
    28    17    37    1
    29    17    38    1
    30    18    19    1
    31    18    39    1
    32    18    40    1
    33    19    20    1
    34    19    41    1
    35    19    42    1
    36    20    15    1
    37    20    43    1
    38    20    44    1
    39    21     4   ar
    40    21    45    1
    41    22    23   ar
    42    23    24   ar
    43    23    46    1
    44    24    25    1
    45    24    26   ar
    46    26    27   ar
    47    26    47    1
    48    27    28    1
    49    27    29   ar
    50    29    22   ar
    51    29    48    1
@<TRIPOS>MOLECULE
*****
 48 51 0 0 0
SMALL
GASTEIGER

@<TRIPOS>ATOM
      1 O           4.9648    0.1515   -0.2741 O.2     1  UNL11      -0.2698
      2 C           3.9293   -0.5405   -0.4721 C.2     1  UNL11       0.2484
      3 N           2.8213    0.0968   -1.0685 N.am    1  UNL11      -0.2815
      4 C           1.5671   -0.4482   -1.3757 C.ar    1  UNL11       0.0339
      5 C           1.1538   -0.4418   -2.7065 C.ar    1  UNL11      -0.0405
      6 C          -0.0439   -0.9374   -3.1141 C.ar    1  UNL11      -0.0597
      7 C          -0.9305   -1.4878   -2.1871 C.ar    1  UNL11      -0.0581
      8 C          -0.5675   -1.5120   -0.8858 C.ar    1  UNL11      -0.0396
      9 C          -1.4257   -2.0526    0.2017 C.3     1  UNL11       0.0208
     10 C          -2.3277   -3.1324   -0.2416 C.2     1  UNL11       0.1150
     11 N          -2.2032   -4.3618    0.3573 N.2     1  UNL11      -0.0076
     12 N          -3.0175   -5.3590    0.0728 N.am    1  UNL11      -0.0358
     13 C          -4.0270   -5.2426   -0.8240 C.2     1  UNL11       0.4340
     14 O          -4.7927   -6.2290   -1.0707 O.2     1  UNL11      -0.2120
     15 C          -4.2074   -4.0156   -1.4708 C.2     1  UNL11       0.0740
     16 C          -3.3280   -2.9951   -1.1422 C.2     1  UNL11      -0.0072
     17 C          -3.5173   -1.7312   -1.8896 C.3     1  UNL11      -0.0252
     18 C          -5.0215   -1.4347   -1.7517 C.3     1  UNL11      -0.0487
     19 C          -5.7053   -2.4485   -2.6269 C.3     1  UNL11      -0.0484
     20 C          -5.2861   -3.8534   -2.4487 C.3     1  UNL11      -0.0176
     21 C           0.6881   -0.9885   -0.4874 C.ar    1  UNL11      -0.0369
     22 C           3.9693   -1.9382   -0.0659 C.ar    1  UNL11       0.0424
     23 C           3.2400   -2.8771   -0.7347 C.ar    1  UNL11      -0.0142
     24 C           3.2670   -4.2137   -0.3642 C.ar    1  UNL11       0.1268
     25 F           2.5300   -5.1279   -1.0443 F       1  UNL11      -0.2054
     26 C           4.0550   -4.5663    0.7021 C.ar    1  UNL11       0.0088
     27 C           4.7988   -3.6612    1.3967 C.ar    1  UNL11       0.1268
     28 F           5.5430   -4.1070    2.4329 F       1  UNL11      -0.2054
     29 C           4.7468   -2.3534    1.0030 C.ar    1  UNL11      -0.0142
     30 H           2.9972    1.1296   -1.2966 H       1  UNL11       0.1551
     31 H           1.8234   -0.0184   -3.4545 H       1  UNL11       0.0636
     32 H          -0.3731   -0.9335   -4.1516 H       1  UNL11       0.0618
     33 H          -1.8738   -1.8835   -2.5710 H       1  UNL11       0.0620
     34 H          -0.7875   -2.3765    1.0503 H       1  UNL11       0.0379
     35 H          -2.0641   -1.1897    0.5551 H       1  UNL11       0.0379
     36 H          -2.8713   -6.2763    0.5654 H       1  UNL11       0.4828
     37 H          -2.9628   -0.8740   -1.5399 H       1  UNL11       0.0314
     38 H          -3.2948   -1.9098   -2.9868 H       1  UNL11       0.0314
     39 H          -5.2868   -1.5984   -0.6951 H       1  UNL11       0.0268
     40 H          -5.2434   -0.4137   -2.1156 H       1  UNL11       0.0268
     41 H          -6.8003   -2.3473   -2.4021 H       1  UNL11       0.0269
     42 H          -5.5887   -2.0740   -3.6752 H       1  UNL11       0.0269
     43 H          -4.8464   -4.1984   -3.4413 H       1  UNL11       0.0316
     44 H          -6.1451   -4.5375   -2.2031 H       1  UNL11       0.0316
     45 H           0.9168   -1.0346    0.5497 H       1  UNL11       0.0639
     46 H           2.6050   -2.6456   -1.5746 H       1  UNL11       0.0654
     47 H           4.0796   -5.6106    0.9957 H       1  UNL11       0.0675
     48 H           5.3240   -1.6068    1.5306 H       1  UNL11       0.0654
@<TRIPOS>BOND
     1     1     2    2
     2     2     3   am
     3     2    22    1
     4     3     4    1
     5     3    30    1
     6     4     5   ar
     7     5     6   ar
     8     5    31    1
     9     6     7   ar
    10     6    32    1
    11     7     8   ar
    12     7    33    1
    13     8     9    1
    14     8    21   ar
    15     9    10    1
    16     9    34    1
    17     9    35    1
    18    10    11    2
    19    11    12    1
    20    12    13   am
    21    12    36    1
    22    13    14    2
    23    13    15    1
    24    15    16    2
    25    16    17    1
    26    16    10    1
    27    17    18    1
    28    17    37    1
    29    17    38    1
    30    18    19    1
    31    18    39    1
    32    18    40    1
    33    19    20    1
    34    19    41    1
    35    19    42    1
    36    20    15    1
    37    20    43    1
    38    20    44    1
    39    21     4   ar
    40    21    45    1
    41    22    23   ar
    42    23    24   ar
    43    23    46    1
    44    24    25    1
    45    24    26   ar
    46    26    27   ar
    47    26    47    1
    48    27    28    1
    49    27    29   ar
    50    29    22   ar
    51    29    48    1
@<TRIPOS>MOLECULE
*****
 48 51 0 0 0
SMALL
GASTEIGER

@<TRIPOS>ATOM
      1 O           4.8436    1.0934   -1.4503 O.2     1  UNL11      -0.2698
      2 C           3.7628    0.6736   -1.9463 C.2     1  UNL11       0.2484
      3 N           2.8213    0.0968   -1.0685 N.am    1  UNL11      -0.2815
      4 C           1.5671   -0.4482   -1.3757 C.ar    1  UNL11       0.0339
      5 C           1.1538   -0.4418   -2.7065 C.ar    1  UNL11      -0.0405
      6 C          -0.0439   -0.9374   -3.1141 C.ar    1  UNL11      -0.0597
      7 C          -0.9305   -1.4878   -2.1871 C.ar    1  UNL11      -0.0581
      8 C          -0.5675   -1.5120   -0.8858 C.ar    1  UNL11      -0.0396
      9 C          -1.4257   -2.0526    0.2017 C.3     1  UNL11       0.0208
     10 C          -2.3079   -1.0410    0.8136 C.2     1  UNL11       0.1150
     11 N          -1.8328   -0.3428    1.8964 N.2     1  UNL11      -0.0076
     12 N          -2.5270    0.6285    2.4559 N.am    1  UNL11      -0.0358
     13 C          -3.7491    1.0038    2.0060 C.2     1  UNL11       0.4340
     14 O          -4.3878    1.9475    2.5731 O.2     1  UNL11      -0.2120
     15 C          -4.2912    0.3311    0.9059 C.2     1  UNL11       0.0740
     16 C          -3.5277   -0.6839    0.3496 C.2     1  UNL11      -0.0072
     17 C          -4.1606   -1.4079   -0.7761 C.3     1  UNL11      -0.0252
     18 C          -4.6395   -0.2902   -1.7200 C.3     1  UNL11      -0.0487
     19 C          -5.8136    0.3392   -1.0224 C.3     1  UNL11      -0.0484
     20 C          -5.6112    0.7070    0.3936 C.3     1  UNL11      -0.0176
     21 C           0.6881   -0.9885   -0.4874 C.ar    1  UNL11      -0.0369
     22 C           3.5829    0.8211   -3.3836 C.ar    1  UNL11       0.0424
     23 C           2.4331    0.4026   -3.9864 C.ar    1  UNL11      -0.0142
     24 C           2.2423    0.5368   -5.3539 C.ar    1  UNL11       0.1268
     25 F           1.0901    0.1099   -5.9297 F       1  UNL11      -0.2054
     26 C           3.2513    1.1075   -6.0877 C.ar    1  UNL11       0.0088
     27 C           4.4145    1.5389   -5.5258 C.ar    1  UNL11       0.1268
     28 F           5.3488    2.0875   -6.3335 F       1  UNL11      -0.2054
     29 C           4.5669    1.3900   -4.1758 C.ar    1  UNL11      -0.0142
     30 H           3.1437    0.0874   -0.0460 H       1  UNL11       0.1551
     31 H           1.8234   -0.0184   -3.4545 H       1  UNL11       0.0636
     32 H          -0.3731   -0.9335   -4.1516 H       1  UNL11       0.0618
     33 H          -1.8738   -1.8835   -2.5710 H       1  UNL11       0.0620
     34 H          -2.0031   -2.9207   -0.1796 H       1  UNL11       0.0379
     35 H          -0.7198   -2.4271    1.0008 H       1  UNL11       0.0379
     36 H          -2.1089    1.1263    3.2823 H       1  UNL11       0.4828
     37 H          -3.5301   -2.0838   -1.3330 H       1  UNL11       0.0314
     38 H          -5.0745   -1.9613   -0.3968 H       1  UNL11       0.0314
     39 H          -3.8130    0.4327   -1.8090 H       1  UNL11       0.0268
     40 H          -4.9633   -0.7205   -2.6865 H       1  UNL11       0.0268
     41 H          -6.0608    1.2558   -1.6213 H       1  UNL11       0.0269
     42 H          -6.6748   -0.3561   -1.1877 H       1  UNL11       0.0269
     43 H          -6.3554    0.0991    1.0054 H       1  UNL11       0.0316
     44 H          -5.8157    1.7949    0.5957 H       1  UNL11       0.0316
     45 H           0.9168   -1.0346    0.5497 H       1  UNL11       0.0639
     46 H           1.6164   -0.0541   -3.4509 H       1  UNL11       0.0654
     47 H           3.1067    1.2148   -7.1578 H       1  UNL11       0.0675
     48 H           5.4769    1.7211   -3.6949 H       1  UNL11       0.0654
@<TRIPOS>BOND
     1     1     2    2
     2     2     3   am
     3     2    22    1
     4     3     4    1
     5     3    30    1
     6     4     5   ar
     7     5     6   ar
     8     5    31    1
     9     6     7   ar
    10     6    32    1
    11     7     8   ar
    12     7    33    1
    13     8     9    1
    14     8    21   ar
    15     9    10    1
    16     9    34    1
    17     9    35    1
    18    10    11    2
    19    11    12    1
    20    12    13   am
    21    12    36    1
    22    13    14    2
    23    13    15    1
    24    15    16    2
    25    16    17    1
    26    16    10    1
    27    17    18    1
    28    17    37    1
    29    17    38    1
    30    18    19    1
    31    18    39    1
    32    18    40    1
    33    19    20    1
    34    19    41    1
    35    19    42    1
    36    20    15    1
    37    20    43    1
    38    20    44    1
    39    21     4   ar
    40    21    45    1
    41    22    23   ar
    42    23    24   ar
    43    23    46    1
    44    24    25    1
    45    24    26   ar
    46    26    27   ar
    47    26    47    1
    48    27    28    1
    49    27    29   ar
    50    29    22   ar
    51    29    48    1
@<TRIPOS>MOLECULE
*****
 48 51 0 0 0
SMALL
GASTEIGER

@<TRIPOS>ATOM
      1 O           4.3294    1.5110   -0.0914 O.2     1  UNL11      -0.2698
      2 C           3.1191    1.1774   -0.2122 C.2     1  UNL11       0.2484
      3 N           2.8213    0.0968   -1.0685 N.am    1  UNL11      -0.2815
      4 C           1.5671   -0.4482   -1.3757 C.ar    1  UNL11       0.0339
      5 C           1.1538   -0.4418   -2.7065 C.ar    1  UNL11      -0.0405
      6 C          -0.0439   -0.9374   -3.1141 C.ar    1  UNL11      -0.0597
      7 C          -0.9305   -1.4878   -2.1871 C.ar    1  UNL11      -0.0581
      8 C          -0.5675   -1.5120   -0.8858 C.ar    1  UNL11      -0.0396
      9 C          -1.4257   -2.0526    0.2017 C.3     1  UNL11       0.0208
     10 C          -2.3079   -1.0410    0.8136 C.2     1  UNL11       0.1150
     11 N          -3.6640   -1.2478    0.7524 N.2     1  UNL11      -0.0076
     12 N          -4.5185   -0.4318    1.3376 N.am    1  UNL11      -0.0358
     13 C          -4.1224    0.6605    2.0353 C.2     1  UNL11       0.4340
     14 O          -4.9786    1.4239    2.5868 O.2     1  UNL11      -0.2120
     15 C          -2.7532    0.9289    2.1348 C.2     1  UNL11       0.0740
     16 C          -1.8908    0.0456    1.5036 C.2     1  UNL11      -0.0072
     17 C          -0.4546    0.3960    1.5847 C.3     1  UNL11      -0.0252
     18 C          -0.2168    0.6619    3.0822 C.3     1  UNL11      -0.0487
     19 C          -0.8990    1.9722    3.3634 C.3     1  UNL11      -0.0484
     20 C          -2.2878    2.1024    2.8781 C.3     1  UNL11      -0.0176
     21 C           0.6881   -0.9885   -0.4874 C.ar    1  UNL11      -0.0369
     22 C           2.1352    1.9392    0.5437 C.ar    1  UNL11       0.0424
     23 C           2.5232    2.9710    1.3471 C.ar    1  UNL11      -0.0142
     24 C           1.6005    3.7099    2.0730 C.ar    1  UNL11       0.1268
     25 F           2.0127    4.7300    2.8673 F       1  UNL11      -0.2054
     26 C           0.2762    3.3702    1.9581 C.ar    1  UNL11       0.0088
     27 C          -0.1539    2.3480    1.1675 C.ar    1  UNL11       0.1268
     28 F          -1.4797    2.0908    1.1214 F       1  UNL11      -0.2054
     29 C           0.7840    1.6423    0.4674 C.ar    1  UNL11      -0.0142
     30 H           3.6894   -0.3328   -1.5283 H       1  UNL11       0.1551
     31 H           1.8234   -0.0184   -3.4545 H       1  UNL11       0.0636
     32 H          -0.3731   -0.9335   -4.1516 H       1  UNL11       0.0618
     33 H          -1.8738   -1.8835   -2.5710 H       1  UNL11       0.0620
     34 H          -2.0031   -2.9207   -0.1796 H       1  UNL11       0.0379
     35 H          -0.7198   -2.4271    1.0008 H       1  UNL11       0.0379
     36 H          -5.5450   -0.6442    1.2552 H       1  UNL11       0.4828
     37 H           0.2465   -0.3536    1.2514 H       1  UNL11       0.0314
     38 H          -0.2749    1.3649    1.0243 H       1  UNL11       0.0314
     39 H          -0.7081   -0.1536    3.6365 H       1  UNL11       0.0268
     40 H           0.8671    0.7515    3.2857 H       1  UNL11       0.0268
     41 H          -0.8742    2.0885    4.4796 H       1  UNL11       0.0269
     42 H          -0.2105    2.7639    2.9740 H       1  UNL11       0.0269
     43 H          -2.2992    2.9584    2.1265 H       1  UNL11       0.0316
     44 H          -3.0141    2.3618    3.6974 H       1  UNL11       0.0316
     45 H           0.9168   -1.0346    0.5497 H       1  UNL11       0.0639
     46 H           3.5515    3.2705    1.4708 H       1  UNL11       0.0654
     47 H          -0.4494    3.9453    2.5239 H       1  UNL11       0.0675
     48 H           0.4797    0.8242   -0.1706 H       1  UNL11       0.0654
@<TRIPOS>BOND
     1     1     2    2
     2     2     3   am
     3     2    22    1
     4     3     4    1
     5     3    30    1
     6     4     5   ar
     7     5     6   ar
     8     5    31    1
     9     6     7   ar
    10     6    32    1
    11     7     8   ar
    12     7    33    1
    13     8     9    1
    14     8    21   ar
    15     9    10    1
    16     9    34    1
    17     9    35    1
    18    10    11    2
    19    11    12    1
    20    12    13   am
    21    12    36    1
    22    13    14    2
    23    13    15    1
    24    15    16    2
    25    16    17    1
    26    16    10    1
    27    17    18    1
    28    17    37    1
    29    17    38    1
    30    18    19    1
    31    18    39    1
    32    18    40    1
    33    19    20    1
    34    19    41    1
    35    19    42    1
    36    20    15    1
    37    20    43    1
    38    20    44    1
    39    21     4   ar
    40    21    45    1
    41    22    23   ar
    42    23    24   ar
    43    23    46    1
    44    24    25    1
    45    24    26   ar
    46    26    27   ar
    47    26    47    1
    48    27    28    1
    49    27    29   ar
    50    29    22   ar
    51    29    48    1
@<TRIPOS>MOLECULE
*****
 48 51 0 0 0
SMALL
GASTEIGER

@<TRIPOS>ATOM
      1 O           4.3294    1.5110   -0.0914 O.2     1  UNL11      -0.2698
      2 C           3.1191    1.1774   -0.2122 C.2     1  UNL11       0.2484
      3 N           2.8213    0.0968   -1.0685 N.am    1  UNL11      -0.2815
      4 C           1.5671   -0.4482   -1.3757 C.ar    1  UNL11       0.0339
      5 C           1.1538   -0.4418   -2.7065 C.ar    1  UNL11      -0.0405
      6 C          -0.0439   -0.9374   -3.1141 C.ar    1  UNL11      -0.0597
      7 C          -0.9305   -1.4878   -2.1871 C.ar    1  UNL11      -0.0581
      8 C          -0.5675   -1.5120   -0.8858 C.ar    1  UNL11      -0.0396
      9 C          -1.4257   -2.0526    0.2017 C.3     1  UNL11       0.0208
     10 C          -2.3079   -1.0410    0.8136 C.2     1  UNL11       0.1150
     11 N          -3.6640   -1.2478    0.7524 N.2     1  UNL11      -0.0076
     12 N          -4.5185   -0.4318    1.3376 N.am    1  UNL11      -0.0358
     13 C          -4.1224    0.6605    2.0353 C.2     1  UNL11       0.4340
     14 O          -4.9786    1.4239    2.5868 O.2     1  UNL11      -0.2120
     15 C          -2.7532    0.9289    2.1348 C.2     1  UNL11       0.0740
     16 C          -1.8908    0.0456    1.5036 C.2     1  UNL11      -0.0072
     17 C          -0.4546    0.3960    1.5847 C.3     1  UNL11      -0.0252
     18 C          -0.2168    0.6619    3.0822 C.3     1  UNL11      -0.0487
     19 C          -0.8990    1.9722    3.3634 C.3     1  UNL11      -0.0484
     20 C          -2.2878    2.1024    2.8781 C.3     1  UNL11      -0.0176
     21 C           0.6881   -0.9885   -0.4874 C.ar    1  UNL11      -0.0369
     22 C           2.1352    1.9392    0.5437 C.ar    1  UNL11       0.0424
     23 C           0.9839    1.3497    0.9773 C.ar    1  UNL11      -0.0142
     24 C           0.0358    2.0583    1.7007 C.ar    1  UNL11       0.1268
     25 F          -1.1027    1.4493    2.1183 F       1  UNL11      -0.2054
     26 C           0.2920    3.3790    1.9698 C.ar    1  UNL11       0.0088
     27 C           1.4281    4.0058    1.5561 C.ar    1  UNL11       0.1268
     28 F           1.5885    5.3102    1.8707 F       1  UNL11      -0.2054
     29 C           2.3392    3.2759    0.8455 C.ar    1  UNL11      -0.0142
     30 H           3.6894   -0.3328   -1.5283 H       1  UNL11       0.1551
     31 H           1.8234   -0.0184   -3.4545 H       1  UNL11       0.0636
     32 H          -0.3731   -0.9335   -4.1516 H       1  UNL11       0.0618
     33 H          -1.8738   -1.8835   -2.5710 H       1  UNL11       0.0620
     34 H          -2.0031   -2.9207   -0.1796 H       1  UNL11       0.0379
     35 H          -0.7198   -2.4271    1.0008 H       1  UNL11       0.0379
     36 H          -5.5450   -0.6442    1.2552 H       1  UNL11       0.4828
     37 H           0.2465   -0.3536    1.2514 H       1  UNL11       0.0314
     38 H          -0.2749    1.3649    1.0243 H       1  UNL11       0.0314
     39 H          -0.7081   -0.1536    3.6365 H       1  UNL11       0.0268
     40 H           0.8671    0.7515    3.2857 H       1  UNL11       0.0268
     41 H          -0.8742    2.0885    4.4796 H       1  UNL11       0.0269
     42 H          -0.2105    2.7639    2.9740 H       1  UNL11       0.0269
     43 H          -2.2992    2.9584    2.1265 H       1  UNL11       0.0316
     44 H          -3.0141    2.3618    3.6974 H       1  UNL11       0.0316
     45 H           0.9168   -1.0346    0.5497 H       1  UNL11       0.0639
     46 H           0.7392    0.3173    0.7862 H       1  UNL11       0.0654
     47 H          -0.4466    3.9375    2.5355 H       1  UNL11       0.0675
     48 H           3.2529    3.7399    0.5008 H       1  UNL11       0.0654
@<TRIPOS>BOND
     1     1     2    2
     2     2     3   am
     3     2    22    1
     4     3     4    1
     5     3    30    1
     6     4     5   ar
     7     5     6   ar
     8     5    31    1
     9     6     7   ar
    10     6    32    1
    11     7     8   ar
    12     7    33    1
    13     8     9    1
    14     8    21   ar
    15     9    10    1
    16     9    34    1
    17     9    35    1
    18    10    11    2
    19    11    12    1
    20    12    13   am
    21    12    36    1
    22    13    14    2
    23    13    15    1
    24    15    16    2
    25    16    17    1
    26    16    10    1
    27    17    18    1
    28    17    37    1
    29    17    38    1
    30    18    19    1
    31    18    39    1
    32    18    40    1
    33    19    20    1
    34    19    41    1
    35    19    42    1
    36    20    15    1
    37    20    43    1
    38    20    44    1
    39    21     4   ar
    40    21    45    1
    41    22    23   ar
    42    23    24   ar
    43    23    46    1
    44    24    25    1
    45    24    26   ar
    46    26    27   ar
    47    26    47    1
    48    27    28    1
    49    27    29   ar
    50    29    22   ar
    51    29    48    1
@<TRIPOS>MOLECULE
*****
 48 51 0 0 0
SMALL
GASTEIGER

@<TRIPOS>ATOM
      1 O           4.8436    1.0934   -1.4503 O.2     1  UNL11      -0.2698
      2 C           3.7628    0.6736   -1.9463 C.2     1  UNL11       0.2484
      3 N           2.8213    0.0968   -1.0685 N.am    1  UNL11      -0.2815
      4 C           1.5671   -0.4482   -1.3757 C.ar    1  UNL11       0.0339
      5 C           1.1538   -0.4418   -2.7065 C.ar    1  UNL11      -0.0405
      6 C          -0.0439   -0.9374   -3.1141 C.ar    1  UNL11      -0.0597
      7 C          -0.9305   -1.4878   -2.1871 C.ar    1  UNL11      -0.0581
      8 C          -0.5675   -1.5120   -0.8858 C.ar    1  UNL11      -0.0396
      9 C          -1.4257   -2.0526    0.2017 C.3     1  UNL11       0.0208
     10 C          -0.6611   -2.6266    1.3250 C.2     1  UNL11       0.1150
     11 N           0.5690   -3.1734    1.0538 N.2     1  UNL11      -0.0076
     12 N           1.3479   -3.6403    2.0096 N.am    1  UNL11      -0.0358
     13 C           0.9928   -3.6143    3.3174 C.2     1  UNL11       0.4340
     14 O           1.7735   -4.0744    4.2111 O.2     1  UNL11      -0.2120
     15 C          -0.2495   -3.0710    3.6612 C.2     1  UNL11       0.0740
     16 C          -1.0364   -2.5928    2.6245 C.2     1  UNL11      -0.0072
     17 C          -2.3659   -2.0783    3.0243 C.3     1  UNL11      -0.0252
     18 C          -2.0614   -1.1090    4.1808 C.3     1  UNL11      -0.0487
     19 C          -1.6778   -1.9864    5.3402 C.3     1  UNL11      -0.0484
     20 C          -0.6688   -3.0289    5.0642 C.3     1  UNL11      -0.0176
     21 C           0.6881   -0.9885   -0.4874 C.ar    1  UNL11      -0.0369
     22 C           3.5829    0.8211   -3.3836 C.ar    1  UNL11       0.0424
     23 C           2.8303   -0.0745   -4.0851 C.ar    1  UNL11      -0.0142
     24 C           2.6454    0.0506   -5.4542 C.ar    1  UNL11       0.1268
     25 F           1.8941   -0.8556   -6.1294 F       1  UNL11      -0.2054
     26 C           3.2458    1.1097   -6.0868 C.ar    1  UNL11       0.0088
     27 C           4.0048    2.0263   -5.4245 C.ar    1  UNL11       0.1268
     28 F           4.5549    3.0343   -6.1370 F       1  UNL11      -0.2054
     29 C           4.1648    1.8705   -4.0762 C.ar    1  UNL11      -0.0142
     30 H           3.1437    0.0874   -0.0460 H       1  UNL11       0.1551
     31 H           1.8234   -0.0184   -3.4545 H       1  UNL11       0.0636
     32 H          -0.3731   -0.9335   -4.1516 H       1  UNL11       0.0618
     33 H          -1.8738   -1.8835   -2.5710 H       1  UNL11       0.0620
     34 H          -2.1271   -1.2641    0.5461 H       1  UNL11       0.0379
     35 H          -2.0353   -2.8825   -0.2637 H       1  UNL11       0.0379
     36 H           2.2791   -4.0465    1.7384 H       1  UNL11       0.4828
     37 H          -2.9277   -1.5499    2.2695 H       1  UNL11       0.0314
     38 H          -2.9873   -2.9318    3.4372 H       1  UNL11       0.0314
     39 H          -1.2049   -0.4914    3.8668 H       1  UNL11       0.0268
     40 H          -2.9653   -0.5239    4.4353 H       1  UNL11       0.0268
     41 H          -1.2952   -1.2870    6.1304 H       1  UNL11       0.0269
     42 H          -2.6390   -2.3881    5.7494 H       1  UNL11       0.0269
     43 H          -1.1667   -4.0346    5.2596 H       1  UNL11       0.0316
     44 H           0.2280   -2.9584    5.7402 H       1  UNL11       0.0316
     45 H           0.9168   -1.0346    0.5497 H       1  UNL11       0.0639
     46 H           2.3437   -0.9227   -3.6311 H       1  UNL11       0.0654
     47 H           3.1041    1.2119   -7.1577 H       1  UNL11       0.0675
     48 H           4.7604    2.5789   -3.5172 H       1  UNL11       0.0654
@<TRIPOS>BOND
     1     1     2    2
     2     2     3   am
     3     2    22    1
     4     3     4    1
     5     3    30    1
     6     4     5   ar
     7     5     6   ar
     8     5    31    1
     9     6     7   ar
    10     6    32    1
    11     7     8   ar
    12     7    33    1
    13     8     9    1
    14     8    21   ar
    15     9    10    1
    16     9    34    1
    17     9    35    1
    18    10    11    2
    19    11    12    1
    20    12    13   am
    21    12    36    1
    22    13    14    2
    23    13    15    1
    24    15    16    2
    25    16    17    1
    26    16    10    1
    27    17    18    1
    28    17    37    1
    29    17    38    1
    30    18    19    1
    31    18    39    1
    32    18    40    1
    33    19    20    1
    34    19    41    1
    35    19    42    1
    36    20    15    1
    37    20    43    1
    38    20    44    1
    39    21     4   ar
    40    21    45    1
    41    22    23   ar
    42    23    24   ar
    43    23    46    1
    44    24    25    1
    45    24    26   ar
    46    26    27   ar
    47    26    47    1
    48    27    28    1
    49    27    29   ar
    50    29    22   ar
    51    29    48    1
@<TRIPOS>MOLECULE
*****
 48 51 0 0 0
SMALL
GASTEIGER

@<TRIPOS>ATOM
      1 O           4.3449    1.7024   -0.4946 O.2     1  UNL11      -0.2698
      2 C           3.1350    1.4272   -0.7202 C.2     1  UNL11       0.2484
      3 N           2.8213    0.0968   -1.0685 N.am    1  UNL11      -0.2815
      4 C           1.5671   -0.4482   -1.3757 C.ar    1  UNL11       0.0339
      5 C           1.1538   -0.4418   -2.7065 C.ar    1  UNL11      -0.0405
      6 C          -0.0439   -0.9374   -3.1141 C.ar    1  UNL11      -0.0597
      7 C          -0.9305   -1.4878   -2.1871 C.ar    1  UNL11      -0.0581
      8 C          -0.5675   -1.5120   -0.8858 C.ar    1  UNL11      -0.0396
      9 C          -1.4257   -2.0526    0.2017 C.3     1  UNL11       0.0208
     10 C          -0.8113   -3.1768    0.9330 C.2     1  UNL11       0.1150
     11 N          -1.1397   -3.3403    2.2563 N.2     1  UNL11      -0.0076
     12 N          -0.6936   -4.3607    2.9620 N.am    1  UNL11      -0.0358
     13 C           0.1146   -5.3132    2.4359 C.2     1  UNL11       0.4340
     14 O           0.5237   -6.2839    3.1502 O.2     1  UNL11      -0.2120
     15 C           0.4878   -5.2044    1.0922 C.2     1  UNL11       0.0740
     16 C          -0.0033   -4.1154    0.3883 C.2     1  UNL11      -0.0072
     17 C           0.4604   -4.0065   -1.0136 C.3     1  UNL11      -0.0252
     18 C           0.1979   -5.4029   -1.6058 C.3     1  UNL11      -0.0487
     19 C           1.2308   -6.2979   -0.9786 C.3     1  UNL11      -0.0484
     20 C           1.3628   -6.2133    0.4900 C.3     1  UNL11      -0.0176
     21 C           0.6881   -0.9885   -0.4874 C.ar    1  UNL11      -0.0369
     22 C           2.1680    2.5092   -0.6018 C.ar    1  UNL11       0.0424
     23 C           1.0378    2.5175   -1.3655 C.ar    1  UNL11      -0.0142
     24 C           0.1038    3.5383   -1.2651 C.ar    1  UNL11       0.1268
     25 F          -1.0113    3.5246   -2.0383 F       1  UNL11      -0.2054
     26 C           0.3517    4.5465   -0.3682 C.ar    1  UNL11       0.0088
     27 C           1.4667    4.5766    0.4132 C.ar    1  UNL11       0.1268
     28 F           1.6209    5.6133    1.2662 F       1  UNL11      -0.2054
     29 C           2.3647    3.5540    0.2866 C.ar    1  UNL11      -0.0142
     30 H           3.6773   -0.5483   -1.0963 H       1  UNL11       0.1551
     31 H           1.8234   -0.0184   -3.4545 H       1  UNL11       0.0636
     32 H          -0.3731   -0.9335   -4.1516 H       1  UNL11       0.0618
     33 H          -1.8738   -1.8835   -2.5710 H       1  UNL11       0.0620
     34 H          -1.7161   -1.2295    0.8877 H       1  UNL11       0.0379
     35 H          -2.3631   -2.4354   -0.3001 H       1  UNL11       0.0379
     36 H          -0.9809   -4.4311    3.9710 H       1  UNL11       0.4828
     37 H          -0.0324   -3.2712   -1.6309 H       1  UNL11       0.0314
     38 H           1.5796   -3.8268   -1.0232 H       1  UNL11       0.0314
     39 H          -0.8136   -5.7028   -1.2884 H       1  UNL11       0.0268
     40 H           0.3348   -5.3830   -2.7035 H       1  UNL11       0.0268
     41 H           0.9415   -7.3413   -1.2745 H       1  UNL11       0.0269
     42 H           2.1843   -6.0945   -1.5282 H       1  UNL11       0.0269
     43 H           2.4236   -5.8608    0.7094 H       1  UNL11       0.0316
     44 H           1.2245   -7.2073    0.9988 H       1  UNL11       0.0316
     45 H           0.9168   -1.0346    0.5497 H       1  UNL11       0.0639
     46 H           0.8038    1.7494   -2.0848 H       1  UNL11       0.0654
     47 H          -0.3760    5.3472   -0.2860 H       1  UNL11       0.0675
     48 H           3.2612    3.5441    0.8908 H       1  UNL11       0.0654
@<TRIPOS>BOND
     1     1     2    2
     2     2     3   am
     3     2    22    1
     4     3     4    1
     5     3    30    1
     6     4     5   ar
     7     5     6   ar
     8     5    31    1
     9     6     7   ar
    10     6    32    1
    11     7     8   ar
    12     7    33    1
    13     8     9    1
    14     8    21   ar
    15     9    10    1
    16     9    34    1
    17     9    35    1
    18    10    11    2
    19    11    12    1
    20    12    13   am
    21    12    36    1
    22    13    14    2
    23    13    15    1
    24    15    16    2
    25    16    17    1
    26    16    10    1
    27    17    18    1
    28    17    37    1
    29    17    38    1
    30    18    19    1
    31    18    39    1
    32    18    40    1
    33    19    20    1
    34    19    41    1
    35    19    42    1
    36    20    15    1
    37    20    43    1
    38    20    44    1
    39    21     4   ar
    40    21    45    1
    41    22    23   ar
    42    23    24   ar
    43    23    46    1
    44    24    25    1
    45    24    26   ar
    46    26    27   ar
    47    26    47    1
    48    27    28    1
    49    27    29   ar
    50    29    22   ar
    51    29    48    1
@<TRIPOS>MOLECULE
*****
 48 51 0 0 0
SMALL
GASTEIGER

@<TRIPOS>ATOM
      1 O           5.0787    0.1327   -0.7055 O.2     1  UNL11      -0.2698
      2 C           4.0705   -0.5565   -1.0203 C.2     1  UNL11       0.2484
      3 N           2.8213    0.0968   -1.0685 N.am    1  UNL11      -0.2815
      4 C           1.5671   -0.4482   -1.3757 C.ar    1  UNL11       0.0339
      5 C           1.1538   -0.4418   -2.7065 C.ar    1  UNL11      -0.0405
      6 C          -0.0439   -0.9374   -3.1141 C.ar    1  UNL11      -0.0597
      7 C          -0.9305   -1.4878   -2.1871 C.ar    1  UNL11      -0.0581
      8 C          -0.5675   -1.5120   -0.8858 C.ar    1  UNL11      -0.0396
      9 C          -1.4257   -2.0526    0.2017 C.3     1  UNL11       0.0208
     10 C          -2.3079   -1.0410    0.8136 C.2     1  UNL11       0.1150
     11 N          -1.8328   -0.3428    1.8964 N.2     1  UNL11      -0.0076
     12 N          -2.5270    0.6285    2.4559 N.am    1  UNL11      -0.0358
     13 C          -3.7491    1.0038    2.0060 C.2     1  UNL11       0.4340
     14 O          -4.3878    1.9475    2.5731 O.2     1  UNL11      -0.2120
     15 C          -4.2912    0.3311    0.9059 C.2     1  UNL11       0.0740
     16 C          -3.5277   -0.6839    0.3496 C.2     1  UNL11      -0.0072
     17 C          -4.1606   -1.4079   -0.7761 C.3     1  UNL11      -0.0252
     18 C          -4.6395   -0.2902   -1.7200 C.3     1  UNL11      -0.0487
     19 C          -5.8136    0.3392   -1.0224 C.3     1  UNL11      -0.0484
     20 C          -5.6112    0.7070    0.3936 C.3     1  UNL11      -0.0176
     21 C           0.6881   -0.9885   -0.4874 C.ar    1  UNL11      -0.0369
     22 C           4.2859   -1.9679   -1.3057 C.ar    1  UNL11       0.0424
     23 C           3.2437   -2.7706   -1.6665 C.ar    1  UNL11      -0.0142
     24 C           3.4295   -4.1169   -1.9446 C.ar    1  UNL11       0.1268
     25 F           2.3755   -4.8948   -2.2989 F       1  UNL11      -0.2054
     26 C           4.7017   -4.6211   -1.8458 C.ar    1  UNL11       0.0088
     27 C           5.7697   -3.8549   -1.4894 C.ar    1  UNL11       0.1268
     28 F           6.9836   -4.4444   -1.4196 F       1  UNL11      -0.2054
     29 C           5.5482   -2.5329   -1.2226 C.ar    1  UNL11      -0.0142
     30 H           2.8779    1.1403   -0.8288 H       1  UNL11       0.1551
     31 H           1.8234   -0.0184   -3.4545 H       1  UNL11       0.0636
     32 H          -0.3731   -0.9335   -4.1516 H       1  UNL11       0.0618
     33 H          -1.8738   -1.8835   -2.5710 H       1  UNL11       0.0620
     34 H          -2.0031   -2.9207   -0.1796 H       1  UNL11       0.0379
     35 H          -0.7198   -2.4271    1.0008 H       1  UNL11       0.0379
     36 H          -2.1089    1.1263    3.2823 H       1  UNL11       0.4828
     37 H          -3.5301   -2.0838   -1.3330 H       1  UNL11       0.0314
     38 H          -5.0745   -1.9613   -0.3968 H       1  UNL11       0.0314
     39 H          -3.8130    0.4327   -1.8090 H       1  UNL11       0.0268
     40 H          -4.9633   -0.7205   -2.6865 H       1  UNL11       0.0268
     41 H          -6.0608    1.2558   -1.6213 H       1  UNL11       0.0269
     42 H          -6.6748   -0.3561   -1.1877 H       1  UNL11       0.0269
     43 H          -6.3554    0.0991    1.0054 H       1  UNL11       0.0316
     44 H          -5.8157    1.7949    0.5957 H       1  UNL11       0.0316
     45 H           0.9168   -1.0346    0.5497 H       1  UNL11       0.0639
     46 H           2.2282   -2.4191   -1.7532 H       1  UNL11       0.0654
     47 H           4.8520   -5.6737   -2.0625 H       1  UNL11       0.0675
     48 H           6.3721   -1.8938   -0.9368 H       1  UNL11       0.0654
@<TRIPOS>BOND
     1     1     2    2
     2     2     3   am
     3     2    22    1
     4     3     4    1
     5     3    30    1
     6     4     5   ar
     7     5     6   ar
     8     5    31    1
     9     6     7   ar
    10     6    32    1
    11     7     8   ar
    12     7    33    1
    13     8     9    1
    14     8    21   ar
    15     9    10    1
    16     9    34    1
    17     9    35    1
    18    10    11    2
    19    11    12    1
    20    12    13   am
    21    12    36    1
    22    13    14    2
    23    13    15    1
    24    15    16    2
    25    16    17    1
    26    16    10    1
    27    17    18    1
    28    17    37    1
    29    17    38    1
    30    18    19    1
    31    18    39    1
    32    18    40    1
    33    19    20    1
    34    19    41    1
    35    19    42    1
    36    20    15    1
    37    20    43    1
    38    20    44    1
    39    21     4   ar
    40    21    45    1
    41    22    23   ar
    42    23    24   ar
    43    23    46    1
    44    24    25    1
    45    24    26   ar
    46    26    27   ar
    47    26    47    1
    48    27    28    1
    49    27    29   ar
    50    29    22   ar
    51    29    48    1
@<TRIPOS>MOLECULE
*****
 48 51 0 0 0
SMALL
GASTEIGER

@<TRIPOS>ATOM
      1 O           3.1261    1.3753   -2.9397 O.2     1  UNL11      -0.2698
      2 C           3.5953    0.9950   -1.8325 C.2     1  UNL11       0.2484
      3 N           2.8213    0.0968   -1.0685 N.am    1  UNL11      -0.2815
      4 C           1.5671   -0.4482   -1.3757 C.ar    1  UNL11       0.0339
      5 C           1.1538   -0.4418   -2.7065 C.ar    1  UNL11      -0.0405
      6 C          -0.0439   -0.9374   -3.1141 C.ar    1  UNL11      -0.0597
      7 C          -0.9305   -1.4878   -2.1871 C.ar    1  UNL11      -0.0581
      8 C          -0.5675   -1.5120   -0.8858 C.ar    1  UNL11      -0.0396
      9 C          -1.4257   -2.0526    0.2017 C.3     1  UNL11       0.0208
     10 C          -2.3079   -1.0410    0.8136 C.2     1  UNL11       0.1150
     11 N          -1.8771    0.2627    0.8316 N.2     1  UNL11      -0.0076
     12 N          -2.6347    1.2386    1.2921 N.am    1  UNL11      -0.0358
     13 C          -3.8824    1.0262    1.7769 C.2     1  UNL11       0.4340
     14 O          -4.5833    1.9954    2.2120 O.2     1  UNL11      -0.2120
     15 C          -4.3809   -0.2807    1.7879 C.2     1  UNL11       0.0740
     16 C          -3.5503   -1.2758    1.2954 C.2     1  UNL11      -0.0072
     17 C          -4.0926   -2.6510    1.3769 C.3     1  UNL11      -0.0252
     18 C          -5.4978   -2.5381    0.7586 C.3     1  UNL11      -0.0487
     19 C          -6.3174   -1.7926    1.7753 C.3     1  UNL11      -0.0484
     20 C          -5.7241   -0.5493    2.3075 C.3     1  UNL11      -0.0176
     21 C           0.6881   -0.9885   -0.4874 C.ar    1  UNL11      -0.0369
     22 C           4.8960    1.5186   -1.4403 C.ar    1  UNL11       0.0424
     23 C           5.4711    1.1397   -0.2629 C.ar    1  UNL11      -0.0142
     24 C           6.7106    1.6258    0.1268 C.ar    1  UNL11       0.1268
     25 F           7.2599    1.2352    1.3046 F       1  UNL11      -0.2054
     26 C           7.3460    2.5049   -0.7132 C.ar    1  UNL11       0.0088
     27 C           6.8077    2.9088   -1.8972 C.ar    1  UNL11       0.1268
     28 F           7.5116    3.7786   -2.6550 F       1  UNL11      -0.2054
     29 C           5.5849    2.4091   -2.2478 C.ar    1  UNL11      -0.0142
     30 H           3.2867   -0.1859   -0.1449 H       1  UNL11       0.1551
     31 H           1.8234   -0.0184   -3.4545 H       1  UNL11       0.0636
     32 H          -0.3731   -0.9335   -4.1516 H       1  UNL11       0.0618
     33 H          -1.8738   -1.8835   -2.5710 H       1  UNL11       0.0620
     34 H          -2.0031   -2.9207   -0.1796 H       1  UNL11       0.0379
     35 H          -0.7198   -2.4271    1.0008 H       1  UNL11       0.0379
     36 H          -2.2486    2.2165    1.2787 H       1  UNL11       0.4828
     37 H          -3.5453   -3.4194    0.8529 H       1  UNL11       0.0314
     38 H          -4.2118   -2.9409    2.4664 H       1  UNL11       0.0314
     39 H          -5.3973   -1.9442   -0.1639 H       1  UNL11       0.0268
     40 H          -5.9251   -3.5458    0.5974 H       1  UNL11       0.0268
     41 H          -7.2894   -1.5610    1.2639 H       1  UNL11       0.0269
     42 H          -6.5768   -2.5412    2.5657 H       1  UNL11       0.0269
     43 H          -5.5885   -0.6981    3.4287 H       1  UNL11       0.0316
     44 H          -6.3876    0.3479    2.1630 H       1  UNL11       0.0316
     45 H           0.9168   -1.0346    0.5497 H       1  UNL11       0.0639
     46 H           5.0074    0.4552    0.4291 H       1  UNL11       0.0654
     47 H           8.3159    2.8878   -0.4128 H       1  UNL11       0.0675
     48 H           5.1265    2.7071   -3.1806 H       1  UNL11       0.0654
@<TRIPOS>BOND
     1     1     2    2
     2     2     3   am
     3     2    22    1
     4     3     4    1
     5     3    30    1
     6     4     5   ar
     7     5     6   ar
     8     5    31    1
     9     6     7   ar
    10     6    32    1
    11     7     8   ar
    12     7    33    1
    13     8     9    1
    14     8    21   ar
    15     9    10    1
    16     9    34    1
    17     9    35    1
    18    10    11    2
    19    11    12    1
    20    12    13   am
    21    12    36    1
    22    13    14    2
    23    13    15    1
    24    15    16    2
    25    16    17    1
    26    16    10    1
    27    17    18    1
    28    17    37    1
    29    17    38    1
    30    18    19    1
    31    18    39    1
    32    18    40    1
    33    19    20    1
    34    19    41    1
    35    19    42    1
    36    20    15    1
    37    20    43    1
    38    20    44    1
    39    21     4   ar
    40    21    45    1
    41    22    23   ar
    42    23    24   ar
    43    23    46    1
    44    24    25    1
    45    24    26   ar
    46    26    27   ar
    47    26    47    1
    48    27    28    1
    49    27    29   ar
    50    29    22   ar
    51    29    48    1
@<TRIPOS>MOLECULE
*****
 48 51 0 0 0
SMALL
GASTEIGER

@<TRIPOS>ATOM
      1 O           4.3449    1.7024   -0.4946 O.2     1  UNL11      -0.2698
      2 C           3.1350    1.4272   -0.7202 C.2     1  UNL11       0.2484
      3 N           2.8213    0.0968   -1.0685 N.am    1  UNL11      -0.2815
      4 C           1.5671   -0.4482   -1.3757 C.ar    1  UNL11       0.0339
      5 C           1.1538   -0.4418   -2.7065 C.ar    1  UNL11      -0.0405
      6 C          -0.0439   -0.9374   -3.1141 C.ar    1  UNL11      -0.0597
      7 C          -0.9305   -1.4878   -2.1871 C.ar    1  UNL11      -0.0581
      8 C          -0.5675   -1.5120   -0.8858 C.ar    1  UNL11      -0.0396
      9 C          -1.4257   -2.0526    0.2017 C.3     1  UNL11       0.0208
     10 C          -1.7609   -1.0570    1.2373 C.2     1  UNL11       0.1150
     11 N          -2.4563    0.0629    0.8527 N.2     1  UNL11      -0.0076
     12 N          -2.8594    0.9646    1.7261 N.am    1  UNL11      -0.0358
     13 C          -2.6179    0.8514    3.0549 C.2     1  UNL11       0.4340
     14 O          -3.0246    1.7434    3.8667 O.2     1  UNL11      -0.2120
     15 C          -1.9125   -0.2665    3.5125 C.2     1  UNL11       0.0740
     16 C          -1.5069   -1.1887    2.5597 C.2     1  UNL11      -0.0072
     17 C          -0.7150   -2.3274    3.0776 C.3     1  UNL11      -0.0252
     18 C          -1.5471   -2.8571    4.2595 C.3     1  UNL11      -0.0487
     19 C          -1.3976   -1.8237    5.3417 C.3     1  UNL11      -0.0484
     20 C          -1.6299   -0.4212    4.9416 C.3     1  UNL11      -0.0176
     21 C           0.6881   -0.9885   -0.4874 C.ar    1  UNL11      -0.0369
     22 C           2.1680    2.5092   -0.6018 C.ar    1  UNL11       0.0424
     23 C           2.3824    3.5408    0.2646 C.ar    1  UNL11      -0.0142
     24 C           1.4741    4.5817    0.3898 C.ar    1  UNL11       0.1268
     25 F           1.7095    5.5950    1.2612 F       1  UNL11      -0.2054
     26 C           0.3455    4.5433   -0.3895 C.ar    1  UNL11       0.0088
     27 C           0.0930    3.5329   -1.2669 C.ar    1  UNL11       0.1268
     28 F          -1.0475    3.5851   -1.9899 F       1  UNL11      -0.2054
     29 C           1.0104    2.5244   -1.3629 C.ar    1  UNL11      -0.0142
     30 H           3.6773   -0.5483   -1.0963 H       1  UNL11       0.1551
     31 H           1.8234   -0.0184   -3.4545 H       1  UNL11       0.0636
     32 H          -0.3731   -0.9335   -4.1516 H       1  UNL11       0.0618
     33 H          -1.8738   -1.8835   -2.5710 H       1  UNL11       0.0620
     34 H          -2.3381   -2.5070   -0.2382 H       1  UNL11       0.0379
     35 H          -0.8277   -2.8764    0.6923 H       1  UNL11       0.0379
     36 H          -3.3884    1.8004    1.3697 H       1  UNL11       0.4828
     37 H          -0.5311   -3.1407    2.3927 H       1  UNL11       0.0314
     38 H           0.2690   -1.9415    3.4874 H       1  UNL11       0.0314
     39 H          -2.5938   -2.9084    3.9195 H       1  UNL11       0.0268
     40 H          -1.1416   -3.8261    4.6068 H       1  UNL11       0.0268
     41 H          -2.1309   -2.1178    6.1390 H       1  UNL11       0.0269
     42 H          -0.3899   -2.0010    5.7951 H       1  UNL11       0.0269
     43 H          -0.6552    0.1414    5.1180 H       1  UNL11       0.0316
     44 H          -2.4270    0.0819    5.5563 H       1  UNL11       0.0316
     45 H           0.9168   -1.0346    0.5497 H       1  UNL11       0.0639
     46 H           3.2518    3.6105    0.8984 H       1  UNL11       0.0654
     47 H          -0.3679    5.3554   -0.2952 H       1  UNL11       0.0675
     48 H           0.8438    1.7055   -2.0489 H       1  UNL11       0.0654
@<TRIPOS>BOND
     1     1     2    2
     2     2     3   am
     3     2    22    1
     4     3     4    1
     5     3    30    1
     6     4     5   ar
     7     5     6   ar
     8     5    31    1
     9     6     7   ar
    10     6    32    1
    11     7     8   ar
    12     7    33    1
    13     8     9    1
    14     8    21   ar
    15     9    10    1
    16     9    34    1
    17     9    35    1
    18    10    11    2
    19    11    12    1
    20    12    13   am
    21    12    36    1
    22    13    14    2
    23    13    15    1
    24    15    16    2
    25    16    17    1
    26    16    10    1
    27    17    18    1
    28    17    37    1
    29    17    38    1
    30    18    19    1
    31    18    39    1
    32    18    40    1
    33    19    20    1
    34    19    41    1
    35    19    42    1
    36    20    15    1
    37    20    43    1
    38    20    44    1
    39    21     4   ar
    40    21    45    1
    41    22    23   ar
    42    23    24   ar
    43    23    46    1
    44    24    25    1
    45    24    26   ar
    46    26    27   ar
    47    26    47    1
    48    27    28    1
    49    27    29   ar
    50    29    22   ar
    51    29    48    1
