@<TRIPOS>MOLECULE
*****
 43 45 0 0 0
SMALL
GASTEIGER

@<TRIPOS>ATOM
      1 C           5.3966   -2.4875   -1.5464 C.3     1  UNL11       0.1632
      2 N           4.5827   -1.4638   -0.8993 N.am    1  UNL11      -0.0228
      3 N           3.4582   -1.8623   -0.3141 N.2     1  UNL11      -0.0054
      4 C           2.6281   -1.0158    0.3127 C.2     1  UNL11       0.1237
      5 C           1.3766   -1.4729    0.9643 C.3     1  UNL11       0.0725
      6 C           0.2387   -0.7604    0.3004 C.2     1  UNL11       0.2191
      7 O          -0.9585   -0.9321    0.6476 O.2     1  UNL11      -0.2754
      8 N           0.5291    0.1433   -0.7624 N.am    1  UNL11      -0.3147
      9 C           1.9162    0.3175   -1.1624 C.3     1  UNL11       0.0157
     10 C           2.2765    1.7894   -0.9691 C.3     1  UNL11      -0.0093
     11 C           3.6849    1.9381   -1.3999 C.ar    1  UNL11      -0.0107
     12 C           4.3736    0.8470   -1.8569 C.ar    1  UNL11      -0.0558
     13 C           5.6980    0.9374   -2.2725 C.ar    1  UNL11      -0.0613
     14 C           6.3010    2.1776   -2.2080 C.ar    1  UNL11      -0.0590
     15 C           5.6096    3.2746   -1.7489 C.ar    1  UNL11      -0.0262
     16 C           4.2914    3.1611   -1.3402 C.ar    1  UNL11       0.1266
     17 F           3.5693    4.2118   -0.8808 F       1  UNL11      -0.2052
     18 C           2.9509    0.3228    0.3538 C.ar    1  UNL11       0.0194
     19 C           2.1453    1.2408    0.9783 C.ar    1  UNL11      -0.0518
     20 C           2.4877    2.5785    1.0077 C.ar    1  UNL11      -0.0611
     21 C           3.6513    2.9761    0.3996 C.ar    1  UNL11      -0.0608
     22 C           4.4951    2.0877   -0.2421 C.ar    1  UNL11      -0.0441
     23 C           4.1131    0.7605   -0.2467 C.ar    1  UNL11       0.1005
     24 C           4.9154   -0.1695   -0.8716 C.2     1  UNL11       0.4400
     25 O           5.9820    0.1983   -1.4284 O.2     1  UNL11      -0.2116
     26 H           4.7694   -2.9514   -2.3233 H       1  UNL11       0.1011
     27 H           6.3566   -2.0983   -1.8974 H       1  UNL11       0.1011
     28 H           5.5434   -3.2809   -0.7654 H       1  UNL11       0.1011
     29 H           1.3660   -1.2929    2.0581 H       1  UNL11       0.0424
     30 H           1.2717   -2.5637    0.7245 H       1  UNL11       0.0424
     31 H          -0.2537    0.6756   -1.2483 H       1  UNL11       0.1487
     32 H           2.6080   -0.2888   -0.5082 H       1  UNL11       0.0465
     33 H           2.0976    0.0286   -2.1980 H       1  UNL11       0.0465
     34 H           2.1875    1.9979    0.1183 H       1  UNL11       0.0329
     35 H           1.5794    2.3810   -1.5862 H       1  UNL11       0.0329
     36 H           3.9028   -0.1195   -1.9065 H       1  UNL11       0.0621
     37 H           6.2191    0.0558   -2.6298 H       1  UNL11       0.0618
     38 H           7.3396    2.2752   -2.5283 H       1  UNL11       0.0618
     39 H           6.0594    4.2550   -1.6888 H       1  UNL11       0.0646
     40 H           1.2278    0.9116    1.4545 H       1  UNL11       0.0624
     41 H           1.8208    3.2439    1.5083 H       1  UNL11       0.0618
     42 H           3.9352    4.0398    0.4165 H       1  UNL11       0.0618
     43 H           5.4188    2.3891   -0.7268 H       1  UNL11       0.0627
@<TRIPOS>BOND
     1     1     2    1
     2     1    26    1
     3     1    27    1
     4     1    28    1
     5     2     3    1
     6     3     4    2
     7     4     5    1
     8     4    18    1
     9     5     6    1
    10     5    29    1
    11     5    30    1
    12     6     7    2
    13     6     8   am
    14     8     9    1
    15     8    31    1
    16     9    10    1
    17     9    32    1
    18     9    33    1
    19    10    11    1
    20    10    34    1
    21    10    35    1
    22    11    12   ar
    23    12    13   ar
    24    12    36    1
    25    13    14   ar
    26    13    37    1
    27    14    15   ar
    28    14    38    1
    29    15    16   ar
    30    15    39    1
    31    16    17    1
    32    16    11   ar
    33    18    19   ar
    34    19    20   ar
    35    19    40    1
    36    20    21   ar
    37    20    41    1
    38    21    22   ar
    39    21    42    1
    40    22    23   ar
    41    22    43    1
    42    23    24    1
    43    23    18   ar
    44    24    25    2
    45    24     2   am
@<TRIPOS>MOLECULE
*****
 43 45 0 0 0
SMALL
GASTEIGER

@<TRIPOS>ATOM
      1 C           4.4300    2.1151   -0.1742 C.3     1  UNL11       0.1632
      2 N           4.1295    0.6899   -0.2590 N.am    1  UNL11      -0.0228
      3 N           3.0115    0.2692    0.3232 N.2     1  UNL11      -0.0054
      4 C           2.6281   -1.0158    0.3127 C.2     1  UNL11       0.1237
      5 C           1.3766   -1.4729    0.9643 C.3     1  UNL11       0.0725
      6 C           0.2387   -0.7604    0.3004 C.2     1  UNL11       0.2191
      7 O          -0.8247   -0.4746    0.9092 O.2     1  UNL11      -0.2754
      8 N           0.3715   -0.3957   -1.0708 N.am    1  UNL11      -0.3147
      9 C           1.6000   -0.7482   -1.7642 C.3     1  UNL11       0.0157
     10 C           2.2475    0.5459   -2.2539 C.3     1  UNL11      -0.0093
     11 C           2.5304    1.3573   -1.0487 C.ar    1  UNL11      -0.0107
     12 C           2.2020    0.8724    0.1884 C.ar    1  UNL11      -0.0558
     13 C           2.4483    1.5980    1.3493 C.ar    1  UNL11      -0.0613
     14 C           3.0414    2.8369    1.2106 C.ar    1  UNL11      -0.0590
     15 C           3.3719    3.3250   -0.0323 C.ar    1  UNL11      -0.0262
     16 C           3.1172    2.5850   -1.1748 C.ar    1  UNL11       0.1266
     17 F           3.4241    3.0227   -2.4200 F       1  UNL11      -0.2052
     18 C           3.4233   -1.9411   -0.3270 C.ar    1  UNL11       0.0194
     19 C           3.0888   -3.2706   -0.3744 C.ar    1  UNL11      -0.0518
     20 C           3.9006   -4.1818   -1.0211 C.ar    1  UNL11      -0.0611
     21 C           5.0518   -3.7340   -1.6178 C.ar    1  UNL11      -0.0608
     22 C           5.4305   -2.4040   -1.5964 C.ar    1  UNL11      -0.0441
     23 C           4.5889   -1.5285   -0.9386 C.ar    1  UNL11       0.1005
     24 C           4.9161   -0.1909   -0.8853 C.2     1  UNL11       0.4400
     25 O           5.9726    0.2167   -1.4336 O.2     1  UNL11      -0.2116
     26 H           4.5042    2.3636    0.8958 H       1  UNL11       0.1011
     27 H           5.2989    2.3959   -0.7762 H       1  UNL11       0.1011
     28 H           3.5019    2.6316   -0.5388 H       1  UNL11       0.1011
     29 H           1.3660   -1.2929    2.0581 H       1  UNL11       0.0424
     30 H           1.2717   -2.5637    0.7245 H       1  UNL11       0.0424
     31 H          -0.4123    0.1222   -1.5705 H       1  UNL11       0.1487
     32 H           2.3320   -1.2497   -1.0665 H       1  UNL11       0.0465
     33 H           1.4323   -1.4168   -2.6090 H       1  UNL11       0.0465
     34 H           1.4932    1.0578   -2.8886 H       1  UNL11       0.0329
     35 H           3.1631    0.2668   -2.8022 H       1  UNL11       0.0329
     36 H           1.7394   -0.0934    0.2956 H       1  UNL11       0.0621
     37 H           2.1772    1.1887    2.3165 H       1  UNL11       0.0618
     38 H           3.2454    3.4262    2.1060 H       1  UNL11       0.0618
     39 H           3.8362    4.2911   -0.1668 H       1  UNL11       0.0646
     40 H           2.1754   -3.6102    0.1026 H       1  UNL11       0.0624
     41 H           3.5872   -5.2015   -1.0235 H       1  UNL11       0.0618
     42 H           5.7070   -4.4508   -2.1367 H       1  UNL11       0.0618
     43 H           6.3385   -2.0365   -2.0649 H       1  UNL11       0.0627
@<TRIPOS>BOND
     1     1     2    1
     2     1    26    1
     3     1    27    1
     4     1    28    1
     5     2     3    1
     6     3     4    2
     7     4     5    1
     8     4    18    1
     9     5     6    1
    10     5    29    1
    11     5    30    1
    12     6     7    2
    13     6     8   am
    14     8     9    1
    15     8    31    1
    16     9    10    1
    17     9    32    1
    18     9    33    1
    19    10    11    1
    20    10    34    1
    21    10    35    1
    22    11    12   ar
    23    12    13   ar
    24    12    36    1
    25    13    14   ar
    26    13    37    1
    27    14    15   ar
    28    14    38    1
    29    15    16   ar
    30    15    39    1
    31    16    17    1
    32    16    11   ar
    33    18    19   ar
    34    19    20   ar
    35    19    40    1
    36    20    21   ar
    37    20    41    1
    38    21    22   ar
    39    21    42    1
    40    22    23   ar
    41    22    43    1
    42    23    24    1
    43    23    18   ar
    44    24    25    2
    45    24     2   am
@<TRIPOS>MOLECULE
*****
 43 45 0 0 0
SMALL
GASTEIGER

@<TRIPOS>ATOM
      1 C           6.2049   -1.6632    0.5844 C.3     1  UNL11       0.1632
      2 N           4.9605   -1.0773    0.0974 N.am    1  UNL11      -0.0228
      3 N           3.8330   -1.4814    0.6730 N.2     1  UNL11      -0.0054
      4 C           2.6281   -1.0158    0.3127 C.2     1  UNL11       0.1237
      5 C           1.3766   -1.4729    0.9643 C.3     1  UNL11       0.0725
      6 C           0.2387   -0.7604    0.3004 C.2     1  UNL11       0.2191
      7 O           0.4128    0.0623   -0.6356 O.2     1  UNL11      -0.2754
      8 N          -1.0868   -1.0283    0.7498 N.am    1  UNL11      -0.3147
      9 C          -1.2692   -1.9688    1.8436 C.3     1  UNL11       0.0157
     10 C          -2.1382   -3.1166    1.3323 C.3     1  UNL11      -0.0093
     11 C          -2.3199   -4.0460    2.4700 C.ar    1  UNL11      -0.0107
     12 C          -3.0531   -5.1895    2.3018 C.ar    1  UNL11      -0.0558
     13 C          -3.2514   -6.0927    3.3410 C.ar    1  UNL11      -0.0613
     14 C          -2.6777   -5.7941    4.5606 C.ar    1  UNL11      -0.0590
     15 C          -1.9407   -4.6451    4.7306 C.ar    1  UNL11      -0.0262
     16 C          -1.7564   -3.7600    3.6817 C.ar    1  UNL11       0.1266
     17 F          -1.0394   -2.6162    3.7999 F       1  UNL11      -0.2052
     18 C           2.5518   -0.0800   -0.6953 C.ar    1  UNL11       0.0194
     19 C           1.3510    0.4364   -1.1116 C.ar    1  UNL11      -0.0518
     20 C           1.2970    1.3740   -2.1243 C.ar    1  UNL11      -0.0611
     21 C           2.4685    1.7821   -2.7098 C.ar    1  UNL11      -0.0608
     22 C           3.7023    1.2903   -2.3242 C.ar    1  UNL11      -0.0441
     23 C           3.7086    0.3549   -1.3081 C.ar    1  UNL11       0.1005
     24 C           4.9098   -0.1700   -0.8828 C.2     1  UNL11       0.4400
     25 O           5.9825    0.2065   -1.4218 O.2     1  UNL11      -0.2116
     26 H           6.1292   -2.7506    0.4291 H       1  UNL11       0.1011
     27 H           7.0889   -1.1930    0.1441 H       1  UNL11       0.1011
     28 H           6.1811   -1.5163    1.6974 H       1  UNL11       0.1011
     29 H           1.3660   -1.2929    2.0581 H       1  UNL11       0.0424
     30 H           1.2717   -2.5637    0.7245 H       1  UNL11       0.0424
     31 H          -1.9196   -0.5491    0.2926 H       1  UNL11       0.1487
     32 H          -0.2830   -2.4106    2.1698 H       1  UNL11       0.0465
     33 H          -1.7376   -1.5158    2.7178 H       1  UNL11       0.0465
     34 H          -1.5627   -3.6142    0.5230 H       1  UNL11       0.0329
     35 H          -3.0894   -2.6782    0.9864 H       1  UNL11       0.0329
     36 H          -3.5002   -5.4213    1.3507 H       1  UNL11       0.0621
     37 H          -3.8373   -6.9910    3.1788 H       1  UNL11       0.0618
     38 H          -2.8183   -6.4866    5.3921 H       1  UNL11       0.0618
     39 H          -1.4824   -4.3894    5.6748 H       1  UNL11       0.0646
     40 H           0.4326    0.1036   -0.6395 H       1  UNL11       0.0624
     41 H           0.3339    1.7378   -2.4040 H       1  UNL11       0.0618
     42 H           2.4384    2.5292   -3.5181 H       1  UNL11       0.0618
     43 H           4.6366    1.6051   -2.7789 H       1  UNL11       0.0627
@<TRIPOS>BOND
     1     1     2    1
     2     1    26    1
     3     1    27    1
     4     1    28    1
     5     2     3    1
     6     3     4    2
     7     4     5    1
     8     4    18    1
     9     5     6    1
    10     5    29    1
    11     5    30    1
    12     6     7    2
    13     6     8   am
    14     8     9    1
    15     8    31    1
    16     9    10    1
    17     9    32    1
    18     9    33    1
    19    10    11    1
    20    10    34    1
    21    10    35    1
    22    11    12   ar
    23    12    13   ar
    24    12    36    1
    25    13    14   ar
    26    13    37    1
    27    14    15   ar
    28    14    38    1
    29    15    16   ar
    30    15    39    1
    31    16    17    1
    32    16    11   ar
    33    18    19   ar
    34    19    20   ar
    35    19    40    1
    36    20    21   ar
    37    20    41    1
    38    21    22   ar
    39    21    42    1
    40    22    23   ar
    41    22    43    1
    42    23    24    1
    43    23    18   ar
    44    24    25    2
    45    24     2   am
@<TRIPOS>MOLECULE
*****
 43 45 0 0 0
SMALL
GASTEIGER

@<TRIPOS>ATOM
      1 C           3.6833    0.1827   -2.9640 C.3     1  UNL11       0.1632
      2 N           3.7808   -0.2153   -1.5637 N.am    1  UNL11      -0.0228
      3 N           2.6649   -0.6247   -0.9695 N.2     1  UNL11      -0.0054
      4 C           2.6281   -1.0158    0.3127 C.2     1  UNL11       0.1237
      5 C           1.3766   -1.4729    0.9643 C.3     1  UNL11       0.0725
      6 C           0.2387   -0.7604    0.3004 C.2     1  UNL11       0.2191
      7 O          -0.1970    0.3454    0.7134 O.2     1  UNL11      -0.2754
      8 N          -0.3683   -1.3621   -0.8399 N.am    1  UNL11      -0.3147
      9 C           0.1361   -2.6480   -1.2940 C.3     1  UNL11       0.0157
     10 C           1.2760   -3.0576   -0.3630 C.3     1  UNL11      -0.0093
     11 C           1.7787   -4.3581   -0.8600 C.ar    1  UNL11      -0.0107
     12 C           2.2914   -4.4486   -2.1259 C.ar    1  UNL11      -0.0558
     13 C           2.7755   -5.6485   -2.6366 C.ar    1  UNL11      -0.0613
     14 C           2.7210   -6.7568   -1.8154 C.ar    1  UNL11      -0.0590
     15 C           2.2060   -6.6667   -0.5430 C.ar    1  UNL11      -0.0262
     16 C           1.7295   -5.4614   -0.0553 C.ar    1  UNL11       0.1266
     17 F           1.2133   -5.3228    1.1899 F       1  UNL11      -0.2052
     18 C           3.7930   -0.9937    1.0477 C.ar    1  UNL11       0.0194
     19 C           3.8239   -1.3806    2.3634 C.ar    1  UNL11      -0.0518
     20 C           5.0029   -1.3506    3.0822 C.ar    1  UNL11      -0.0611
     21 C           6.1474   -0.9258    2.4565 C.ar    1  UNL11      -0.0608
     22 C           6.1655   -0.5263    1.1325 C.ar    1  UNL11      -0.0441
     23 C           4.9642   -0.5726    0.4528 C.ar    1  UNL11       0.1005
     24 C           4.9226   -0.1859   -0.8693 C.2     1  UNL11       0.4400
     25 O           5.9741    0.2032   -1.4403 O.2     1  UNL11      -0.2116
     26 H           2.9630    1.0141   -3.0112 H       1  UNL11       0.1011
     27 H           4.6606    0.3909   -3.4086 H       1  UNL11       0.1011
     28 H           3.1807   -0.6797   -3.4786 H       1  UNL11       0.1011
     29 H           1.3660   -1.2929    2.0581 H       1  UNL11       0.0424
     30 H           1.2717   -2.5637    0.7245 H       1  UNL11       0.0424
     31 H          -1.1709   -0.8778   -1.3435 H       1  UNL11       0.1487
     32 H          -0.6600   -3.4453   -1.2250 H       1  UNL11       0.0465
     33 H           0.4947   -2.6224   -2.3234 H       1  UNL11       0.0465
     34 H           0.8314   -3.1826    0.6472 H       1  UNL11       0.0329
     35 H           2.0387   -2.2620   -0.4095 H       1  UNL11       0.0329
     36 H           2.3331   -3.5842   -2.7656 H       1  UNL11       0.0621
     37 H           3.1760   -5.6908   -3.6438 H       1  UNL11       0.0618
     38 H           3.0946   -7.7102   -2.1923 H       1  UNL11       0.0618
     39 H           2.1524   -7.5193    0.1182 H       1  UNL11       0.0646
     40 H           2.9106   -1.7137    2.8451 H       1  UNL11       0.0624
     41 H           4.9632   -1.6632    4.1014 H       1  UNL11       0.0618
     42 H           7.0936   -0.8977    3.0189 H       1  UNL11       0.0618
     43 H           7.0643   -0.1885    0.6255 H       1  UNL11       0.0627
@<TRIPOS>BOND
     1     1     2    1
     2     1    26    1
     3     1    27    1
     4     1    28    1
     5     2     3    1
     6     3     4    2
     7     4     5    1
     8     4    18    1
     9     5     6    1
    10     5    29    1
    11     5    30    1
    12     6     7    2
    13     6     8   am
    14     8     9    1
    15     8    31    1
    16     9    10    1
    17     9    32    1
    18     9    33    1
    19    10    11    1
    20    10    34    1
    21    10    35    1
    22    11    12   ar
    23    12    13   ar
    24    12    36    1
    25    13    14   ar
    26    13    37    1
    27    14    15   ar
    28    14    38    1
    29    15    16   ar
    30    15    39    1
    31    16    17    1
    32    16    11   ar
    33    18    19   ar
    34    19    20   ar
    35    19    40    1
    36    20    21   ar
    37    20    41    1
    38    21    22   ar
    39    21    42    1
    40    22    23   ar
    41    22    43    1
    42    23    24    1
    43    23    18   ar
    44    24    25    2
    45    24     2   am
@<TRIPOS>MOLECULE
*****
 43 45 0 0 0
SMALL
GASTEIGER

@<TRIPOS>ATOM
      1 C           6.1222   -0.5221    1.2260 C.3     1  UNL11       0.1632
      2 N           4.9216   -0.5433    0.3972 N.am    1  UNL11      -0.0228
      3 N           3.7950   -0.9531    0.9706 N.2     1  UNL11      -0.0054
      4 C           2.6281   -1.0158    0.3127 C.2     1  UNL11       0.1237
      5 C           1.3766   -1.4729    0.9643 C.3     1  UNL11       0.0725
      6 C           0.2387   -0.7604    0.3004 C.2     1  UNL11       0.2191
      7 O          -0.9585   -0.9321    0.6476 O.2     1  UNL11      -0.2754
      8 N           0.5291    0.1433   -0.7624 N.am    1  UNL11      -0.3147
      9 C           1.9162    0.3175   -1.1624 C.3     1  UNL11       0.0157
     10 C           2.2765    1.7894   -0.9691 C.3     1  UNL11      -0.0093
     11 C           1.3456    2.5657   -1.8187 C.ar    1  UNL11      -0.0107
     12 C           1.4423    3.9305   -1.8602 C.ar    1  UNL11      -0.0558
     13 C           0.5902    4.7023   -2.6432 C.ar    1  UNL11      -0.0613
     14 C          -0.3665    4.0388   -3.3851 C.ar    1  UNL11      -0.0590
     15 C          -0.4644    2.6673   -3.3441 C.ar    1  UNL11      -0.0262
     16 C           0.3949    1.9189   -2.5570 C.ar    1  UNL11       0.1266
     17 F           0.3377    0.5670   -2.4835 F       1  UNL11      -0.2052
     18 C           2.5916   -0.6408   -1.0123 C.ar    1  UNL11       0.0194
     19 C           1.4309   -0.6815   -1.7424 C.ar    1  UNL11      -0.0518
     20 C           1.4164   -0.3011   -3.0700 C.ar    1  UNL11      -0.0611
     21 C           2.5864    0.1198   -3.6494 C.ar    1  UNL11      -0.0608
     22 C           3.7806    0.1778   -2.9541 C.ar    1  UNL11      -0.0441
     23 C           3.7483   -0.2119   -1.6295 C.ar    1  UNL11       0.1005
     24 C           4.9090   -0.1747   -0.8876 C.2     1  UNL11       0.4400
     25 O           5.9805    0.2119   -1.4219 O.2     1  UNL11      -0.2116
     26 H           6.2885   -1.5530    1.5752 H       1  UNL11       0.1011
     27 H           6.9740   -0.0627    0.7164 H       1  UNL11       0.1011
     28 H           5.8355    0.0624    2.1409 H       1  UNL11       0.1011
     29 H           1.3660   -1.2929    2.0581 H       1  UNL11       0.0424
     30 H           1.2717   -2.5637    0.7245 H       1  UNL11       0.0424
     31 H          -0.2537    0.6756   -1.2483 H       1  UNL11       0.1487
     32 H           2.6080   -0.2888   -0.5082 H       1  UNL11       0.0465
     33 H           2.0976    0.0286   -2.1980 H       1  UNL11       0.0465
     34 H           3.3179    1.9121   -1.3357 H       1  UNL11       0.0329
     35 H           2.1613    2.0166    0.1041 H       1  UNL11       0.0329
     36 H           2.1882    4.4469   -1.2812 H       1  UNL11       0.0621
     37 H           0.6898    5.7823   -2.6564 H       1  UNL11       0.0618
     38 H          -1.0473    4.6214   -4.0078 H       1  UNL11       0.0618
     39 H          -1.2043    2.1255   -3.9150 H       1  UNL11       0.0646
     40 H           0.5133   -1.0172   -1.2708 H       1  UNL11       0.0624
     41 H           0.4835   -0.3549   -3.5847 H       1  UNL11       0.0618
     42 H           2.5875    0.4259   -4.7071 H       1  UNL11       0.0618
     43 H           4.7132    0.5093   -3.4005 H       1  UNL11       0.0627
@<TRIPOS>BOND
     1     1     2    1
     2     1    26    1
     3     1    27    1
     4     1    28    1
     5     2     3    1
     6     3     4    2
     7     4     5    1
     8     4    18    1
     9     5     6    1
    10     5    29    1
    11     5    30    1
    12     6     7    2
    13     6     8   am
    14     8     9    1
    15     8    31    1
    16     9    10    1
    17     9    32    1
    18     9    33    1
    19    10    11    1
    20    10    34    1
    21    10    35    1
    22    11    12   ar
    23    12    13   ar
    24    12    36    1
    25    13    14   ar
    26    13    37    1
    27    14    15   ar
    28    14    38    1
    29    15    16   ar
    30    15    39    1
    31    16    17    1
    32    16    11   ar
    33    18    19   ar
    34    19    20   ar
    35    19    40    1
    36    20    21   ar
    37    20    41    1
    38    21    22   ar
    39    21    42    1
    40    22    23   ar
    41    22    43    1
    42    23    24    1
    43    23    18   ar
    44    24    25    2
    45    24     2   am
@<TRIPOS>MOLECULE
*****
 43 45 0 0 0
SMALL
GASTEIGER

@<TRIPOS>ATOM
      1 C           4.4300    2.1151   -0.1742 C.3     1  UNL11       0.1632
      2 N           4.1295    0.6899   -0.2590 N.am    1  UNL11      -0.0228
      3 N           3.0115    0.2692    0.3232 N.2     1  UNL11      -0.0054
      4 C           2.6281   -1.0158    0.3127 C.2     1  UNL11       0.1237
      5 C           1.3766   -1.4729    0.9643 C.3     1  UNL11       0.0725
      6 C           0.2387   -0.7604    0.3004 C.2     1  UNL11       0.2191
      7 O          -0.8247   -0.4746    0.9092 O.2     1  UNL11      -0.2754
      8 N           0.3715   -0.3957   -1.0708 N.am    1  UNL11      -0.3147
      9 C           1.6000   -0.7482   -1.7642 C.3     1  UNL11       0.0157
     10 C           1.2307   -1.6560   -2.9361 C.3     1  UNL11      -0.0093
     11 C           0.5544   -2.8380   -2.3560 C.ar    1  UNL11      -0.0107
     12 C           0.1185   -3.8420   -3.1780 C.ar    1  UNL11      -0.0558
     13 C          -0.5219   -4.9716   -2.6793 C.ar    1  UNL11      -0.0613
     14 C          -0.7051   -5.0473   -1.3131 C.ar    1  UNL11      -0.0590
     15 C          -0.2674   -4.0388   -0.4863 C.ar    1  UNL11      -0.0262
     16 C           0.3679   -2.9229   -1.0049 C.ar    1  UNL11       0.1266
     17 F           0.8164   -1.9044   -0.2317 F       1  UNL11      -0.2052
     18 C           3.4233   -1.9411   -0.3270 C.ar    1  UNL11       0.0194
     19 C           3.0888   -3.2706   -0.3744 C.ar    1  UNL11      -0.0518
     20 C           3.9006   -4.1818   -1.0211 C.ar    1  UNL11      -0.0611
     21 C           5.0518   -3.7340   -1.6178 C.ar    1  UNL11      -0.0608
     22 C           5.4305   -2.4040   -1.5964 C.ar    1  UNL11      -0.0441
     23 C           4.5889   -1.5285   -0.9386 C.ar    1  UNL11       0.1005
     24 C           4.9161   -0.1909   -0.8853 C.2     1  UNL11       0.4400
     25 O           5.9726    0.2167   -1.4336 O.2     1  UNL11      -0.2116
     26 H           4.5042    2.3636    0.8958 H       1  UNL11       0.1011
     27 H           5.2989    2.3959   -0.7762 H       1  UNL11       0.1011
     28 H           3.5019    2.6316   -0.5388 H       1  UNL11       0.1011
     29 H           1.3660   -1.2929    2.0581 H       1  UNL11       0.0424
     30 H           1.2717   -2.5637    0.7245 H       1  UNL11       0.0424
     31 H          -0.4123    0.1222   -1.5705 H       1  UNL11       0.1487
     32 H           2.1038    0.1672   -2.1912 H       1  UNL11       0.0465
     33 H           2.3190   -1.2552   -1.1202 H       1  UNL11       0.0465
     34 H           2.1856   -1.9609   -3.4146 H       1  UNL11       0.0329
     35 H           0.5723   -1.0760   -3.6047 H       1  UNL11       0.0329
     36 H           0.2615   -3.7820   -4.2430 H       1  UNL11       0.0621
     37 H          -0.8569   -5.7516   -3.3546 H       1  UNL11       0.0618
     38 H          -1.2048   -5.9234   -0.8967 H       1  UNL11       0.0618
     39 H          -0.3992   -4.0747    0.5853 H       1  UNL11       0.0646
     40 H           2.1754   -3.6102    0.1026 H       1  UNL11       0.0624
     41 H           3.5872   -5.2015   -1.0235 H       1  UNL11       0.0618
     42 H           5.7070   -4.4508   -2.1367 H       1  UNL11       0.0618
     43 H           6.3385   -2.0365   -2.0649 H       1  UNL11       0.0627
@<TRIPOS>BOND
     1     1     2    1
     2     1    26    1
     3     1    27    1
     4     1    28    1
     5     2     3    1
     6     3     4    2
     7     4     5    1
     8     4    18    1
     9     5     6    1
    10     5    29    1
    11     5    30    1
    12     6     7    2
    13     6     8   am
    14     8     9    1
    15     8    31    1
    16     9    10    1
    17     9    32    1
    18     9    33    1
    19    10    11    1
    20    10    34    1
    21    10    35    1
    22    11    12   ar
    23    12    13   ar
    24    12    36    1
    25    13    14   ar
    26    13    37    1
    27    14    15   ar
    28    14    38    1
    29    15    16   ar
    30    15    39    1
    31    16    17    1
    32    16    11   ar
    33    18    19   ar
    34    19    20   ar
    35    19    40    1
    36    20    21   ar
    37    20    41    1
    38    21    22   ar
    39    21    42    1
    40    22    23   ar
    41    22    43    1
    42    23    24    1
    43    23    18   ar
    44    24    25    2
    45    24     2   am
@<TRIPOS>MOLECULE
*****
 43 45 0 0 0
SMALL
GASTEIGER

@<TRIPOS>ATOM
      1 C           3.6042    1.2731   -2.3509 C.3     1  UNL11       0.1632
      2 N           3.7436    0.2950   -1.2772 N.am    1  UNL11      -0.0228
      3 N           2.6286   -0.1199   -0.6851 N.2     1  UNL11      -0.0054
      4 C           2.6281   -1.0158    0.3127 C.2     1  UNL11       0.1237
      5 C           1.3766   -1.4729    0.9643 C.3     1  UNL11       0.0725
      6 C           0.2387   -0.7604    0.3004 C.2     1  UNL11       0.2191
      7 O          -0.0079   -0.8816   -0.9275 O.2     1  UNL11      -0.2754
      8 N          -0.5910    0.0840    1.0937 N.am    1  UNL11      -0.3147
      9 C          -0.2821    0.2262    2.5074 C.3     1  UNL11       0.0157
     10 C           0.9460   -0.6320    2.8057 C.3     1  UNL11      -0.0093
     11 C           2.0435   -0.1028    1.9650 C.ar    1  UNL11      -0.0107
     12 C           3.2782   -0.6918    2.0111 C.ar    1  UNL11      -0.0558
     13 C           4.3398   -0.2302    1.2399 C.ar    1  UNL11      -0.0613
     14 C           4.1041    0.8535    0.4178 C.ar    1  UNL11      -0.0590
     15 C           2.8636    1.4461    0.3709 C.ar    1  UNL11      -0.0262
     16 C           1.8209    0.9695    1.1477 C.ar    1  UNL11       0.1266
     17 F           0.5823    1.5191    1.1361 F       1  UNL11      -0.2052
     18 C           3.8310   -1.5296    0.7447 C.ar    1  UNL11       0.0194
     19 C           3.9002   -2.4488    1.7606 C.ar    1  UNL11      -0.0518
     20 C           5.1170   -2.9513    2.1785 C.ar    1  UNL11      -0.0611
     21 C           6.2601   -2.5143    1.5587 C.ar    1  UNL11      -0.0608
     22 C           6.2404   -1.5894    0.5306 C.ar    1  UNL11      -0.0441
     23 C           5.0021   -1.1142    0.1456 C.ar    1  UNL11       0.1005
     24 C           4.9219   -0.1904   -0.8739 C.2     1  UNL11       0.4400
     25 O           5.9722    0.2083   -1.4404 O.2     1  UNL11      -0.2116
     26 H           3.1152    2.1585   -1.9160 H       1  UNL11       0.1011
     27 H           4.5508    1.4710   -2.8618 H       1  UNL11       0.1011
     28 H           2.8503    0.8289   -3.0548 H       1  UNL11       0.1011
     29 H           1.3660   -1.2929    2.0581 H       1  UNL11       0.0424
     30 H           1.2717   -2.5637    0.7245 H       1  UNL11       0.0424
     31 H          -1.4155    0.5958    0.6573 H       1  UNL11       0.1487
     32 H          -0.0183    1.2940    2.7614 H       1  UNL11       0.0465
     33 H          -1.1066   -0.0767    3.1534 H       1  UNL11       0.0465
     34 H           0.6931   -1.6675    2.4932 H       1  UNL11       0.0329
     35 H           1.1557   -0.5399    3.8847 H       1  UNL11       0.0329
     36 H           3.4611   -1.5364    2.6526 H       1  UNL11       0.0621
     37 H           5.3077   -0.7165    1.2970 H       1  UNL11       0.0618
     38 H           4.9206    1.2350   -0.1975 H       1  UNL11       0.0618
     39 H           2.6545    2.2949   -0.2639 H       1  UNL11       0.0646
     40 H           2.9877   -2.7847    2.2418 H       1  UNL11       0.0624
     41 H           5.1061   -3.6630    2.9731 H       1  UNL11       0.0618
     42 H           7.2361   -2.9077    1.8828 H       1  UNL11       0.0618
     43 H           7.1375   -1.2356    0.0315 H       1  UNL11       0.0627
@<TRIPOS>BOND
     1     1     2    1
     2     1    26    1
     3     1    27    1
     4     1    28    1
     5     2     3    1
     6     3     4    2
     7     4     5    1
     8     4    18    1
     9     5     6    1
    10     5    29    1
    11     5    30    1
    12     6     7    2
    13     6     8   am
    14     8     9    1
    15     8    31    1
    16     9    10    1
    17     9    32    1
    18     9    33    1
    19    10    11    1
    20    10    34    1
    21    10    35    1
    22    11    12   ar
    23    12    13   ar
    24    12    36    1
    25    13    14   ar
    26    13    37    1
    27    14    15   ar
    28    14    38    1
    29    15    16   ar
    30    15    39    1
    31    16    17    1
    32    16    11   ar
    33    18    19   ar
    34    19    20   ar
    35    19    40    1
    36    20    21   ar
    37    20    41    1
    38    21    22   ar
    39    21    42    1
    40    22    23   ar
    41    22    43    1
    42    23    24    1
    43    23    18   ar
    44    24    25    2
    45    24     2   am
@<TRIPOS>MOLECULE
*****
 43 45 0 0 0
SMALL
GASTEIGER

@<TRIPOS>ATOM
      1 C           3.6833    0.1827   -2.9640 C.3     1  UNL11       0.1632
      2 N           3.7808   -0.2153   -1.5637 N.am    1  UNL11      -0.0228
      3 N           2.6649   -0.6247   -0.9695 N.2     1  UNL11      -0.0054
      4 C           2.6281   -1.0158    0.3127 C.2     1  UNL11       0.1237
      5 C           1.3766   -1.4729    0.9643 C.3     1  UNL11       0.0725
      6 C           0.2387   -0.7604    0.3004 C.2     1  UNL11       0.2191
      7 O          -0.1970    0.3454    0.7134 O.2     1  UNL11      -0.2754
      8 N          -0.3683   -1.3621   -0.8399 N.am    1  UNL11      -0.3147
      9 C          -1.4720   -0.6675   -1.4830 C.3     1  UNL11       0.0157
     10 C          -1.4430   -1.0199   -2.9692 C.3     1  UNL11      -0.0093
     11 C          -2.5645   -0.2862   -3.5977 C.ar    1  UNL11      -0.0107
     12 C          -2.3575    0.9712   -4.0975 C.ar    1  UNL11      -0.0558
     13 C          -3.3801    1.6992   -4.6967 C.ar    1  UNL11      -0.0613
     14 C          -4.6239    1.1050   -4.7715 C.ar    1  UNL11      -0.0590
     15 C          -4.8328   -0.1587   -4.2696 C.ar    1  UNL11      -0.0262
     16 C          -3.7997   -0.8652   -3.6769 C.ar    1  UNL11       0.1266
     17 F          -3.9561   -2.1115   -3.1684 F       1  UNL11      -0.2052
     18 C           3.7930   -0.9937    1.0477 C.ar    1  UNL11       0.0194
     19 C           3.8239   -1.3806    2.3634 C.ar    1  UNL11      -0.0518
     20 C           5.0029   -1.3506    3.0822 C.ar    1  UNL11      -0.0611
     21 C           6.1474   -0.9258    2.4565 C.ar    1  UNL11      -0.0608
     22 C           6.1655   -0.5263    1.1325 C.ar    1  UNL11      -0.0441
     23 C           4.9642   -0.5726    0.4528 C.ar    1  UNL11       0.1005
     24 C           4.9226   -0.1859   -0.8693 C.2     1  UNL11       0.4400
     25 O           5.9741    0.2032   -1.4403 O.2     1  UNL11      -0.2116
     26 H           2.9630    1.0141   -3.0112 H       1  UNL11       0.1011
     27 H           4.6606    0.3909   -3.4086 H       1  UNL11       0.1011
     28 H           3.1807   -0.6797   -3.4786 H       1  UNL11       0.1011
     29 H           1.3660   -1.2929    2.0581 H       1  UNL11       0.0424
     30 H           1.2717   -2.5637    0.7245 H       1  UNL11       0.0424
     31 H          -0.0187   -2.2973   -1.2078 H       1  UNL11       0.1487
     32 H          -2.4652   -1.0131   -1.0727 H       1  UNL11       0.0465
     33 H          -1.4192    0.4148   -1.3618 H       1  UNL11       0.0465
     34 H          -1.6179   -2.1146   -3.0393 H       1  UNL11       0.0329
     35 H          -0.4598   -0.7085   -3.3604 H       1  UNL11       0.0329
     36 H          -1.3877    1.4338   -4.0384 H       1  UNL11       0.0621
     37 H          -3.1872    2.6940   -5.0839 H       1  UNL11       0.0618
     38 H          -5.4431    1.6552   -5.2371 H       1  UNL11       0.0618
     39 H          -5.7964   -0.6447   -4.3159 H       1  UNL11       0.0646
     40 H           2.9106   -1.7137    2.8451 H       1  UNL11       0.0624
     41 H           4.9632   -1.6632    4.1014 H       1  UNL11       0.0618
     42 H           7.0936   -0.8977    3.0189 H       1  UNL11       0.0618
     43 H           7.0643   -0.1885    0.6255 H       1  UNL11       0.0627
@<TRIPOS>BOND
     1     1     2    1
     2     1    26    1
     3     1    27    1
     4     1    28    1
     5     2     3    1
     6     3     4    2
     7     4     5    1
     8     4    18    1
     9     5     6    1
    10     5    29    1
    11     5    30    1
    12     6     7    2
    13     6     8   am
    14     8     9    1
    15     8    31    1
    16     9    10    1
    17     9    32    1
    18     9    33    1
    19    10    11    1
    20    10    34    1
    21    10    35    1
    22    11    12   ar
    23    12    13   ar
    24    12    36    1
    25    13    14   ar
    26    13    37    1
    27    14    15   ar
    28    14    38    1
    29    15    16   ar
    30    15    39    1
    31    16    17    1
    32    16    11   ar
    33    18    19   ar
    34    19    20   ar
    35    19    40    1
    36    20    21   ar
    37    20    41    1
    38    21    22   ar
    39    21    42    1
    40    22    23   ar
    41    22    43    1
    42    23    24    1
    43    23    18   ar
    44    24    25    2
    45    24     2   am
@<TRIPOS>MOLECULE
*****
 43 45 0 0 0
SMALL
GASTEIGER

@<TRIPOS>ATOM
      1 C           3.8659    1.9820   -1.3509 C.3     1  UNL11       0.1632
      2 N           3.8658    0.6271   -0.8095 N.am    1  UNL11      -0.0228
      3 N           2.7501    0.2081   -0.2217 N.2     1  UNL11      -0.0054
      4 C           2.6281   -1.0158    0.3127 C.2     1  UNL11       0.1237
      5 C           1.3766   -1.4729    0.9643 C.3     1  UNL11       0.0725
      6 C           0.2387   -0.7604    0.3004 C.2     1  UNL11       0.2191
      7 O          -0.9585   -0.9321    0.6476 O.2     1  UNL11      -0.2754
      8 N           0.5291    0.1433   -0.7624 N.am    1  UNL11      -0.3147
      9 C          -0.5775    0.8344   -1.4043 C.3     1  UNL11       0.0157
     10 C          -1.0496   -0.0262   -2.5748 C.3     1  UNL11      -0.0093
     11 C          -1.4902   -1.3163   -1.9979 C.ar    1  UNL11      -0.0107
     12 C          -1.3763   -2.4637   -2.7354 C.ar    1  UNL11      -0.0558
     13 C          -1.7767   -3.6988   -2.2361 C.ar    1  UNL11      -0.0613
     14 C          -2.2983   -3.7288   -0.9583 C.ar    1  UNL11      -0.0590
     15 C          -2.4130   -2.5762   -0.2164 C.ar    1  UNL11      -0.0262
     16 C          -2.0079   -1.3573   -0.7340 C.ar    1  UNL11       0.1266
     17 F          -2.1009   -0.1956   -0.0425 F       1  UNL11      -0.2052
     18 C           3.7014   -1.8772    0.2520 C.ar    1  UNL11       0.0194
     19 C           3.6425   -3.1422    0.7792 C.ar    1  UNL11      -0.0518
     20 C           4.7306   -3.9900    0.7076 C.ar    1  UNL11      -0.0611
     21 C           5.8760   -3.5446    0.0982 C.ar    1  UNL11      -0.0608
     22 C           5.9827   -2.2783   -0.4476 C.ar    1  UNL11      -0.0441
     23 C           4.8705   -1.4649   -0.3531 C.ar    1  UNL11       0.1005
     24 C           4.9196   -0.1923   -0.8796 C.2     1  UNL11       0.4400
     25 O           5.9716    0.2132   -1.4380 O.2     1  UNL11      -0.2116
     26 H           3.6631    2.6629   -0.5098 H       1  UNL11       0.1011
     27 H           4.7735    2.2052   -1.9190 H       1  UNL11       0.1011
     28 H           2.9557    2.0348   -2.0064 H       1  UNL11       0.1011
     29 H           1.3660   -1.2929    2.0581 H       1  UNL11       0.0424
     30 H           1.2717   -2.5637    0.7245 H       1  UNL11       0.0424
     31 H           1.5333    0.3049   -1.0752 H       1  UNL11       0.1487
     32 H          -1.4497    0.9516   -0.6973 H       1  UNL11       0.0465
     33 H          -0.3048    1.8265   -1.7653 H       1  UNL11       0.0465
     34 H          -0.1660   -0.1843   -3.2292 H       1  UNL11       0.0329
     35 H          -1.8698    0.5185   -3.0720 H       1  UNL11       0.0329
     36 H          -0.9699   -2.4392   -3.7316 H       1  UNL11       0.0621
     37 H          -1.6749   -4.5918   -2.8433 H       1  UNL11       0.0618
     38 H          -2.6197   -4.6855   -0.5433 H       1  UNL11       0.0618
     39 H          -2.8179   -2.5739    0.7851 H       1  UNL11       0.0646
     40 H           2.7300   -3.4804    1.2588 H       1  UNL11       0.0624
     41 H           4.6237   -4.9611    1.1360 H       1  UNL11       0.0618
     42 H           6.7500   -4.2112    0.0347 H       1  UNL11       0.0618
     43 H           6.8830   -1.9137   -0.9329 H       1  UNL11       0.0627
@<TRIPOS>BOND
     1     1     2    1
     2     1    26    1
     3     1    27    1
     4     1    28    1
     5     2     3    1
     6     3     4    2
     7     4     5    1
     8     4    18    1
     9     5     6    1
    10     5    29    1
    11     5    30    1
    12     6     7    2
    13     6     8   am
    14     8     9    1
    15     8    31    1
    16     9    10    1
    17     9    32    1
    18     9    33    1
    19    10    11    1
    20    10    34    1
    21    10    35    1
    22    11    12   ar
    23    12    13   ar
    24    12    36    1
    25    13    14   ar
    26    13    37    1
    27    14    15   ar
    28    14    38    1
    29    15    16   ar
    30    15    39    1
    31    16    17    1
    32    16    11   ar
    33    18    19   ar
    34    19    20   ar
    35    19    40    1
    36    20    21   ar
    37    20    41    1
    38    21    22   ar
    39    21    42    1
    40    22    23   ar
    41    22    43    1
    42    23    24    1
    43    23    18   ar
    44    24    25    2
    45    24     2   am
@<TRIPOS>MOLECULE
*****
 43 45 0 0 0
SMALL
GASTEIGER

@<TRIPOS>ATOM
      1 C           5.3966   -2.4875   -1.5464 C.3     1  UNL11       0.1632
      2 N           4.5827   -1.4638   -0.8993 N.am    1  UNL11      -0.0228
      3 N           3.4582   -1.8623   -0.3141 N.2     1  UNL11      -0.0054
      4 C           2.6281   -1.0158    0.3127 C.2     1  UNL11       0.1237
      5 C           1.3766   -1.4729    0.9643 C.3     1  UNL11       0.0725
      6 C           0.2387   -0.7604    0.3004 C.2     1  UNL11       0.2191
      7 O          -0.9585   -0.9321    0.6476 O.2     1  UNL11      -0.2754
      8 N           0.5291    0.1433   -0.7624 N.am    1  UNL11      -0.3147
      9 C          -0.5775    0.8344   -1.4043 C.3     1  UNL11       0.0157
     10 C           0.0011    1.7188   -2.5075 C.3     1  UNL11      -0.0093
     11 C           0.6859    0.8131   -3.4572 C.ar    1  UNL11      -0.0107
     12 C           1.3188    1.3325   -4.5540 C.ar    1  UNL11      -0.0558
     13 C           1.9754    0.5216   -5.4739 C.ar    1  UNL11      -0.0613
     14 C           1.9674   -0.8391   -5.2411 C.ar    1  UNL11      -0.0590
     15 C           1.3317   -1.3620   -4.1390 C.ar    1  UNL11      -0.0262
     16 C           0.6840   -0.5355   -3.2362 C.ar    1  UNL11       0.1266
     17 F           0.0443   -1.0029   -2.1368 F       1  UNL11      -0.2052
     18 C           2.9509    0.3228    0.3538 C.ar    1  UNL11       0.0194
     19 C           2.1453    1.2408    0.9783 C.ar    1  UNL11      -0.0518
     20 C           2.4877    2.5785    1.0077 C.ar    1  UNL11      -0.0611
     21 C           3.6513    2.9761    0.3996 C.ar    1  UNL11      -0.0608
     22 C           4.4951    2.0877   -0.2421 C.ar    1  UNL11      -0.0441
     23 C           4.1131    0.7605   -0.2467 C.ar    1  UNL11       0.1005
     24 C           4.9154   -0.1695   -0.8716 C.2     1  UNL11       0.4400
     25 O           5.9820    0.1983   -1.4284 O.2     1  UNL11      -0.2116
     26 H           4.7694   -2.9514   -2.3233 H       1  UNL11       0.1011
     27 H           6.3566   -2.0983   -1.8974 H       1  UNL11       0.1011
     28 H           5.5434   -3.2809   -0.7654 H       1  UNL11       0.1011
     29 H           1.3660   -1.2929    2.0581 H       1  UNL11       0.0424
     30 H           1.2717   -2.5637    0.7245 H       1  UNL11       0.0424
     31 H           1.5333    0.3049   -1.0752 H       1  UNL11       0.1487
     32 H          -1.2856    0.1037   -1.8930 H       1  UNL11       0.0465
     33 H          -1.1550    1.4453   -0.7099 H       1  UNL11       0.0465
     34 H           0.7408    2.3897   -2.0212 H       1  UNL11       0.0329
     35 H          -0.8420    2.2595   -2.9696 H       1  UNL11       0.0329
     36 H           1.3241    2.3934   -4.7349 H       1  UNL11       0.0621
     37 H           2.4683    0.9610   -6.3344 H       1  UNL11       0.0618
     38 H           2.4755   -1.4971   -5.9479 H       1  UNL11       0.0618
     39 H           1.3112   -2.4227   -3.9353 H       1  UNL11       0.0646
     40 H           1.2278    0.9116    1.4545 H       1  UNL11       0.0624
     41 H           1.8208    3.2439    1.5083 H       1  UNL11       0.0618
     42 H           3.9352    4.0398    0.4165 H       1  UNL11       0.0618
     43 H           5.4188    2.3891   -0.7268 H       1  UNL11       0.0627
@<TRIPOS>BOND
     1     1     2    1
     2     1    26    1
     3     1    27    1
     4     1    28    1
     5     2     3    1
     6     3     4    2
     7     4     5    1
     8     4    18    1
     9     5     6    1
    10     5    29    1
    11     5    30    1
    12     6     7    2
    13     6     8   am
    14     8     9    1
    15     8    31    1
    16     9    10    1
    17     9    32    1
    18     9    33    1
    19    10    11    1
    20    10    34    1
    21    10    35    1
    22    11    12   ar
    23    12    13   ar
    24    12    36    1
    25    13    14   ar
    26    13    37    1
    27    14    15   ar
    28    14    38    1
    29    15    16   ar
    30    15    39    1
    31    16    17    1
    32    16    11   ar
    33    18    19   ar
    34    19    20   ar
    35    19    40    1
    36    20    21   ar
    37    20    41    1
    38    21    22   ar
    39    21    42    1
    40    22    23   ar
    41    22    43    1
    42    23    24    1
    43    23    18   ar
    44    24    25    2
    45    24     2   am
@<TRIPOS>MOLECULE
*****
 43 45 0 0 0
SMALL
GASTEIGER

@<TRIPOS>ATOM
      1 C           5.7165    0.6627    1.2778 C.3     1  UNL11       0.1632
      2 N           4.7315    0.0110    0.4210 N.am    1  UNL11      -0.0228
      3 N           3.6073   -0.4043    0.9951 N.2     1  UNL11      -0.0054
      4 C           2.6281   -1.0158    0.3127 C.2     1  UNL11       0.1237
      5 C           1.3766   -1.4729    0.9643 C.3     1  UNL11       0.0725
      6 C           0.2387   -0.7604    0.3004 C.2     1  UNL11       0.2191
      7 O           0.3628    0.3865   -0.2021 O.2     1  UNL11      -0.2754
      8 N          -1.0280   -1.4104    0.2389 N.am    1  UNL11      -0.3147
      9 C          -1.1587   -2.7283    0.8392 C.3     1  UNL11       0.0157
     10 C          -1.5758   -3.7030   -0.2608 C.3     1  UNL11      -0.0093
     11 C          -2.8596   -3.2026   -0.8019 C.ar    1  UNL11      -0.0107
     12 C          -2.9528   -2.8651   -2.1251 C.ar    1  UNL11      -0.0558
     13 C          -4.1373   -2.3906   -2.6789 C.ar    1  UNL11      -0.0613
     14 C          -5.2274   -2.2704   -1.8404 C.ar    1  UNL11      -0.0590
     15 C          -5.1347   -2.6095   -0.5105 C.ar    1  UNL11      -0.0262
     16 C          -3.9448   -3.0798    0.0194 C.ar    1  UNL11       0.1266
     17 F          -3.8042   -3.4262    1.3218 F       1  UNL11      -0.2052
     18 C           2.7905   -1.2240   -1.0393 C.ar    1  UNL11       0.0194
     19 C           1.8278   -1.8434   -1.7951 C.ar    1  UNL11      -0.0518
     20 C           2.0109   -2.0423   -3.1496 C.ar    1  UNL11      -0.0611
     21 C           3.1762   -1.6087   -3.7293 C.ar    1  UNL11      -0.0608
     22 C           4.1749   -0.9795   -3.0086 C.ar    1  UNL11      -0.0441
     23 C           3.9490   -0.8018   -1.6577 C.ar    1  UNL11       0.1005
     24 C           4.9101   -0.1808   -0.8898 C.2     1  UNL11       0.4400
     25 O           5.9777    0.2158   -1.4245 O.2     1  UNL11      -0.2116
     26 H           5.9952   -0.0647    2.0559 H       1  UNL11       0.1011
     27 H           6.5544    1.0781    0.7107 H       1  UNL11       0.1011
     28 H           5.1495    1.4715    1.8120 H       1  UNL11       0.1011
     29 H           1.3660   -1.2929    2.0581 H       1  UNL11       0.0424
     30 H           1.2717   -2.5637    0.7245 H       1  UNL11       0.0424
     31 H          -1.8550   -0.9385   -0.2360 H       1  UNL11       0.1487
     32 H          -0.1717   -3.0873    1.2528 H       1  UNL11       0.0465
     33 H          -1.8891   -2.7543    1.6483 H       1  UNL11       0.0465
     34 H          -1.7279   -4.6883    0.2291 H       1  UNL11       0.0329
     35 H          -0.7710   -3.7094   -1.0151 H       1  UNL11       0.0329
     36 H          -2.1023   -2.9588   -2.7779 H       1  UNL11       0.0621
     37 H          -4.1820   -2.1305   -3.7310 H       1  UNL11       0.0618
     38 H          -6.1686   -1.9006   -2.2504 H       1  UNL11       0.0618
     39 H          -5.9731   -2.5240    0.1653 H       1  UNL11       0.0646
     40 H           0.9115   -2.1814   -1.3227 H       1  UNL11       0.0624
     41 H           1.2265   -2.5300   -3.6834 H       1  UNL11       0.0618
     42 H           3.3337   -1.7613   -4.8083 H       1  UNL11       0.0618
     43 H           5.1014   -0.6313   -3.4552 H       1  UNL11       0.0627
@<TRIPOS>BOND
     1     1     2    1
     2     1    26    1
     3     1    27    1
     4     1    28    1
     5     2     3    1
     6     3     4    2
     7     4     5    1
     8     4    18    1
     9     5     6    1
    10     5    29    1
    11     5    30    1
    12     6     7    2
    13     6     8   am
    14     8     9    1
    15     8    31    1
    16     9    10    1
    17     9    32    1
    18     9    33    1
    19    10    11    1
    20    10    34    1
    21    10    35    1
    22    11    12   ar
    23    12    13   ar
    24    12    36    1
    25    13    14   ar
    26    13    37    1
    27    14    15   ar
    28    14    38    1
    29    15    16   ar
    30    15    39    1
    31    16    17    1
    32    16    11   ar
    33    18    19   ar
    34    19    20   ar
    35    19    40    1
    36    20    21   ar
    37    20    41    1
    38    21    22   ar
    39    21    42    1
    40    22    23   ar
    41    22    43    1
    42    23    24    1
    43    23    18   ar
    44    24    25    2
    45    24     2   am
@<TRIPOS>MOLECULE
*****
 43 45 0 0 0
SMALL
GASTEIGER

@<TRIPOS>ATOM
      1 C           4.4300    2.1151   -0.1742 C.3     1  UNL11       0.1632
      2 N           4.1295    0.6899   -0.2590 N.am    1  UNL11      -0.0228
      3 N           3.0115    0.2692    0.3232 N.2     1  UNL11      -0.0054
      4 C           2.6281   -1.0158    0.3127 C.2     1  UNL11       0.1237
      5 C           1.3766   -1.4729    0.9643 C.3     1  UNL11       0.0725
      6 C           0.2387   -0.7604    0.3004 C.2     1  UNL11       0.2191
      7 O          -0.1970    0.3454    0.7134 O.2     1  UNL11      -0.2754
      8 N          -0.3683   -1.3621   -0.8399 N.am    1  UNL11      -0.3147
      9 C          -1.4720   -0.6675   -1.4830 C.3     1  UNL11       0.0157
     10 C          -1.4430   -1.0199   -2.9692 C.3     1  UNL11      -0.0093
     11 C          -2.5645   -0.2862   -3.5977 C.ar    1  UNL11      -0.0107
     12 C          -3.3693    0.5110   -2.8295 C.ar    1  UNL11      -0.0558
     13 C          -4.4348    1.2196   -3.3750 C.ar    1  UNL11      -0.0613
     14 C          -4.6557    1.0906   -4.7316 C.ar    1  UNL11      -0.0590
     15 C          -3.8473    0.2897   -5.5044 C.ar    1  UNL11      -0.0262
     16 C          -2.7920   -0.4068   -4.9398 C.ar    1  UNL11       0.1266
     17 F          -1.9687   -1.2075   -5.6590 F       1  UNL11      -0.2052
     18 C           3.4233   -1.9411   -0.3270 C.ar    1  UNL11       0.0194
     19 C           3.0888   -3.2706   -0.3744 C.ar    1  UNL11      -0.0518
     20 C           3.9006   -4.1818   -1.0211 C.ar    1  UNL11      -0.0611
     21 C           5.0518   -3.7340   -1.6178 C.ar    1  UNL11      -0.0608
     22 C           5.4305   -2.4040   -1.5964 C.ar    1  UNL11      -0.0441
     23 C           4.5889   -1.5285   -0.9386 C.ar    1  UNL11       0.1005
     24 C           4.9161   -0.1909   -0.8853 C.2     1  UNL11       0.4400
     25 O           5.9726    0.2167   -1.4336 O.2     1  UNL11      -0.2116
     26 H           4.5042    2.3636    0.8958 H       1  UNL11       0.1011
     27 H           5.2989    2.3959   -0.7762 H       1  UNL11       0.1011
     28 H           3.5019    2.6316   -0.5388 H       1  UNL11       0.1011
     29 H           1.3660   -1.2929    2.0581 H       1  UNL11       0.0424
     30 H           1.2717   -2.5637    0.7245 H       1  UNL11       0.0424
     31 H          -0.0187   -2.2973   -1.2078 H       1  UNL11       0.1487
     32 H          -2.4652   -1.0131   -1.0727 H       1  UNL11       0.0465
     33 H          -1.4192    0.4148   -1.3618 H       1  UNL11       0.0465
     34 H          -1.6179   -2.1146   -3.0393 H       1  UNL11       0.0329
     35 H          -0.4598   -0.7085   -3.3604 H       1  UNL11       0.0329
     36 H          -3.1966    0.6106   -1.7719 H       1  UNL11       0.0621
     37 H          -5.0562    1.8437   -2.7418 H       1  UNL11       0.0618
     38 H          -5.4853    1.6363   -5.1841 H       1  UNL11       0.0618
     39 H          -3.9999    0.1724   -6.5674 H       1  UNL11       0.0646
     40 H           2.1754   -3.6102    0.1026 H       1  UNL11       0.0624
     41 H           3.5872   -5.2015   -1.0235 H       1  UNL11       0.0618
     42 H           5.7070   -4.4508   -2.1367 H       1  UNL11       0.0618
     43 H           6.3385   -2.0365   -2.0649 H       1  UNL11       0.0627
@<TRIPOS>BOND
     1     1     2    1
     2     1    26    1
     3     1    27    1
     4     1    28    1
     5     2     3    1
     6     3     4    2
     7     4     5    1
     8     4    18    1
     9     5     6    1
    10     5    29    1
    11     5    30    1
    12     6     7    2
    13     6     8   am
    14     8     9    1
    15     8    31    1
    16     9    10    1
    17     9    32    1
    18     9    33    1
    19    10    11    1
    20    10    34    1
    21    10    35    1
    22    11    12   ar
    23    12    13   ar
    24    12    36    1
    25    13    14   ar
    26    13    37    1
    27    14    15   ar
    28    14    38    1
    29    15    16   ar
    30    15    39    1
    31    16    17    1
    32    16    11   ar
    33    18    19   ar
    34    19    20   ar
    35    19    40    1
    36    20    21   ar
    37    20    41    1
    38    21    22   ar
    39    21    42    1
    40    22    23   ar
    41    22    43    1
    42    23    24    1
    43    23    18   ar
    44    24    25    2
    45    24     2   am
@<TRIPOS>MOLECULE
*****
 43 45 0 0 0
SMALL
GASTEIGER

@<TRIPOS>ATOM
      1 C           4.7291   -2.0116   -2.4946 C.3     1  UNL11       0.1632
      2 N           4.2705   -1.2416   -1.3432 N.am    1  UNL11      -0.0228
      3 N           3.1490   -1.6414   -0.7530 N.2     1  UNL11      -0.0054
      4 C           2.6281   -1.0158    0.3127 C.2     1  UNL11       0.1237
      5 C           1.3766   -1.4729    0.9643 C.3     1  UNL11       0.0725
      6 C           0.2387   -0.7604    0.3004 C.2     1  UNL11       0.2191
      7 O          -0.0079   -0.8816   -0.9275 O.2     1  UNL11      -0.2754
      8 N          -0.5910    0.0840    1.0937 N.am    1  UNL11      -0.3147
      9 C          -0.2821    0.2262    2.5074 C.3     1  UNL11       0.0157
     10 C           0.0005    1.7031    2.7773 C.3     1  UNL11      -0.0093
     11 C           1.1420    2.0781    1.9128 C.ar    1  UNL11      -0.0107
     12 C           1.6322    3.3554    1.9520 C.ar    1  UNL11      -0.0558
     13 C           2.7028    3.7544    1.1585 C.ar    1  UNL11      -0.0613
     14 C           3.2604    2.8089    0.3213 C.ar    1  UNL11      -0.0590
     15 C           2.7685    1.5249    0.2814 C.ar    1  UNL11      -0.0262
     16 C           1.7014    1.1499    1.0804 C.ar    1  UNL11       0.1266
     17 F           1.1820   -0.1017    1.0763 F       1  UNL11      -0.2052
     18 C           3.2794    0.0871    0.8195 C.ar    1  UNL11       0.0194
     19 C           2.7999    0.7723    1.9069 C.ar    1  UNL11      -0.0518
     20 C           3.4687    1.8760    2.3990 C.ar    1  UNL11      -0.0611
     21 C           4.6252    2.2778    1.7802 C.ar    1  UNL11      -0.0608
     22 C           5.1471    1.6192    0.6817 C.ar    1  UNL11      -0.0441
     23 C           4.4454    0.5213    0.2238 C.ar    1  UNL11       0.1005
     24 C           4.9189   -0.1737   -0.8680 C.2     1  UNL11       0.4400
     25 O           5.9798    0.1974   -1.4333 O.2     1  UNL11      -0.2116
     26 H           3.9282   -1.9675   -3.2488 H       1  UNL11       0.1011
     27 H           5.7143   -1.6918   -2.8459 H       1  UNL11       0.1011
     28 H           4.7520   -3.0778   -2.1428 H       1  UNL11       0.1011
     29 H           1.3660   -1.2929    2.0581 H       1  UNL11       0.0424
     30 H           1.2717   -2.5637    0.7245 H       1  UNL11       0.0424
     31 H          -1.4155    0.5958    0.6573 H       1  UNL11       0.1487
     32 H          -1.1617   -0.0725    3.1486 H       1  UNL11       0.0465
     33 H           0.5748   -0.3733    2.8159 H       1  UNL11       0.0465
     34 H           0.2917    1.7803    3.8465 H       1  UNL11       0.0329
     35 H          -0.9184    2.2623    2.5331 H       1  UNL11       0.0329
     36 H           1.1966    4.0920    2.6047 H       1  UNL11       0.0621
     37 H           3.0702    4.7737    1.2103 H       1  UNL11       0.0618
     38 H           4.1016    3.0967   -0.3114 H       1  UNL11       0.0618
     39 H           3.1874    0.7677   -0.3652 H       1  UNL11       0.0646
     40 H           1.8837    0.4431    2.3857 H       1  UNL11       0.0624
     41 H           3.0462    2.3669    3.2467 H       1  UNL11       0.0618
     42 H           5.1675    3.1561    2.1634 H       1  UNL11       0.0618
     43 H           6.0614    1.9266    0.1830 H       1  UNL11       0.0627
@<TRIPOS>BOND
     1     1     2    1
     2     1    26    1
     3     1    27    1
     4     1    28    1
     5     2     3    1
     6     3     4    2
     7     4     5    1
     8     4    18    1
     9     5     6    1
    10     5    29    1
    11     5    30    1
    12     6     7    2
    13     6     8   am
    14     8     9    1
    15     8    31    1
    16     9    10    1
    17     9    32    1
    18     9    33    1
    19    10    11    1
    20    10    34    1
    21    10    35    1
    22    11    12   ar
    23    12    13   ar
    24    12    36    1
    25    13    14   ar
    26    13    37    1
    27    14    15   ar
    28    14    38    1
    29    15    16   ar
    30    15    39    1
    31    16    17    1
    32    16    11   ar
    33    18    19   ar
    34    19    20   ar
    35    19    40    1
    36    20    21   ar
    37    20    41    1
    38    21    22   ar
    39    21    42    1
    40    22    23   ar
    41    22    43    1
    42    23    24    1
    43    23    18   ar
    44    24    25    2
    45    24     2   am
@<TRIPOS>MOLECULE
*****
 43 45 0 0 0
SMALL
GASTEIGER

@<TRIPOS>ATOM
      1 C           5.7165    0.6627    1.2778 C.3     1  UNL11       0.1632
      2 N           4.7315    0.0110    0.4210 N.am    1  UNL11      -0.0228
      3 N           3.6073   -0.4043    0.9951 N.2     1  UNL11      -0.0054
      4 C           2.6281   -1.0158    0.3127 C.2     1  UNL11       0.1237
      5 C           1.3766   -1.4729    0.9643 C.3     1  UNL11       0.0725
      6 C           0.2387   -0.7604    0.3004 C.2     1  UNL11       0.2191
      7 O          -0.3582   -1.2311   -0.7023 O.2     1  UNL11      -0.2754
      8 N          -0.1782    0.4959    0.8283 N.am    1  UNL11      -0.3147
      9 C           0.5330    1.0336    1.9768 C.3     1  UNL11       0.0157
     10 C           1.0575   -0.1451    2.7950 C.3     1  UNL11      -0.0093
     11 C           1.7596    0.4326    3.9631 C.ar    1  UNL11      -0.0107
     12 C           3.0972    0.7116    3.8811 C.ar    1  UNL11      -0.0558
     13 C           3.7996    1.2547    4.9519 C.ar    1  UNL11      -0.0613
     14 C           3.0952    1.5057    6.1123 C.ar    1  UNL11      -0.0590
     15 C           1.7510    1.2257    6.1955 C.ar    1  UNL11      -0.0262
     16 C           1.0719    0.6849    5.1166 C.ar    1  UNL11       0.1266
     17 F          -0.2508    0.3921    5.1501 F       1  UNL11      -0.2052
     18 C           2.7905   -1.2240   -1.0393 C.ar    1  UNL11       0.0194
     19 C           1.8278   -1.8434   -1.7951 C.ar    1  UNL11      -0.0518
     20 C           2.0109   -2.0423   -3.1496 C.ar    1  UNL11      -0.0611
     21 C           3.1762   -1.6087   -3.7293 C.ar    1  UNL11      -0.0608
     22 C           4.1749   -0.9795   -3.0086 C.ar    1  UNL11      -0.0441
     23 C           3.9490   -0.8018   -1.6577 C.ar    1  UNL11       0.1005
     24 C           4.9101   -0.1808   -0.8898 C.2     1  UNL11       0.4400
     25 O           5.9777    0.2158   -1.4245 O.2     1  UNL11      -0.2116
     26 H           5.9952   -0.0647    2.0559 H       1  UNL11       0.1011
     27 H           6.5544    1.0781    0.7107 H       1  UNL11       0.1011
     28 H           5.1495    1.4715    1.8120 H       1  UNL11       0.1011
     29 H           1.3660   -1.2929    2.0581 H       1  UNL11       0.0424
     30 H           1.2717   -2.5637    0.7245 H       1  UNL11       0.0424
     31 H          -0.9910    1.0237    0.3889 H       1  UNL11       0.1487
     32 H           1.4254    1.6448    1.6538 H       1  UNL11       0.0465
     33 H          -0.0947    1.6658    2.6055 H       1  UNL11       0.0465
     34 H           1.7793   -0.6855    2.1464 H       1  UNL11       0.0329
     35 H           0.1861   -0.7568    3.0836 H       1  UNL11       0.0329
     36 H           3.6456    0.5152    2.9762 H       1  UNL11       0.0621
     37 H           4.8596    1.4653    4.8585 H       1  UNL11       0.0618
     38 H           3.6233    1.9317    6.9669 H       1  UNL11       0.0618
     39 H           1.1783    1.4128    7.0922 H       1  UNL11       0.0646
     40 H           0.9115   -2.1814   -1.3227 H       1  UNL11       0.0624
     41 H           1.2265   -2.5300   -3.6834 H       1  UNL11       0.0618
     42 H           3.3337   -1.7613   -4.8083 H       1  UNL11       0.0618
     43 H           5.1014   -0.6313   -3.4552 H       1  UNL11       0.0627
@<TRIPOS>BOND
     1     1     2    1
     2     1    26    1
     3     1    27    1
     4     1    28    1
     5     2     3    1
     6     3     4    2
     7     4     5    1
     8     4    18    1
     9     5     6    1
    10     5    29    1
    11     5    30    1
    12     6     7    2
    13     6     8   am
    14     8     9    1
    15     8    31    1
    16     9    10    1
    17     9    32    1
    18     9    33    1
    19    10    11    1
    20    10    34    1
    21    10    35    1
    22    11    12   ar
    23    12    13   ar
    24    12    36    1
    25    13    14   ar
    26    13    37    1
    27    14    15   ar
    28    14    38    1
    29    15    16   ar
    30    15    39    1
    31    16    17    1
    32    16    11   ar
    33    18    19   ar
    34    19    20   ar
    35    19    40    1
    36    20    21   ar
    37    20    41    1
    38    21    22   ar
    39    21    42    1
    40    22    23   ar
    41    22    43    1
    42    23    24    1
    43    23    18   ar
    44    24    25    2
    45    24     2   am
@<TRIPOS>MOLECULE
*****
 43 45 0 0 0
SMALL
GASTEIGER

@<TRIPOS>ATOM
      1 C           3.6042    1.2731   -2.3509 C.3     1  UNL11       0.1632
      2 N           3.7436    0.2950   -1.2772 N.am    1  UNL11      -0.0228
      3 N           2.6286   -0.1199   -0.6851 N.2     1  UNL11      -0.0054
      4 C           2.6281   -1.0158    0.3127 C.2     1  UNL11       0.1237
      5 C           1.3766   -1.4729    0.9643 C.3     1  UNL11       0.0725
      6 C           0.2387   -0.7604    0.3004 C.2     1  UNL11       0.2191
      7 O          -0.0079   -0.8816   -0.9275 O.2     1  UNL11      -0.2754
      8 N          -0.5910    0.0840    1.0937 N.am    1  UNL11      -0.3147
      9 C          -0.2821    0.2262    2.5074 C.3     1  UNL11       0.0157
     10 C          -1.4953   -0.2554    3.3011 C.3     1  UNL11      -0.0093
     11 C          -1.6969   -1.6768    2.9406 C.ar    1  UNL11      -0.0107
     12 C          -2.7346   -2.3769    3.4942 C.ar    1  UNL11      -0.0558
     13 C          -2.9641   -3.7138    3.1861 C.ar    1  UNL11      -0.0613
     14 C          -2.1010   -4.3174    2.2936 C.ar    1  UNL11      -0.0590
     15 C          -1.0578   -3.6146    1.7366 C.ar    1  UNL11      -0.0262
     16 C          -0.8484   -2.2840    2.0581 C.ar    1  UNL11       0.1266
     17 F           0.1644   -1.5504    1.5362 F       1  UNL11      -0.2052
     18 C           3.8310   -1.5296    0.7447 C.ar    1  UNL11       0.0194
     19 C           3.9002   -2.4488    1.7606 C.ar    1  UNL11      -0.0518
     20 C           5.1170   -2.9513    2.1785 C.ar    1  UNL11      -0.0611
     21 C           6.2601   -2.5143    1.5587 C.ar    1  UNL11      -0.0608
     22 C           6.2404   -1.5894    0.5306 C.ar    1  UNL11      -0.0441
     23 C           5.0021   -1.1142    0.1456 C.ar    1  UNL11       0.1005
     24 C           4.9219   -0.1904   -0.8739 C.2     1  UNL11       0.4400
     25 O           5.9722    0.2083   -1.4404 O.2     1  UNL11      -0.2116
     26 H           3.1152    2.1585   -1.9160 H       1  UNL11       0.1011
     27 H           4.5508    1.4710   -2.8618 H       1  UNL11       0.1011
     28 H           2.8503    0.8289   -3.0548 H       1  UNL11       0.1011
     29 H           1.3660   -1.2929    2.0581 H       1  UNL11       0.0424
     30 H           1.2717   -2.5637    0.7245 H       1  UNL11       0.0424
     31 H          -1.4155    0.5958    0.6573 H       1  UNL11       0.1487
     32 H           0.5934   -0.4233    2.8005 H       1  UNL11       0.0465
     33 H          -0.0447    1.2529    2.7877 H       1  UNL11       0.0465
     34 H          -2.3605    0.3506    2.9574 H       1  UNL11       0.0329
     35 H          -1.2626   -0.1178    4.3706 H       1  UNL11       0.0329
     36 H          -3.4068   -1.9055    4.1902 H       1  UNL11       0.0621
     37 H          -3.7943   -4.2437    3.6403 H       1  UNL11       0.0618
     38 H          -2.2594   -5.3656    2.0351 H       1  UNL11       0.0618
     39 H          -0.3692   -4.0646    1.0364 H       1  UNL11       0.0646
     40 H           2.9877   -2.7847    2.2418 H       1  UNL11       0.0624
     41 H           5.1061   -3.6630    2.9731 H       1  UNL11       0.0618
     42 H           7.2361   -2.9077    1.8828 H       1  UNL11       0.0618
     43 H           7.1375   -1.2356    0.0315 H       1  UNL11       0.0627
@<TRIPOS>BOND
     1     1     2    1
     2     1    26    1
     3     1    27    1
     4     1    28    1
     5     2     3    1
     6     3     4    2
     7     4     5    1
     8     4    18    1
     9     5     6    1
    10     5    29    1
    11     5    30    1
    12     6     7    2
    13     6     8   am
    14     8     9    1
    15     8    31    1
    16     9    10    1
    17     9    32    1
    18     9    33    1
    19    10    11    1
    20    10    34    1
    21    10    35    1
    22    11    12   ar
    23    12    13   ar
    24    12    36    1
    25    13    14   ar
    26    13    37    1
    27    14    15   ar
    28    14    38    1
    29    15    16   ar
    30    15    39    1
    31    16    17    1
    32    16    11   ar
    33    18    19   ar
    34    19    20   ar
    35    19    40    1
    36    20    21   ar
    37    20    41    1
    38    21    22   ar
    39    21    42    1
    40    22    23   ar
    41    22    43    1
    42    23    24    1
    43    23    18   ar
    44    24    25    2
    45    24     2   am
@<TRIPOS>MOLECULE
*****
 43 45 0 0 0
SMALL
GASTEIGER

@<TRIPOS>ATOM
      1 C           4.0824   -1.0037   -3.0297 C.3     1  UNL11       0.1632
      2 N           3.9678   -0.7703   -1.5940 N.am    1  UNL11      -0.0228
      3 N           2.8495   -1.1742   -1.0004 N.2     1  UNL11      -0.0054
      4 C           2.6281   -1.0158    0.3127 C.2     1  UNL11       0.1237
      5 C           1.3766   -1.4729    0.9643 C.3     1  UNL11       0.0725
      6 C           0.2387   -0.7604    0.3004 C.2     1  UNL11       0.2191
      7 O          -0.6863   -1.3735   -0.2927 O.2     1  UNL11      -0.2754
      8 N           0.2084    0.6636    0.3456 N.am    1  UNL11      -0.3147
      9 C           1.2936    1.3572    1.0205 C.3     1  UNL11       0.0157
     10 C           1.8149    0.4430    2.1278 C.3     1  UNL11      -0.0093
     11 C           0.6709    0.1791    3.0292 C.ar    1  UNL11      -0.0107
     12 C          -0.5493    0.7372    2.7585 C.ar    1  UNL11      -0.0558
     13 C          -1.6532    0.5182    3.5760 C.ar    1  UNL11      -0.0613
     14 C          -1.4752   -0.2896    4.6813 C.ar    1  UNL11      -0.0590
     15 C          -0.2494   -0.8510    4.9540 C.ar    1  UNL11      -0.0262
     16 C           0.8361   -0.6191    4.1260 C.ar    1  UNL11       0.1266
     17 F           2.0625   -1.1491    4.3528 F       1  UNL11      -0.2052
     18 C           3.5973   -0.4098    1.0815 C.ar    1  UNL11       0.0194
     19 C           3.4335   -0.2172    2.4297 C.ar    1  UNL11      -0.0518
     20 C           4.4181    0.3929    3.1821 C.ar    1  UNL11      -0.0611
     21 C           5.5674    0.8049    2.5566 C.ar    1  UNL11      -0.0608
     22 C           5.7777    0.6325    1.2006 C.ar    1  UNL11      -0.0441
     23 C           4.7667    0.0181    0.4879 C.ar    1  UNL11       0.1005
     24 C           4.9216   -0.1798   -0.8671 C.2     1  UNL11       0.4400
     25 O           5.9768    0.1992   -1.4378 O.2     1  UNL11      -0.2116
     26 H           3.2463   -0.4707   -3.5084 H       1  UNL11       0.1011
     27 H           5.0741   -0.7522   -3.4164 H       1  UNL11       0.1011
     28 H           3.8602   -2.0958   -3.1669 H       1  UNL11       0.1011
     29 H           1.3660   -1.2929    2.0581 H       1  UNL11       0.0424
     30 H           1.2717   -2.5637    0.7245 H       1  UNL11       0.0424
     31 H          -0.5914    1.2016   -0.1049 H       1  UNL11       0.1487
     32 H           2.1515    1.5561    0.3142 H       1  UNL11       0.0465
     33 H           0.9850    2.3116    1.4480 H       1  UNL11       0.0465
     34 H           2.6004    1.0139    2.6673 H       1  UNL11       0.0329
     35 H           2.1945   -0.4730    1.6445 H       1  UNL11       0.0329
     36 H          -0.6870    1.3671    1.8968 H       1  UNL11       0.0621
     37 H          -2.6081    0.9738    3.3370 H       1  UNL11       0.0618
     38 H          -2.3257   -0.4772    5.3386 H       1  UNL11       0.0618
     39 H          -0.0850   -1.4860    5.8124 H       1  UNL11       0.0646
     40 H           2.5189   -0.5479    2.9106 H       1  UNL11       0.0624
     41 H           4.2323    0.5146    4.2255 H       1  UNL11       0.0618
     42 H           6.3597    1.2923    3.1457 H       1  UNL11       0.0618
     43 H           6.6825    0.9536    0.6934 H       1  UNL11       0.0627
@<TRIPOS>BOND
     1     1     2    1
     2     1    26    1
     3     1    27    1
     4     1    28    1
     5     2     3    1
     6     3     4    2
     7     4     5    1
     8     4    18    1
     9     5     6    1
    10     5    29    1
    11     5    30    1
    12     6     7    2
    13     6     8   am
    14     8     9    1
    15     8    31    1
    16     9    10    1
    17     9    32    1
    18     9    33    1
    19    10    11    1
    20    10    34    1
    21    10    35    1
    22    11    12   ar
    23    12    13   ar
    24    12    36    1
    25    13    14   ar
    26    13    37    1
    27    14    15   ar
    28    14    38    1
    29    15    16   ar
    30    15    39    1
    31    16    17    1
    32    16    11   ar
    33    18    19   ar
    34    19    20   ar
    35    19    40    1
    36    20    21   ar
    37    20    41    1
    38    21    22   ar
    39    21    42    1
    40    22    23   ar
    41    22    43    1
    42    23    24    1
    43    23    18   ar
    44    24    25    2
    45    24     2   am
@<TRIPOS>MOLECULE
*****
 43 45 0 0 0
SMALL
GASTEIGER

@<TRIPOS>ATOM
      1 C           4.7291   -2.0116   -2.4946 C.3     1  UNL11       0.1632
      2 N           4.2705   -1.2416   -1.3432 N.am    1  UNL11      -0.0228
      3 N           3.1490   -1.6414   -0.7530 N.2     1  UNL11      -0.0054
      4 C           2.6281   -1.0158    0.3127 C.2     1  UNL11       0.1237
      5 C           1.3766   -1.4729    0.9643 C.3     1  UNL11       0.0725
      6 C           0.2387   -0.7604    0.3004 C.2     1  UNL11       0.2191
      7 O          -0.5466   -0.0081    0.9333 O.2     1  UNL11      -0.2754
      8 N           0.0437   -0.9455   -1.0991 N.am    1  UNL11      -0.3147
      9 C           0.9499   -1.8312   -1.8122 C.3     1  UNL11       0.0157
     10 C           0.1758   -2.4560   -2.9717 C.3     1  UNL11      -0.0093
     11 C          -0.9650   -3.1842   -2.3722 C.ar    1  UNL11      -0.0107
     12 C          -1.8364   -3.8637   -3.1800 C.ar    1  UNL11      -0.0558
     13 C          -2.9225   -4.5622   -2.6630 C.ar    1  UNL11      -0.0613
     14 C          -3.0941   -4.5470   -1.2932 C.ar    1  UNL11      -0.0590
     15 C          -2.2189   -3.8644   -0.4807 C.ar    1  UNL11      -0.0262
     16 C          -1.1441   -3.1756   -1.0175 C.ar    1  UNL11       0.1266
     17 F          -0.2557   -2.4891   -0.2588 F       1  UNL11      -0.2052
     18 C           3.2794    0.0871    0.8195 C.ar    1  UNL11       0.0194
     19 C           2.7999    0.7723    1.9069 C.ar    1  UNL11      -0.0518
     20 C           3.4687    1.8760    2.3990 C.ar    1  UNL11      -0.0611
     21 C           4.6252    2.2778    1.7802 C.ar    1  UNL11      -0.0608
     22 C           5.1471    1.6192    0.6817 C.ar    1  UNL11      -0.0441
     23 C           4.4454    0.5213    0.2238 C.ar    1  UNL11       0.1005
     24 C           4.9189   -0.1737   -0.8680 C.2     1  UNL11       0.4400
     25 O           5.9798    0.1974   -1.4333 O.2     1  UNL11      -0.2116
     26 H           3.9282   -1.9675   -3.2488 H       1  UNL11       0.1011
     27 H           5.7143   -1.6918   -2.8459 H       1  UNL11       0.1011
     28 H           4.7520   -3.0778   -2.1428 H       1  UNL11       0.1011
     29 H           1.3660   -1.2929    2.0581 H       1  UNL11       0.0424
     30 H           1.2717   -2.5637    0.7245 H       1  UNL11       0.0424
     31 H          -0.7472   -0.4452   -1.6053 H       1  UNL11       0.1487
     32 H           1.8163   -1.2581   -2.2539 H       1  UNL11       0.0465
     33 H           1.3588   -2.6183   -1.1781 H       1  UNL11       0.0465
     34 H           0.8668   -3.1720   -3.4654 H       1  UNL11       0.0329
     35 H          -0.1458   -1.6330   -3.6319 H       1  UNL11       0.0329
     36 H          -1.7020   -3.8746   -4.2477 H       1  UNL11       0.0621
     37 H          -3.5970   -5.0917   -3.3272 H       1  UNL11       0.0618
     38 H          -3.9386   -5.0874   -0.8625 H       1  UNL11       0.0618
     39 H          -2.3320   -3.8374    0.5933 H       1  UNL11       0.0646
     40 H           1.8837    0.4431    2.3857 H       1  UNL11       0.0624
     41 H           3.0462    2.3669    3.2467 H       1  UNL11       0.0618
     42 H           5.1675    3.1561    2.1634 H       1  UNL11       0.0618
     43 H           6.0614    1.9266    0.1830 H       1  UNL11       0.0627
@<TRIPOS>BOND
     1     1     2    1
     2     1    26    1
     3     1    27    1
     4     1    28    1
     5     2     3    1
     6     3     4    2
     7     4     5    1
     8     4    18    1
     9     5     6    1
    10     5    29    1
    11     5    30    1
    12     6     7    2
    13     6     8   am
    14     8     9    1
    15     8    31    1
    16     9    10    1
    17     9    32    1
    18     9    33    1
    19    10    11    1
    20    10    34    1
    21    10    35    1
    22    11    12   ar
    23    12    13   ar
    24    12    36    1
    25    13    14   ar
    26    13    37    1
    27    14    15   ar
    28    14    38    1
    29    15    16   ar
    30    15    39    1
    31    16    17    1
    32    16    11   ar
    33    18    19   ar
    34    19    20   ar
    35    19    40    1
    36    20    21   ar
    37    20    41    1
    38    21    22   ar
    39    21    42    1
    40    22    23   ar
    41    22    43    1
    42    23    24    1
    43    23    18   ar
    44    24    25    2
    45    24     2   am
@<TRIPOS>MOLECULE
*****
 43 45 0 0 0
SMALL
GASTEIGER

@<TRIPOS>ATOM
      1 C           4.7291   -2.0116   -2.4946 C.3     1  UNL11       0.1632
      2 N           4.2705   -1.2416   -1.3432 N.am    1  UNL11      -0.0228
      3 N           3.1490   -1.6414   -0.7530 N.2     1  UNL11      -0.0054
      4 C           2.6281   -1.0158    0.3127 C.2     1  UNL11       0.1237
      5 C           1.3766   -1.4729    0.9643 C.3     1  UNL11       0.0725
      6 C           0.2387   -0.7604    0.3004 C.2     1  UNL11       0.2191
      7 O          -0.5466   -0.0081    0.9333 O.2     1  UNL11      -0.2754
      8 N           0.0437   -0.9455   -1.0991 N.am    1  UNL11      -0.3147
      9 C          -1.0611   -0.2516   -1.7410 C.3     1  UNL11       0.0157
     10 C          -2.1692   -0.0780   -0.7038 C.3     1  UNL11      -0.0093
     11 C          -2.5443   -1.4385   -0.2570 C.ar    1  UNL11      -0.0107
     12 C          -1.9064   -2.5271   -0.7875 C.ar    1  UNL11      -0.0558
     13 C          -2.2243   -3.8244   -0.3991 C.ar    1  UNL11      -0.0613
     14 C          -3.2153   -3.9789    0.5495 C.ar    1  UNL11      -0.0590
     15 C          -3.8569   -2.8854    1.0832 C.ar    1  UNL11      -0.0262
     16 C          -3.5240   -1.6027    0.6814 C.ar    1  UNL11       0.1266
     17 F          -4.1270   -0.4952    1.1776 F       1  UNL11      -0.2052
     18 C           3.2794    0.0871    0.8195 C.ar    1  UNL11       0.0194
     19 C           2.7999    0.7723    1.9069 C.ar    1  UNL11      -0.0518
     20 C           3.4687    1.8760    2.3990 C.ar    1  UNL11      -0.0611
     21 C           4.6252    2.2778    1.7802 C.ar    1  UNL11      -0.0608
     22 C           5.1471    1.6192    0.6817 C.ar    1  UNL11      -0.0441
     23 C           4.4454    0.5213    0.2238 C.ar    1  UNL11       0.1005
     24 C           4.9189   -0.1737   -0.8680 C.2     1  UNL11       0.4400
     25 O           5.9798    0.1974   -1.4333 O.2     1  UNL11      -0.2116
     26 H           3.9282   -1.9675   -3.2488 H       1  UNL11       0.1011
     27 H           5.7143   -1.6918   -2.8459 H       1  UNL11       0.1011
     28 H           4.7520   -3.0778   -2.1428 H       1  UNL11       0.1011
     29 H           1.3660   -1.2929    2.0581 H       1  UNL11       0.0424
     30 H           1.2717   -2.5637    0.7245 H       1  UNL11       0.0424
     31 H           0.6937   -1.5774   -1.6562 H       1  UNL11       0.1487
     32 H          -0.7520    0.7793   -2.0814 H       1  UNL11       0.0465
     33 H          -1.4506   -0.7865   -2.6076 H       1  UNL11       0.0465
     34 H          -3.0238    0.3989   -1.2292 H       1  UNL11       0.0329
     35 H          -1.7591    0.5390    0.1134 H       1  UNL11       0.0329
     36 H          -1.1342   -2.4057   -1.5272 H       1  UNL11       0.0621
     37 H          -1.7022   -4.6684   -0.8367 H       1  UNL11       0.0618
     38 H          -3.4834   -4.9865    0.8714 H       1  UNL11       0.0618
     39 H          -4.6354   -2.9804    1.8262 H       1  UNL11       0.0646
     40 H           1.8837    0.4431    2.3857 H       1  UNL11       0.0624
     41 H           3.0462    2.3669    3.2467 H       1  UNL11       0.0618
     42 H           5.1675    3.1561    2.1634 H       1  UNL11       0.0618
     43 H           6.0614    1.9266    0.1830 H       1  UNL11       0.0627
@<TRIPOS>BOND
     1     1     2    1
     2     1    26    1
     3     1    27    1
     4     1    28    1
     5     2     3    1
     6     3     4    2
     7     4     5    1
     8     4    18    1
     9     5     6    1
    10     5    29    1
    11     5    30    1
    12     6     7    2
    13     6     8   am
    14     8     9    1
    15     8    31    1
    16     9    10    1
    17     9    32    1
    18     9    33    1
    19    10    11    1
    20    10    34    1
    21    10    35    1
    22    11    12   ar
    23    12    13   ar
    24    12    36    1
    25    13    14   ar
    26    13    37    1
    27    14    15   ar
    28    14    38    1
    29    15    16   ar
    30    15    39    1
    31    16    17    1
    32    16    11   ar
    33    18    19   ar
    34    19    20   ar
    35    19    40    1
    36    20    21   ar
    37    20    41    1
    38    21    22   ar
    39    21    42    1
    40    22    23   ar
    41    22    43    1
    42    23    24    1
    43    23    18   ar
    44    24    25    2
    45    24     2   am
@<TRIPOS>MOLECULE
*****
 43 45 0 0 0
SMALL
GASTEIGER

@<TRIPOS>ATOM
      1 C           3.6042    1.2731   -2.3509 C.3     1  UNL11       0.1632
      2 N           3.7436    0.2950   -1.2772 N.am    1  UNL11      -0.0228
      3 N           2.6286   -0.1199   -0.6851 N.2     1  UNL11      -0.0054
      4 C           2.6281   -1.0158    0.3127 C.2     1  UNL11       0.1237
      5 C           1.3766   -1.4729    0.9643 C.3     1  UNL11       0.0725
      6 C           0.2387   -0.7604    0.3004 C.2     1  UNL11       0.2191
      7 O           0.3628    0.3865   -0.2021 O.2     1  UNL11      -0.2754
      8 N          -1.0280   -1.4104    0.2389 N.am    1  UNL11      -0.3147
      9 C          -2.1305   -0.7167   -0.4072 C.3     1  UNL11       0.0157
     10 C          -1.6113    0.6359   -0.8917 C.3     1  UNL11      -0.0093
     11 C          -1.1223    1.3531    0.3074 C.ar    1  UNL11      -0.0107
     12 C          -0.6065    2.6145    0.1804 C.ar    1  UNL11      -0.0558
     13 C          -0.1349    3.3276    1.2777 C.ar    1  UNL11      -0.0613
     14 C          -0.2054    2.7139    2.5123 C.ar    1  UNL11      -0.0590
     15 C          -0.7237    1.4462    2.6409 C.ar    1  UNL11      -0.0262
     16 C          -1.1874    0.7548    1.5342 C.ar    1  UNL11       0.1266
     17 F          -1.7060   -0.4948    1.6102 F       1  UNL11      -0.2052
     18 C           3.8310   -1.5296    0.7447 C.ar    1  UNL11       0.0194
     19 C           3.9002   -2.4488    1.7606 C.ar    1  UNL11      -0.0518
     20 C           5.1170   -2.9513    2.1785 C.ar    1  UNL11      -0.0611
     21 C           6.2601   -2.5143    1.5587 C.ar    1  UNL11      -0.0608
     22 C           6.2404   -1.5894    0.5306 C.ar    1  UNL11      -0.0441
     23 C           5.0021   -1.1142    0.1456 C.ar    1  UNL11       0.1005
     24 C           4.9219   -0.1904   -0.8739 C.2     1  UNL11       0.4400
     25 O           5.9722    0.2083   -1.4404 O.2     1  UNL11      -0.2116
     26 H           3.1152    2.1585   -1.9160 H       1  UNL11       0.1011
     27 H           4.5508    1.4710   -2.8618 H       1  UNL11       0.1011
     28 H           2.8503    0.8289   -3.0548 H       1  UNL11       0.1011
     29 H           1.3660   -1.2929    2.0581 H       1  UNL11       0.0424
     30 H           1.2717   -2.5637    0.7245 H       1  UNL11       0.0424
     31 H          -1.1587   -2.3799    0.6574 H       1  UNL11       0.1487
     32 H          -2.4936   -1.2838   -1.3131 H       1  UNL11       0.0465
     33 H          -2.9827   -0.5660    0.2561 H       1  UNL11       0.0465
     34 H          -2.4810    1.1723   -1.3273 H       1  UNL11       0.0329
     35 H          -0.8099    0.4362   -1.6229 H       1  UNL11       0.0329
     36 H          -0.5516    3.0920   -0.7826 H       1  UNL11       0.0621
     37 H           0.2689    4.3258    1.1472 H       1  UNL11       0.0618
     38 H           0.1580    3.2522    3.3892 H       1  UNL11       0.0618
     39 H          -0.7892    0.9450    3.5956 H       1  UNL11       0.0646
     40 H           2.9877   -2.7847    2.2418 H       1  UNL11       0.0624
     41 H           5.1061   -3.6630    2.9731 H       1  UNL11       0.0618
     42 H           7.2361   -2.9077    1.8828 H       1  UNL11       0.0618
     43 H           7.1375   -1.2356    0.0315 H       1  UNL11       0.0627
@<TRIPOS>BOND
     1     1     2    1
     2     1    26    1
     3     1    27    1
     4     1    28    1
     5     2     3    1
     6     3     4    2
     7     4     5    1
     8     4    18    1
     9     5     6    1
    10     5    29    1
    11     5    30    1
    12     6     7    2
    13     6     8   am
    14     8     9    1
    15     8    31    1
    16     9    10    1
    17     9    32    1
    18     9    33    1
    19    10    11    1
    20    10    34    1
    21    10    35    1
    22    11    12   ar
    23    12    13   ar
    24    12    36    1
    25    13    14   ar
    26    13    37    1
    27    14    15   ar
    28    14    38    1
    29    15    16   ar
    30    15    39    1
    31    16    17    1
    32    16    11   ar
    33    18    19   ar
    34    19    20   ar
    35    19    40    1
    36    20    21   ar
    37    20    41    1
    38    21    22   ar
    39    21    42    1
    40    22    23   ar
    41    22    43    1
    42    23    24    1
    43    23    18   ar
    44    24    25    2
    45    24     2   am
@<TRIPOS>MOLECULE
*****
 43 45 0 0 0
SMALL
GASTEIGER

@<TRIPOS>ATOM
      1 C           4.0824   -1.0037   -3.0297 C.3     1  UNL11       0.1632
      2 N           3.9678   -0.7703   -1.5940 N.am    1  UNL11      -0.0228
      3 N           2.8495   -1.1742   -1.0004 N.2     1  UNL11      -0.0054
      4 C           2.6281   -1.0158    0.3127 C.2     1  UNL11       0.1237
      5 C           1.3766   -1.4729    0.9643 C.3     1  UNL11       0.0725
      6 C           0.2387   -0.7604    0.3004 C.2     1  UNL11       0.2191
      7 O          -0.1970    0.3454    0.7134 O.2     1  UNL11      -0.2754
      8 N          -0.3683   -1.3621   -0.8399 N.am    1  UNL11      -0.3147
      9 C           0.1361   -2.6480   -1.2940 C.3     1  UNL11       0.0157
     10 C          -1.0265   -3.4069   -1.9314 C.3     1  UNL11      -0.0093
     11 C          -0.4871   -4.7148   -2.3668 C.ar    1  UNL11      -0.0107
     12 C           0.8322   -5.0101   -2.1529 C.ar    1  UNL11      -0.0558
     13 C           1.3842   -6.2254   -2.5442 C.ar    1  UNL11      -0.0613
     14 C           0.5480   -7.1336   -3.1621 C.ar    1  UNL11      -0.0590
     15 C          -0.7780   -6.8377   -3.3775 C.ar    1  UNL11      -0.0262
     16 C          -1.3061   -5.6210   -2.9794 C.ar    1  UNL11       0.1266
     17 F          -2.6048   -5.2838   -3.1696 F       1  UNL11      -0.2052
     18 C           3.5973   -0.4098    1.0815 C.ar    1  UNL11       0.0194
     19 C           3.4335   -0.2172    2.4297 C.ar    1  UNL11      -0.0518
     20 C           4.4181    0.3929    3.1821 C.ar    1  UNL11      -0.0611
     21 C           5.5674    0.8049    2.5566 C.ar    1  UNL11      -0.0608
     22 C           5.7777    0.6325    1.2006 C.ar    1  UNL11      -0.0441
     23 C           4.7667    0.0181    0.4879 C.ar    1  UNL11       0.1005
     24 C           4.9216   -0.1798   -0.8671 C.2     1  UNL11       0.4400
     25 O           5.9768    0.1992   -1.4378 O.2     1  UNL11      -0.2116
     26 H           3.2463   -0.4707   -3.5084 H       1  UNL11       0.1011
     27 H           5.0741   -0.7522   -3.4164 H       1  UNL11       0.1011
     28 H           3.8602   -2.0958   -3.1669 H       1  UNL11       0.1011
     29 H           1.3660   -1.2929    2.0581 H       1  UNL11       0.0424
     30 H           1.2717   -2.5637    0.7245 H       1  UNL11       0.0424
     31 H          -1.1709   -0.8778   -1.3435 H       1  UNL11       0.1487
     32 H           0.9297   -2.5176   -2.0861 H       1  UNL11       0.0465
     33 H           0.5643   -3.2436   -0.4873 H       1  UNL11       0.0465
     34 H          -1.3461   -2.8142   -2.8148 H       1  UNL11       0.0329
     35 H          -1.8126   -3.5062   -1.1640 H       1  UNL11       0.0329
     36 H           1.4834   -4.3013   -1.6714 H       1  UNL11       0.0621
     37 H           2.4333   -6.4321   -2.3619 H       1  UNL11       0.0618
     38 H           0.9566   -8.0946   -3.4787 H       1  UNL11       0.0618
     39 H          -1.4519   -7.5313   -3.8590 H       1  UNL11       0.0646
     40 H           2.5189   -0.5479    2.9106 H       1  UNL11       0.0624
     41 H           4.2323    0.5146    4.2255 H       1  UNL11       0.0618
     42 H           6.3597    1.2923    3.1457 H       1  UNL11       0.0618
     43 H           6.6825    0.9536    0.6934 H       1  UNL11       0.0627
@<TRIPOS>BOND
     1     1     2    1
     2     1    26    1
     3     1    27    1
     4     1    28    1
     5     2     3    1
     6     3     4    2
     7     4     5    1
     8     4    18    1
     9     5     6    1
    10     5    29    1
    11     5    30    1
    12     6     7    2
    13     6     8   am
    14     8     9    1
    15     8    31    1
    16     9    10    1
    17     9    32    1
    18     9    33    1
    19    10    11    1
    20    10    34    1
    21    10    35    1
    22    11    12   ar
    23    12    13   ar
    24    12    36    1
    25    13    14   ar
    26    13    37    1
    27    14    15   ar
    28    14    38    1
    29    15    16   ar
    30    15    39    1
    31    16    17    1
    32    16    11   ar
    33    18    19   ar
    34    19    20   ar
    35    19    40    1
    36    20    21   ar
    37    20    41    1
    38    21    22   ar
    39    21    42    1
    40    22    23   ar
    41    22    43    1
    42    23    24    1
    43    23    18   ar
    44    24    25    2
    45    24     2   am
@<TRIPOS>MOLECULE
*****
 43 45 0 0 0
SMALL
GASTEIGER

@<TRIPOS>ATOM
      1 C           5.0984    1.6258    0.7664 C.3     1  UNL11       0.1632
      2 N           4.4423    0.4613    0.1814 N.am    1  UNL11      -0.0228
      3 N           3.3211    0.0421    0.7587 N.2     1  UNL11      -0.0054
      4 C           2.6281   -1.0158    0.3127 C.2     1  UNL11       0.1237
      5 C           1.3766   -1.4729    0.9643 C.3     1  UNL11       0.0725
      6 C           0.2387   -0.7604    0.3004 C.2     1  UNL11       0.2191
      7 O           0.2831   -0.3934   -0.9023 O.2     1  UNL11      -0.2754
      8 N          -0.9339   -0.4913    1.0641 N.am    1  UNL11      -0.3147
      9 C          -2.0374    0.1995    0.4165 C.3     1  UNL11       0.0157
     10 C          -3.1492    0.3747    1.4496 C.3     1  UNL11      -0.0093
     11 C          -4.2619    1.0633    0.7577 C.ar    1  UNL11      -0.0107
     12 C          -4.1348    1.4009   -0.5627 C.ar    1  UNL11      -0.0558
     13 C          -5.1528    2.0486   -1.2550 C.ar    1  UNL11      -0.0613
     14 C          -6.3079    2.3425   -0.5584 C.ar    1  UNL11      -0.0590
     15 C          -6.4365    2.0035    0.7685 C.ar    1  UNL11      -0.0262
     16 C          -5.4097    1.3590    1.4378 C.ar    1  UNL11       0.1266
     17 F          -5.4891    1.0051    2.7434 F       1  UNL11      -0.2052
     18 C           3.0943   -1.6988   -0.7890 C.ar    1  UNL11       0.0194
     19 C           2.4333   -2.7889   -1.2955 C.ar    1  UNL11      -0.0518
     20 C           2.9182   -3.4596   -2.4013 C.ar    1  UNL11      -0.0611
     21 C           4.0765   -3.0161   -2.9873 C.ar    1  UNL11      -0.0608
     22 C           4.7775   -1.9224   -2.5128 C.ar    1  UNL11      -0.0441
     23 C           4.2560   -1.2826   -1.4054 C.ar    1  UNL11       0.1005
     24 C           4.9127   -0.1867   -0.8889 C.2     1  UNL11       0.4400
     25 O           5.9748    0.2175   -1.4288 O.2     1  UNL11      -0.2116
     26 H           5.3436    1.3657    1.8078 H       1  UNL11       0.1011
     27 H           5.9426    1.9760    0.1656 H       1  UNL11       0.1011
     28 H           4.2973    2.4098    0.8333 H       1  UNL11       0.1011
     29 H           1.3660   -1.2929    2.0581 H       1  UNL11       0.0424
     30 H           1.2717   -2.5637    0.7245 H       1  UNL11       0.0424
     31 H          -0.9955   -0.7906    2.0833 H       1  UNL11       0.1487
     32 H          -1.7283    1.2298    0.0743 H       1  UNL11       0.0465
     33 H          -2.4234   -0.3382   -0.4498 H       1  UNL11       0.0465
     34 H          -2.7386    1.0255    2.2506 H       1  UNL11       0.0329
     35 H          -3.4281   -0.6319    1.8042 H       1  UNL11       0.0329
     36 H          -3.2338    1.1717   -1.1048 H       1  UNL11       0.0621
     37 H          -5.0242    2.3043   -2.3012 H       1  UNL11       0.0618
     38 H          -7.1216    2.8503   -1.0788 H       1  UNL11       0.0618
     39 H          -7.3299    2.2229    1.3349 H       1  UNL11       0.0646
     40 H           1.5186   -3.1284   -0.8211 H       1  UNL11       0.0624
     41 H           2.3600   -4.3000   -2.7480 H       1  UNL11       0.0618
     42 H           4.4730   -3.5423   -3.8695 H       1  UNL11       0.0618
     43 H           5.6949   -1.5610   -2.9674 H       1  UNL11       0.0627
@<TRIPOS>BOND
     1     1     2    1
     2     1    26    1
     3     1    27    1
     4     1    28    1
     5     2     3    1
     6     3     4    2
     7     4     5    1
     8     4    18    1
     9     5     6    1
    10     5    29    1
    11     5    30    1
    12     6     7    2
    13     6     8   am
    14     8     9    1
    15     8    31    1
    16     9    10    1
    17     9    32    1
    18     9    33    1
    19    10    11    1
    20    10    34    1
    21    10    35    1
    22    11    12   ar
    23    12    13   ar
    24    12    36    1
    25    13    14   ar
    26    13    37    1
    27    14    15   ar
    28    14    38    1
    29    15    16   ar
    30    15    39    1
    31    16    17    1
    32    16    11   ar
    33    18    19   ar
    34    19    20   ar
    35    19    40    1
    36    20    21   ar
    37    20    41    1
    38    21    22   ar
    39    21    42    1
    40    22    23   ar
    41    22    43    1
    42    23    24    1
    43    23    18   ar
    44    24    25    2
    45    24     2   am
@<TRIPOS>MOLECULE
*****
 43 45 0 0 0
SMALL
GASTEIGER

@<TRIPOS>ATOM
      1 C           5.0984    1.6258    0.7664 C.3     1  UNL11       0.1632
      2 N           4.4423    0.4613    0.1814 N.am    1  UNL11      -0.0228
      3 N           3.3211    0.0421    0.7587 N.2     1  UNL11      -0.0054
      4 C           2.6281   -1.0158    0.3127 C.2     1  UNL11       0.1237
      5 C           1.3766   -1.4729    0.9643 C.3     1  UNL11       0.0725
      6 C           0.2387   -0.7604    0.3004 C.2     1  UNL11       0.2191
      7 O          -0.1970    0.3454    0.7134 O.2     1  UNL11      -0.2754
      8 N          -0.3683   -1.3621   -0.8399 N.am    1  UNL11      -0.3147
      9 C           0.1361   -2.6480   -1.2940 C.3     1  UNL11       0.0157
     10 C           1.2760   -3.0576   -0.3630 C.3     1  UNL11      -0.0093
     11 C           0.6940   -3.1630    0.9939 C.ar    1  UNL11      -0.0107
     12 C          -0.3122   -4.0597    1.2330 C.ar    1  UNL11      -0.0558
     13 C          -0.8901   -4.1947    2.4910 C.ar    1  UNL11      -0.0613
     14 C          -0.4099   -3.3856    3.5012 C.ar    1  UNL11      -0.0590
     15 C           0.6013   -2.4842    3.2618 C.ar    1  UNL11      -0.0262
     16 C           1.1620   -2.3668    2.0010 C.ar    1  UNL11       0.1266
     17 F           2.1590   -1.4944    1.7163 F       1  UNL11      -0.2052
     18 C           3.0943   -1.6988   -0.7890 C.ar    1  UNL11       0.0194
     19 C           2.4333   -2.7889   -1.2955 C.ar    1  UNL11      -0.0518
     20 C           2.9182   -3.4596   -2.4013 C.ar    1  UNL11      -0.0611
     21 C           4.0765   -3.0161   -2.9873 C.ar    1  UNL11      -0.0608
     22 C           4.7775   -1.9224   -2.5128 C.ar    1  UNL11      -0.0441
     23 C           4.2560   -1.2826   -1.4054 C.ar    1  UNL11       0.1005
     24 C           4.9127   -0.1867   -0.8889 C.2     1  UNL11       0.4400
     25 O           5.9748    0.2175   -1.4288 O.2     1  UNL11      -0.2116
     26 H           5.3436    1.3657    1.8078 H       1  UNL11       0.1011
     27 H           5.9426    1.9760    0.1656 H       1  UNL11       0.1011
     28 H           4.2973    2.4098    0.8333 H       1  UNL11       0.1011
     29 H           1.3660   -1.2929    2.0581 H       1  UNL11       0.0424
     30 H           1.2717   -2.5637    0.7245 H       1  UNL11       0.0424
     31 H          -1.1709   -0.8778   -1.3435 H       1  UNL11       0.1487
     32 H          -0.6600   -3.4453   -1.2250 H       1  UNL11       0.0465
     33 H           0.4947   -2.6224   -2.3234 H       1  UNL11       0.0465
     34 H           2.0221   -2.2352   -0.3939 H       1  UNL11       0.0329
     35 H           1.6702   -4.0196   -0.7316 H       1  UNL11       0.0329
     36 H          -0.6862   -4.6899    0.4448 H       1  UNL11       0.0621
     37 H          -1.6863   -4.9137    2.6514 H       1  UNL11       0.0618
     38 H          -0.8464   -3.4721    4.4975 H       1  UNL11       0.0618
     39 H           0.9937   -1.8402    4.0353 H       1  UNL11       0.0646
     40 H           1.5186   -3.1284   -0.8211 H       1  UNL11       0.0624
     41 H           2.3600   -4.3000   -2.7480 H       1  UNL11       0.0618
     42 H           4.4730   -3.5423   -3.8695 H       1  UNL11       0.0618
     43 H           5.6949   -1.5610   -2.9674 H       1  UNL11       0.0627
@<TRIPOS>BOND
     1     1     2    1
     2     1    26    1
     3     1    27    1
     4     1    28    1
     5     2     3    1
     6     3     4    2
     7     4     5    1
     8     4    18    1
     9     5     6    1
    10     5    29    1
    11     5    30    1
    12     6     7    2
    13     6     8   am
    14     8     9    1
    15     8    31    1
    16     9    10    1
    17     9    32    1
    18     9    33    1
    19    10    11    1
    20    10    34    1
    21    10    35    1
    22    11    12   ar
    23    12    13   ar
    24    12    36    1
    25    13    14   ar
    26    13    37    1
    27    14    15   ar
    28    14    38    1
    29    15    16   ar
    30    15    39    1
    31    16    17    1
    32    16    11   ar
    33    18    19   ar
    34    19    20   ar
    35    19    40    1
    36    20    21   ar
    37    20    41    1
    38    21    22   ar
    39    21    42    1
    40    22    23   ar
    41    22    43    1
    42    23    24    1
    43    23    18   ar
    44    24    25    2
    45    24     2   am
@<TRIPOS>MOLECULE
*****
 43 45 0 0 0
SMALL
GASTEIGER

@<TRIPOS>ATOM
      1 C           4.7291   -2.0116   -2.4946 C.3     1  UNL11       0.1632
      2 N           4.2705   -1.2416   -1.3432 N.am    1  UNL11      -0.0228
      3 N           3.1490   -1.6414   -0.7530 N.2     1  UNL11      -0.0054
      4 C           2.6281   -1.0158    0.3127 C.2     1  UNL11       0.1237
      5 C           1.3766   -1.4729    0.9643 C.3     1  UNL11       0.0725
      6 C           0.2387   -0.7604    0.3004 C.2     1  UNL11       0.2191
      7 O           0.3628    0.3865   -0.2021 O.2     1  UNL11      -0.2754
      8 N          -1.0280   -1.4104    0.2389 N.am    1  UNL11      -0.3147
      9 C          -1.1587   -2.7283    0.8392 C.3     1  UNL11       0.0157
     10 C          -0.1639   -3.6577    0.1461 C.3     1  UNL11      -0.0093
     11 C          -0.5186   -3.6576   -1.2910 C.ar    1  UNL11      -0.0107
     12 C           0.4584   -3.8443   -2.2312 C.ar    1  UNL11      -0.0558
     13 C           0.1737   -3.8522   -3.5927 C.ar    1  UNL11      -0.0613
     14 C          -1.1414   -3.6634   -3.9680 C.ar    1  UNL11      -0.0590
     15 C          -2.1240   -3.4758   -3.0238 C.ar    1  UNL11      -0.0262
     16 C          -1.8173   -3.4717   -1.6734 C.ar    1  UNL11       0.1266
     17 F          -2.7495   -3.2909   -0.7066 F       1  UNL11      -0.2052
     18 C           3.2794    0.0871    0.8195 C.ar    1  UNL11       0.0194
     19 C           2.7999    0.7723    1.9069 C.ar    1  UNL11      -0.0518
     20 C           3.4687    1.8760    2.3990 C.ar    1  UNL11      -0.0611
     21 C           4.6252    2.2778    1.7802 C.ar    1  UNL11      -0.0608
     22 C           5.1471    1.6192    0.6817 C.ar    1  UNL11      -0.0441
     23 C           4.4454    0.5213    0.2238 C.ar    1  UNL11       0.1005
     24 C           4.9189   -0.1737   -0.8680 C.2     1  UNL11       0.4400
     25 O           5.9798    0.1974   -1.4333 O.2     1  UNL11      -0.2116
     26 H           3.9282   -1.9675   -3.2488 H       1  UNL11       0.1011
     27 H           5.7143   -1.6918   -2.8459 H       1  UNL11       0.1011
     28 H           4.7520   -3.0778   -2.1428 H       1  UNL11       0.1011
     29 H           1.3660   -1.2929    2.0581 H       1  UNL11       0.0424
     30 H           1.2717   -2.5637    0.7245 H       1  UNL11       0.0424
     31 H          -1.8550   -0.9385   -0.2360 H       1  UNL11       0.1487
     32 H          -0.8922   -2.7047    1.9358 H       1  UNL11       0.0465
     33 H          -2.1658   -3.1364    0.7490 H       1  UNL11       0.0465
     34 H          -0.3217   -4.6694    0.5767 H       1  UNL11       0.0329
     35 H           0.8458   -3.2553    0.3341 H       1  UNL11       0.0329
     36 H           1.4834   -3.9910   -1.9377 H       1  UNL11       0.0621
     37 H           0.9684   -4.0022   -4.3155 H       1  UNL11       0.0618
     38 H          -1.3911   -3.6654   -5.0303 H       1  UNL11       0.0618
     39 H          -3.1595   -3.3258   -3.2924 H       1  UNL11       0.0646
     40 H           1.8837    0.4431    2.3857 H       1  UNL11       0.0624
     41 H           3.0462    2.3669    3.2467 H       1  UNL11       0.0618
     42 H           5.1675    3.1561    2.1634 H       1  UNL11       0.0618
     43 H           6.0614    1.9266    0.1830 H       1  UNL11       0.0627
@<TRIPOS>BOND
     1     1     2    1
     2     1    26    1
     3     1    27    1
     4     1    28    1
     5     2     3    1
     6     3     4    2
     7     4     5    1
     8     4    18    1
     9     5     6    1
    10     5    29    1
    11     5    30    1
    12     6     7    2
    13     6     8   am
    14     8     9    1
    15     8    31    1
    16     9    10    1
    17     9    32    1
    18     9    33    1
    19    10    11    1
    20    10    34    1
    21    10    35    1
    22    11    12   ar
    23    12    13   ar
    24    12    36    1
    25    13    14   ar
    26    13    37    1
    27    14    15   ar
    28    14    38    1
    29    15    16   ar
    30    15    39    1
    31    16    17    1
    32    16    11   ar
    33    18    19   ar
    34    19    20   ar
    35    19    40    1
    36    20    21   ar
    37    20    41    1
    38    21    22   ar
    39    21    42    1
    40    22    23   ar
    41    22    43    1
    42    23    24    1
    43    23    18   ar
    44    24    25    2
    45    24     2   am
@<TRIPOS>MOLECULE
*****
 43 45 0 0 0
SMALL
GASTEIGER

@<TRIPOS>ATOM
      1 C           5.0984    1.6258    0.7664 C.3     1  UNL11       0.1632
      2 N           4.4423    0.4613    0.1814 N.am    1  UNL11      -0.0228
      3 N           3.3211    0.0421    0.7587 N.2     1  UNL11      -0.0054
      4 C           2.6281   -1.0158    0.3127 C.2     1  UNL11       0.1237
      5 C           1.3766   -1.4729    0.9643 C.3     1  UNL11       0.0725
      6 C           0.2387   -0.7604    0.3004 C.2     1  UNL11       0.2191
      7 O          -0.1970    0.3454    0.7134 O.2     1  UNL11      -0.2754
      8 N          -0.3683   -1.3621   -0.8399 N.am    1  UNL11      -0.3147
      9 C          -1.4720   -0.6675   -1.4830 C.3     1  UNL11       0.0157
     10 C          -0.9537    0.6857   -1.9667 C.3     1  UNL11      -0.0093
     11 C           0.1309    0.4000   -2.9328 C.ar    1  UNL11      -0.0107
     12 C          -0.1425   -0.3130   -4.0688 C.ar    1  UNL11      -0.0558
     13 C           0.8433   -0.6059   -5.0054 C.ar    1  UNL11      -0.0613
     14 C           2.1202   -0.1485   -4.7483 C.ar    1  UNL11      -0.0590
     15 C           2.3958    0.5682   -3.6070 C.ar    1  UNL11      -0.0262
     16 C           1.3984    0.8481   -2.6880 C.ar    1  UNL11       0.1266
     17 F           1.6206    1.5497   -1.5502 F       1  UNL11      -0.2052
     18 C           3.0943   -1.6988   -0.7890 C.ar    1  UNL11       0.0194
     19 C           2.4333   -2.7889   -1.2955 C.ar    1  UNL11      -0.0518
     20 C           2.9182   -3.4596   -2.4013 C.ar    1  UNL11      -0.0611
     21 C           4.0765   -3.0161   -2.9873 C.ar    1  UNL11      -0.0608
     22 C           4.7775   -1.9224   -2.5128 C.ar    1  UNL11      -0.0441
     23 C           4.2560   -1.2826   -1.4054 C.ar    1  UNL11       0.1005
     24 C           4.9127   -0.1867   -0.8889 C.2     1  UNL11       0.4400
     25 O           5.9748    0.2175   -1.4288 O.2     1  UNL11      -0.2116
     26 H           5.3436    1.3657    1.8078 H       1  UNL11       0.1011
     27 H           5.9426    1.9760    0.1656 H       1  UNL11       0.1011
     28 H           4.2973    2.4098    0.8333 H       1  UNL11       0.1011
     29 H           1.3660   -1.2929    2.0581 H       1  UNL11       0.0424
     30 H           1.2717   -2.5637    0.7245 H       1  UNL11       0.0424
     31 H          -0.0187   -2.2973   -1.2078 H       1  UNL11       0.1487
     32 H          -1.8370   -1.2334   -2.3889 H       1  UNL11       0.0465
     33 H          -2.3229   -0.5176   -0.8178 H       1  UNL11       0.0465
     34 H          -0.5419    1.2050   -1.0753 H       1  UNL11       0.0329
     35 H          -1.8038    1.2162   -2.4278 H       1  UNL11       0.0329
     36 H          -1.1382   -0.6695   -4.2682 H       1  UNL11       0.0621
     37 H           0.5978   -1.1732   -5.8967 H       1  UNL11       0.0618
     38 H           2.9117   -0.3650   -5.4676 H       1  UNL11       0.0618
     39 H           3.3865    0.9364   -3.3835 H       1  UNL11       0.0646
     40 H           1.5186   -3.1284   -0.8211 H       1  UNL11       0.0624
     41 H           2.3600   -4.3000   -2.7480 H       1  UNL11       0.0618
     42 H           4.4730   -3.5423   -3.8695 H       1  UNL11       0.0618
     43 H           5.6949   -1.5610   -2.9674 H       1  UNL11       0.0627
@<TRIPOS>BOND
     1     1     2    1
     2     1    26    1
     3     1    27    1
     4     1    28    1
     5     2     3    1
     6     3     4    2
     7     4     5    1
     8     4    18    1
     9     5     6    1
    10     5    29    1
    11     5    30    1
    12     6     7    2
    13     6     8   am
    14     8     9    1
    15     8    31    1
    16     9    10    1
    17     9    32    1
    18     9    33    1
    19    10    11    1
    20    10    34    1
    21    10    35    1
    22    11    12   ar
    23    12    13   ar
    24    12    36    1
    25    13    14   ar
    26    13    37    1
    27    14    15   ar
    28    14    38    1
    29    15    16   ar
    30    15    39    1
    31    16    17    1
    32    16    11   ar
    33    18    19   ar
    34    19    20   ar
    35    19    40    1
    36    20    21   ar
    37    20    41    1
    38    21    22   ar
    39    21    42    1
    40    22    23   ar
    41    22    43    1
    42    23    24    1
    43    23    18   ar
    44    24    25    2
    45    24     2   am
@<TRIPOS>MOLECULE
*****
 43 45 0 0 0
SMALL
GASTEIGER

@<TRIPOS>ATOM
      1 C           3.6833    0.1827   -2.9640 C.3     1  UNL11       0.1632
      2 N           3.7808   -0.2153   -1.5637 N.am    1  UNL11      -0.0228
      3 N           2.6649   -0.6247   -0.9695 N.2     1  UNL11      -0.0054
      4 C           2.6281   -1.0158    0.3127 C.2     1  UNL11       0.1237
      5 C           1.3766   -1.4729    0.9643 C.3     1  UNL11       0.0725
      6 C           0.2387   -0.7604    0.3004 C.2     1  UNL11       0.2191
      7 O          -0.8247   -0.4746    0.9092 O.2     1  UNL11      -0.2754
      8 N           0.3715   -0.3957   -1.0708 N.am    1  UNL11      -0.3147
      9 C          -0.7344    0.2969   -1.7123 C.3     1  UNL11       0.0157
     10 C          -1.2073   -0.5626   -2.8833 C.3     1  UNL11      -0.0093
     11 C          -0.0447   -0.7208   -3.7858 C.ar    1  UNL11      -0.0107
     12 C           1.1491   -0.1334   -3.4641 C.ar    1  UNL11      -0.0558
     13 C           2.2689   -0.2539   -4.2804 C.ar    1  UNL11      -0.0613
     14 C           2.1347   -0.9938   -5.4382 C.ar    1  UNL11      -0.0590
     15 C           0.9354   -1.5845   -5.7622 C.ar    1  UNL11      -0.0262
     16 C          -0.1666   -1.4510   -4.9344 C.ar    1  UNL11       0.1266
     17 F          -1.3681   -2.0136   -5.2105 F       1  UNL11      -0.2052
     18 C           3.7930   -0.9937    1.0477 C.ar    1  UNL11       0.0194
     19 C           3.8239   -1.3806    2.3634 C.ar    1  UNL11      -0.0518
     20 C           5.0029   -1.3506    3.0822 C.ar    1  UNL11      -0.0611
     21 C           6.1474   -0.9258    2.4565 C.ar    1  UNL11      -0.0608
     22 C           6.1655   -0.5263    1.1325 C.ar    1  UNL11      -0.0441
     23 C           4.9642   -0.5726    0.4528 C.ar    1  UNL11       0.1005
     24 C           4.9226   -0.1859   -0.8693 C.2     1  UNL11       0.4400
     25 O           5.9741    0.2032   -1.4403 O.2     1  UNL11      -0.2116
     26 H           2.9630    1.0141   -3.0112 H       1  UNL11       0.1011
     27 H           4.6606    0.3909   -3.4086 H       1  UNL11       0.1011
     28 H           3.1807   -0.6797   -3.4786 H       1  UNL11       0.1011
     29 H           1.3660   -1.2929    2.0581 H       1  UNL11       0.0424
     30 H           1.2717   -2.5637    0.7245 H       1  UNL11       0.0424
     31 H           1.2605   -0.6271   -1.6078 H       1  UNL11       0.1487
     32 H          -1.6065    0.4145   -1.0053 H       1  UNL11       0.0465
     33 H          -0.4606    1.2889   -2.0727 H       1  UNL11       0.0465
     34 H          -2.0099    0.0107   -3.3941 H       1  UNL11       0.0329
     35 H          -1.5540   -1.5229   -2.4657 H       1  UNL11       0.0329
     36 H           1.2527    0.4435   -2.5615 H       1  UNL11       0.0621
     37 H           3.2021    0.2227   -4.0003 H       1  UNL11       0.0618
     38 H           2.9985   -1.1036   -6.0957 H       1  UNL11       0.0618
     39 H           0.8054   -2.1677   -6.6622 H       1  UNL11       0.0646
     40 H           2.9106   -1.7137    2.8451 H       1  UNL11       0.0624
     41 H           4.9632   -1.6632    4.1014 H       1  UNL11       0.0618
     42 H           7.0936   -0.8977    3.0189 H       1  UNL11       0.0618
     43 H           7.0643   -0.1885    0.6255 H       1  UNL11       0.0627
@<TRIPOS>BOND
     1     1     2    1
     2     1    26    1
     3     1    27    1
     4     1    28    1
     5     2     3    1
     6     3     4    2
     7     4     5    1
     8     4    18    1
     9     5     6    1
    10     5    29    1
    11     5    30    1
    12     6     7    2
    13     6     8   am
    14     8     9    1
    15     8    31    1
    16     9    10    1
    17     9    32    1
    18     9    33    1
    19    10    11    1
    20    10    34    1
    21    10    35    1
    22    11    12   ar
    23    12    13   ar
    24    12    36    1
    25    13    14   ar
    26    13    37    1
    27    14    15   ar
    28    14    38    1
    29    15    16   ar
    30    15    39    1
    31    16    17    1
    32    16    11   ar
    33    18    19   ar
    34    19    20   ar
    35    19    40    1
    36    20    21   ar
    37    20    41    1
    38    21    22   ar
    39    21    42    1
    40    22    23   ar
    41    22    43    1
    42    23    24    1
    43    23    18   ar
    44    24    25    2
    45    24     2   am
@<TRIPOS>MOLECULE
*****
 43 45 0 0 0
SMALL
GASTEIGER

@<TRIPOS>ATOM
      1 C           5.3966   -2.4875   -1.5464 C.3     1  UNL11       0.1632
      2 N           4.5827   -1.4638   -0.8993 N.am    1  UNL11      -0.0228
      3 N           3.4582   -1.8623   -0.3141 N.2     1  UNL11      -0.0054
      4 C           2.6281   -1.0158    0.3127 C.2     1  UNL11       0.1237
      5 C           1.3766   -1.4729    0.9643 C.3     1  UNL11       0.0725
      6 C           0.2387   -0.7604    0.3004 C.2     1  UNL11       0.2191
      7 O          -0.3582   -1.2311   -0.7023 O.2     1  UNL11      -0.2754
      8 N          -0.1782    0.4959    0.8283 N.am    1  UNL11      -0.3147
      9 C           0.5330    1.0336    1.9768 C.3     1  UNL11       0.0157
     10 C           1.0575   -0.1451    2.7950 C.3     1  UNL11      -0.0093
     11 C           1.7596    0.4326    3.9631 C.ar    1  UNL11      -0.0107
     12 C           3.0972    0.7116    3.8811 C.ar    1  UNL11      -0.0558
     13 C           3.7996    1.2547    4.9519 C.ar    1  UNL11      -0.0613
     14 C           3.0952    1.5057    6.1123 C.ar    1  UNL11      -0.0590
     15 C           1.7510    1.2257    6.1955 C.ar    1  UNL11      -0.0262
     16 C           1.0719    0.6849    5.1166 C.ar    1  UNL11       0.1266
     17 F          -0.2508    0.3921    5.1501 F       1  UNL11      -0.2052
     18 C           2.9509    0.3228    0.3538 C.ar    1  UNL11       0.0194
     19 C           2.1453    1.2408    0.9783 C.ar    1  UNL11      -0.0518
     20 C           2.4877    2.5785    1.0077 C.ar    1  UNL11      -0.0611
     21 C           3.6513    2.9761    0.3996 C.ar    1  UNL11      -0.0608
     22 C           4.4951    2.0877   -0.2421 C.ar    1  UNL11      -0.0441
     23 C           4.1131    0.7605   -0.2467 C.ar    1  UNL11       0.1005
     24 C           4.9154   -0.1695   -0.8716 C.2     1  UNL11       0.4400
     25 O           5.9820    0.1983   -1.4284 O.2     1  UNL11      -0.2116
     26 H           4.7694   -2.9514   -2.3233 H       1  UNL11       0.1011
     27 H           6.3566   -2.0983   -1.8974 H       1  UNL11       0.1011
     28 H           5.5434   -3.2809   -0.7654 H       1  UNL11       0.1011
     29 H           1.3660   -1.2929    2.0581 H       1  UNL11       0.0424
     30 H           1.2717   -2.5637    0.7245 H       1  UNL11       0.0424
     31 H          -0.9910    1.0237    0.3889 H       1  UNL11       0.1487
     32 H           1.4254    1.6448    1.6538 H       1  UNL11       0.0465
     33 H          -0.0947    1.6658    2.6055 H       1  UNL11       0.0465
     34 H           1.7793   -0.6855    2.1464 H       1  UNL11       0.0329
     35 H           0.1861   -0.7568    3.0836 H       1  UNL11       0.0329
     36 H           3.6456    0.5152    2.9762 H       1  UNL11       0.0621
     37 H           4.8596    1.4653    4.8585 H       1  UNL11       0.0618
     38 H           3.6233    1.9317    6.9669 H       1  UNL11       0.0618
     39 H           1.1783    1.4128    7.0922 H       1  UNL11       0.0646
     40 H           1.2278    0.9116    1.4545 H       1  UNL11       0.0624
     41 H           1.8208    3.2439    1.5083 H       1  UNL11       0.0618
     42 H           3.9352    4.0398    0.4165 H       1  UNL11       0.0618
     43 H           5.4188    2.3891   -0.7268 H       1  UNL11       0.0627
@<TRIPOS>BOND
     1     1     2    1
     2     1    26    1
     3     1    27    1
     4     1    28    1
     5     2     3    1
     6     3     4    2
     7     4     5    1
     8     4    18    1
     9     5     6    1
    10     5    29    1
    11     5    30    1
    12     6     7    2
    13     6     8   am
    14     8     9    1
    15     8    31    1
    16     9    10    1
    17     9    32    1
    18     9    33    1
    19    10    11    1
    20    10    34    1
    21    10    35    1
    22    11    12   ar
    23    12    13   ar
    24    12    36    1
    25    13    14   ar
    26    13    37    1
    27    14    15   ar
    28    14    38    1
    29    15    16   ar
    30    15    39    1
    31    16    17    1
    32    16    11   ar
    33    18    19   ar
    34    19    20   ar
    35    19    40    1
    36    20    21   ar
    37    20    41    1
    38    21    22   ar
    39    21    42    1
    40    22    23   ar
    41    22    43    1
    42    23    24    1
    43    23    18   ar
    44    24    25    2
    45    24     2   am
@<TRIPOS>MOLECULE
*****
 43 45 0 0 0
SMALL
GASTEIGER

@<TRIPOS>ATOM
      1 C           6.2049   -1.6632    0.5844 C.3     1  UNL11       0.1632
      2 N           4.9605   -1.0773    0.0974 N.am    1  UNL11      -0.0228
      3 N           3.8330   -1.4814    0.6730 N.2     1  UNL11      -0.0054
      4 C           2.6281   -1.0158    0.3127 C.2     1  UNL11       0.1237
      5 C           1.3766   -1.4729    0.9643 C.3     1  UNL11       0.0725
      6 C           0.2387   -0.7604    0.3004 C.2     1  UNL11       0.2191
      7 O          -0.9062   -1.2713    0.1939 O.2     1  UNL11      -0.2754
      8 N           0.4676    0.5432   -0.2278 N.am    1  UNL11      -0.3147
      9 C           1.8006    1.1122   -0.1113 C.3     1  UNL11       0.0157
     10 C           1.6533    2.6294   -0.0102 C.3     1  UNL11      -0.0093
     11 C           3.0239    3.1796    0.0894 C.ar    1  UNL11      -0.0107
     12 C           3.7019    3.5227   -1.0490 C.ar    1  UNL11      -0.0558
     13 C           4.9911    4.0432   -1.0057 C.ar    1  UNL11      -0.0613
     14 C           5.5701    4.2040    0.2372 C.ar    1  UNL11      -0.0590
     15 C           4.8894    3.8596    1.3818 C.ar    1  UNL11      -0.0262
     16 C           3.6064    3.3429    1.3148 C.ar    1  UNL11       0.1266
     17 F           2.8961    2.9891    2.4132 F       1  UNL11      -0.2052
     18 C           2.5518   -0.0800   -0.6953 C.ar    1  UNL11       0.0194
     19 C           1.3510    0.4364   -1.1116 C.ar    1  UNL11      -0.0518
     20 C           1.2970    1.3740   -2.1243 C.ar    1  UNL11      -0.0611
     21 C           2.4685    1.7821   -2.7098 C.ar    1  UNL11      -0.0608
     22 C           3.7023    1.2903   -2.3242 C.ar    1  UNL11      -0.0441
     23 C           3.7086    0.3549   -1.3081 C.ar    1  UNL11       0.1005
     24 C           4.9098   -0.1700   -0.8828 C.2     1  UNL11       0.4400
     25 O           5.9825    0.2065   -1.4218 O.2     1  UNL11      -0.2116
     26 H           6.1292   -2.7506    0.4291 H       1  UNL11       0.1011
     27 H           7.0889   -1.1930    0.1441 H       1  UNL11       0.1011
     28 H           6.1811   -1.5163    1.6974 H       1  UNL11       0.1011
     29 H           1.3660   -1.2929    2.0581 H       1  UNL11       0.0424
     30 H           1.2717   -2.5637    0.7245 H       1  UNL11       0.0424
     31 H          -0.3214    1.0831   -0.6951 H       1  UNL11       0.1487
     32 H           2.3136    0.7587    0.8300 H       1  UNL11       0.0465
     33 H           2.4430    0.8618   -0.9559 H       1  UNL11       0.0465
     34 H           1.0931    2.8322    0.9273 H       1  UNL11       0.0329
     35 H           1.1249    2.9683   -0.9172 H       1  UNL11       0.0329
     36 H           3.2499    3.3966   -2.0175 H       1  UNL11       0.0621
     37 H           5.5046    4.3061   -1.9243 H       1  UNL11       0.0618
     38 H           6.5809    4.6106    0.2984 H       1  UNL11       0.0618
     39 H           5.3209    3.9758    2.3654 H       1  UNL11       0.0646
     40 H           0.4326    0.1036   -0.6395 H       1  UNL11       0.0624
     41 H           0.3339    1.7378   -2.4040 H       1  UNL11       0.0618
     42 H           2.4384    2.5292   -3.5181 H       1  UNL11       0.0618
     43 H           4.6366    1.6051   -2.7789 H       1  UNL11       0.0627
@<TRIPOS>BOND
     1     1     2    1
     2     1    26    1
     3     1    27    1
     4     1    28    1
     5     2     3    1
     6     3     4    2
     7     4     5    1
     8     4    18    1
     9     5     6    1
    10     5    29    1
    11     5    30    1
    12     6     7    2
    13     6     8   am
    14     8     9    1
    15     8    31    1
    16     9    10    1
    17     9    32    1
    18     9    33    1
    19    10    11    1
    20    10    34    1
    21    10    35    1
    22    11    12   ar
    23    12    13   ar
    24    12    36    1
    25    13    14   ar
    26    13    37    1
    27    14    15   ar
    28    14    38    1
    29    15    16   ar
    30    15    39    1
    31    16    17    1
    32    16    11   ar
    33    18    19   ar
    34    19    20   ar
    35    19    40    1
    36    20    21   ar
    37    20    41    1
    38    21    22   ar
    39    21    42    1
    40    22    23   ar
    41    22    43    1
    42    23    24    1
    43    23    18   ar
    44    24    25    2
    45    24     2   am
@<TRIPOS>MOLECULE
*****
 43 45 0 0 0
SMALL
GASTEIGER

@<TRIPOS>ATOM
      1 C           5.3966   -2.4875   -1.5464 C.3     1  UNL11       0.1632
      2 N           4.5827   -1.4638   -0.8993 N.am    1  UNL11      -0.0228
      3 N           3.4582   -1.8623   -0.3141 N.2     1  UNL11      -0.0054
      4 C           2.6281   -1.0158    0.3127 C.2     1  UNL11       0.1237
      5 C           1.3766   -1.4729    0.9643 C.3     1  UNL11       0.0725
      6 C           0.2387   -0.7604    0.3004 C.2     1  UNL11       0.2191
      7 O          -0.9585   -0.9321    0.6476 O.2     1  UNL11      -0.2754
      8 N           0.5291    0.1433   -0.7624 N.am    1  UNL11      -0.3147
      9 C           1.9162    0.3175   -1.1624 C.3     1  UNL11       0.0157
     10 C           2.0334   -0.0891   -2.6303 C.3     1  UNL11      -0.0093
     11 C           1.5987   -1.5017   -2.7118 C.ar    1  UNL11      -0.0107
     12 C           1.6118   -2.1473   -3.9187 C.ar    1  UNL11      -0.0558
     13 C           1.2126   -3.4738   -4.0448 C.ar    1  UNL11      -0.0613
     14 C           0.7984   -4.1244   -2.8998 C.ar    1  UNL11      -0.0590
     15 C           0.7850   -3.4764   -1.6865 C.ar    1  UNL11      -0.0262
     16 C           1.1868   -2.1551   -1.5845 C.ar    1  UNL11       0.1266
     17 F           1.1912   -1.4746   -0.4127 F       1  UNL11      -0.2052
     18 C           2.9509    0.3228    0.3538 C.ar    1  UNL11       0.0194
     19 C           2.1453    1.2408    0.9783 C.ar    1  UNL11      -0.0518
     20 C           2.4877    2.5785    1.0077 C.ar    1  UNL11      -0.0611
     21 C           3.6513    2.9761    0.3996 C.ar    1  UNL11      -0.0608
     22 C           4.4951    2.0877   -0.2421 C.ar    1  UNL11      -0.0441
     23 C           4.1131    0.7605   -0.2467 C.ar    1  UNL11       0.1005
     24 C           4.9154   -0.1695   -0.8716 C.2     1  UNL11       0.4400
     25 O           5.9820    0.1983   -1.4284 O.2     1  UNL11      -0.2116
     26 H           4.7694   -2.9514   -2.3233 H       1  UNL11       0.1011
     27 H           6.3566   -2.0983   -1.8974 H       1  UNL11       0.1011
     28 H           5.5434   -3.2809   -0.7654 H       1  UNL11       0.1011
     29 H           1.3660   -1.2929    2.0581 H       1  UNL11       0.0424
     30 H           1.2717   -2.5637    0.7245 H       1  UNL11       0.0424
     31 H          -0.2537    0.6756   -1.2483 H       1  UNL11       0.1487
     32 H           2.2298    1.3991   -1.0849 H       1  UNL11       0.0465
     33 H           2.6074   -0.2743   -0.5618 H       1  UNL11       0.0465
     34 H           3.1083   -0.0059   -2.8979 H       1  UNL11       0.0329
     35 H           1.3848    0.5887   -3.2106 H       1  UNL11       0.0329
     36 H           1.9345   -1.6392   -4.8108 H       1  UNL11       0.0621
     37 H           1.2332   -3.9600   -5.0142 H       1  UNL11       0.0618
     38 H           0.4803   -5.1657   -2.9719 H       1  UNL11       0.0618
     39 H           0.4651   -3.9637   -0.7770 H       1  UNL11       0.0646
     40 H           1.2278    0.9116    1.4545 H       1  UNL11       0.0624
     41 H           1.8208    3.2439    1.5083 H       1  UNL11       0.0618
     42 H           3.9352    4.0398    0.4165 H       1  UNL11       0.0618
     43 H           5.4188    2.3891   -0.7268 H       1  UNL11       0.0627
@<TRIPOS>BOND
     1     1     2    1
     2     1    26    1
     3     1    27    1
     4     1    28    1
     5     2     3    1
     6     3     4    2
     7     4     5    1
     8     4    18    1
     9     5     6    1
    10     5    29    1
    11     5    30    1
    12     6     7    2
    13     6     8   am
    14     8     9    1
    15     8    31    1
    16     9    10    1
    17     9    32    1
    18     9    33    1
    19    10    11    1
    20    10    34    1
    21    10    35    1
    22    11    12   ar
    23    12    13   ar
    24    12    36    1
    25    13    14   ar
    26    13    37    1
    27    14    15   ar
    28    14    38    1
    29    15    16   ar
    30    15    39    1
    31    16    17    1
    32    16    11   ar
    33    18    19   ar
    34    19    20   ar
    35    19    40    1
    36    20    21   ar
    37    20    41    1
    38    21    22   ar
    39    21    42    1
    40    22    23   ar
    41    22    43    1
    42    23    24    1
    43    23    18   ar
    44    24    25    2
    45    24     2   am
@<TRIPOS>MOLECULE
*****
 43 45 0 0 0
SMALL
GASTEIGER

@<TRIPOS>ATOM
      1 C           6.1222   -0.5221    1.2260 C.3     1  UNL11       0.1632
      2 N           4.9216   -0.5433    0.3972 N.am    1  UNL11      -0.0228
      3 N           3.7950   -0.9531    0.9706 N.2     1  UNL11      -0.0054
      4 C           2.6281   -1.0158    0.3127 C.2     1  UNL11       0.1237
      5 C           1.3766   -1.4729    0.9643 C.3     1  UNL11       0.0725
      6 C           0.2387   -0.7604    0.3004 C.2     1  UNL11       0.2191
      7 O          -0.6863   -1.3735   -0.2927 O.2     1  UNL11      -0.2754
      8 N           0.2084    0.6636    0.3456 N.am    1  UNL11      -0.3147
      9 C           1.2936    1.3572    1.0205 C.3     1  UNL11       0.0157
     10 C           0.8959    1.5334    2.4849 C.3     1  UNL11      -0.0093
     11 C           0.7090    0.1727    3.0369 C.ar    1  UNL11      -0.0107
     12 C           0.2983   -0.8423    2.2157 C.ar    1  UNL11      -0.0558
     13 C           0.1089   -2.1367    2.6885 C.ar    1  UNL11      -0.0613
     14 C           0.3518   -2.3659    4.0280 C.ar    1  UNL11      -0.0590
     15 C           0.7646   -1.3464    4.8541 C.ar    1  UNL11      -0.0262
     16 C           0.9466   -0.0650    4.3615 C.ar    1  UNL11       0.1266
     17 F           1.3516    0.9713    5.1350 F       1  UNL11      -0.2052
     18 C           2.5916   -0.6408   -1.0123 C.ar    1  UNL11       0.0194
     19 C           1.4309   -0.6815   -1.7424 C.ar    1  UNL11      -0.0518
     20 C           1.4164   -0.3011   -3.0700 C.ar    1  UNL11      -0.0611
     21 C           2.5864    0.1198   -3.6494 C.ar    1  UNL11      -0.0608
     22 C           3.7806    0.1778   -2.9541 C.ar    1  UNL11      -0.0441
     23 C           3.7483   -0.2119   -1.6295 C.ar    1  UNL11       0.1005
     24 C           4.9090   -0.1747   -0.8876 C.2     1  UNL11       0.4400
     25 O           5.9805    0.2119   -1.4219 O.2     1  UNL11      -0.2116
     26 H           6.2885   -1.5530    1.5752 H       1  UNL11       0.1011
     27 H           6.9740   -0.0627    0.7164 H       1  UNL11       0.1011
     28 H           5.8355    0.0624    2.1409 H       1  UNL11       0.1011
     29 H           1.3660   -1.2929    2.0581 H       1  UNL11       0.0424
     30 H           1.2717   -2.5637    0.7245 H       1  UNL11       0.0424
     31 H          -0.5914    1.2016   -0.1049 H       1  UNL11       0.1487
     32 H           2.2430    0.7469    0.9989 H       1  UNL11       0.0465
     33 H           1.5124    2.3305    0.5804 H       1  UNL11       0.0465
     34 H          -0.0705    2.0810    2.4877 H       1  UNL11       0.0329
     35 H           1.7121    2.0845    2.9818 H       1  UNL11       0.0329
     36 H           0.1089   -0.6627    1.1716 H       1  UNL11       0.0621
     37 H          -0.2174   -2.9215    2.0146 H       1  UNL11       0.0618
     38 H           0.2107   -3.3729    4.4238 H       1  UNL11       0.0618
     39 H           0.9607   -1.5005    5.9052 H       1  UNL11       0.0646
     40 H           0.5133   -1.0172   -1.2708 H       1  UNL11       0.0624
     41 H           0.4835   -0.3549   -3.5847 H       1  UNL11       0.0618
     42 H           2.5875    0.4259   -4.7071 H       1  UNL11       0.0618
     43 H           4.7132    0.5093   -3.4005 H       1  UNL11       0.0627
@<TRIPOS>BOND
     1     1     2    1
     2     1    26    1
     3     1    27    1
     4     1    28    1
     5     2     3    1
     6     3     4    2
     7     4     5    1
     8     4    18    1
     9     5     6    1
    10     5    29    1
    11     5    30    1
    12     6     7    2
    13     6     8   am
    14     8     9    1
    15     8    31    1
    16     9    10    1
    17     9    32    1
    18     9    33    1
    19    10    11    1
    20    10    34    1
    21    10    35    1
    22    11    12   ar
    23    12    13   ar
    24    12    36    1
    25    13    14   ar
    26    13    37    1
    27    14    15   ar
    28    14    38    1
    29    15    16   ar
    30    15    39    1
    31    16    17    1
    32    16    11   ar
    33    18    19   ar
    34    19    20   ar
    35    19    40    1
    36    20    21   ar
    37    20    41    1
    38    21    22   ar
    39    21    42    1
    40    22    23   ar
    41    22    43    1
    42    23    24    1
    43    23    18   ar
    44    24    25    2
    45    24     2   am
@<TRIPOS>MOLECULE
*****
 43 45 0 0 0
SMALL
GASTEIGER

@<TRIPOS>ATOM
      1 C           4.0824   -1.0037   -3.0297 C.3     1  UNL11       0.1632
      2 N           3.9678   -0.7703   -1.5940 N.am    1  UNL11      -0.0228
      3 N           2.8495   -1.1742   -1.0004 N.2     1  UNL11      -0.0054
      4 C           2.6281   -1.0158    0.3127 C.2     1  UNL11       0.1237
      5 C           1.3766   -1.4729    0.9643 C.3     1  UNL11       0.0725
      6 C           0.2387   -0.7604    0.3004 C.2     1  UNL11       0.2191
      7 O          -0.3582   -1.2311   -0.7023 O.2     1  UNL11      -0.2754
      8 N          -0.1782    0.4959    0.8283 N.am    1  UNL11      -0.3147
      9 C           0.5330    1.0336    1.9768 C.3     1  UNL11       0.0157
     10 C          -0.4741    1.2006    3.1134 C.3     1  UNL11      -0.0093
     11 C          -1.5192    2.1241    2.6174 C.ar    1  UNL11      -0.0107
     12 C          -2.5591    2.4745    3.4355 C.ar    1  UNL11      -0.0558
     13 C          -3.5643    3.3387    3.0140 C.ar    1  UNL11      -0.0613
     14 C          -3.4771    3.8365    1.7294 C.ar    1  UNL11      -0.0590
     15 C          -2.4323    3.4850    0.9065 C.ar    1  UNL11      -0.0262
     16 C          -1.4425    2.6227    1.3474 C.ar    1  UNL11       0.1266
     17 F          -0.3945    2.2472    0.5747 F       1  UNL11      -0.2052
     18 C           3.5973   -0.4098    1.0815 C.ar    1  UNL11       0.0194
     19 C           3.4335   -0.2172    2.4297 C.ar    1  UNL11      -0.0518
     20 C           4.4181    0.3929    3.1821 C.ar    1  UNL11      -0.0611
     21 C           5.5674    0.8049    2.5566 C.ar    1  UNL11      -0.0608
     22 C           5.7777    0.6325    1.2006 C.ar    1  UNL11      -0.0441
     23 C           4.7667    0.0181    0.4879 C.ar    1  UNL11       0.1005
     24 C           4.9216   -0.1798   -0.8671 C.2     1  UNL11       0.4400
     25 O           5.9768    0.1992   -1.4378 O.2     1  UNL11      -0.2116
     26 H           3.2463   -0.4707   -3.5084 H       1  UNL11       0.1011
     27 H           5.0741   -0.7522   -3.4164 H       1  UNL11       0.1011
     28 H           3.8602   -2.0958   -3.1669 H       1  UNL11       0.1011
     29 H           1.3660   -1.2929    2.0581 H       1  UNL11       0.0424
     30 H           1.2717   -2.5637    0.7245 H       1  UNL11       0.0424
     31 H          -0.9910    1.0237    0.3889 H       1  UNL11       0.1487
     32 H           1.3302    0.3186    2.3337 H       1  UNL11       0.0465
     33 H           1.0121    1.9906    1.7680 H       1  UNL11       0.0465
     34 H           0.0755    1.6669    3.9586 H       1  UNL11       0.0329
     35 H          -0.8704    0.1986    3.3494 H       1  UNL11       0.0329
     36 H          -2.6264    2.0855    4.4367 H       1  UNL11       0.0621
     37 H          -4.3767    3.5987    3.6841 H       1  UNL11       0.0618
     38 H          -4.2532    4.5166    1.3746 H       1  UNL11       0.0618
     39 H          -2.3422    3.8609   -0.1022 H       1  UNL11       0.0646
     40 H           2.5189   -0.5479    2.9106 H       1  UNL11       0.0624
     41 H           4.2323    0.5146    4.2255 H       1  UNL11       0.0618
     42 H           6.3597    1.2923    3.1457 H       1  UNL11       0.0618
     43 H           6.6825    0.9536    0.6934 H       1  UNL11       0.0627
@<TRIPOS>BOND
     1     1     2    1
     2     1    26    1
     3     1    27    1
     4     1    28    1
     5     2     3    1
     6     3     4    2
     7     4     5    1
     8     4    18    1
     9     5     6    1
    10     5    29    1
    11     5    30    1
    12     6     7    2
    13     6     8   am
    14     8     9    1
    15     8    31    1
    16     9    10    1
    17     9    32    1
    18     9    33    1
    19    10    11    1
    20    10    34    1
    21    10    35    1
    22    11    12   ar
    23    12    13   ar
    24    12    36    1
    25    13    14   ar
    26    13    37    1
    27    14    15   ar
    28    14    38    1
    29    15    16   ar
    30    15    39    1
    31    16    17    1
    32    16    11   ar
    33    18    19   ar
    34    19    20   ar
    35    19    40    1
    36    20    21   ar
    37    20    41    1
    38    21    22   ar
    39    21    42    1
    40    22    23   ar
    41    22    43    1
    42    23    24    1
    43    23    18   ar
    44    24    25    2
    45    24     2   am
