@<TRIPOS>MOLECULE
*****
 35 37 0 0 0
SMALL
GASTEIGER

@<TRIPOS>ATOM
      1 C          -2.8590   -0.0420   -3.6671 C.3     1  UNL11      -0.0221
      2 C          -2.4667   -0.0353   -2.2224 C.ar    1  UNL11       0.0457
      3 C          -1.1208   -0.0181   -1.8555 C.ar    1  UNL11       0.0215
      4 C          -0.6885   -0.0111   -0.5466 C.ar    1  UNL11       0.2241
      5 O           0.5292    0.0046   -0.0503 O.3     1  UNL11      -0.4379
      6 C           1.7929   -0.3182   -0.1763 C.ar    1  UNL11       0.1311
      7 C           2.8590    0.3868    0.3358 C.ar    1  UNL11      -0.0192
      8 C           4.1410   -0.0908    0.1132 C.ar    1  UNL11      -0.0576
      9 C           4.3853   -1.2416   -0.5999 C.ar    1  UNL11      -0.0494
     10 C           3.3359   -1.9666   -1.1236 C.ar    1  UNL11       0.0400
     11 C           3.6198   -3.1915   -1.8811 C.2     1  UNL11       0.2416
     12 N           2.6905   -4.2631   -1.8813 N.am    1  UNL11      -0.3253
     13 O           4.6751   -3.3169   -2.5361 O.2     1  UNL11      -0.2704
     14 C           2.0852   -1.4953   -0.9028 C.ar    1  UNL11      -0.0072
     15 N          -1.7184   -0.0228    0.3727 N.ar    1  UNL11      -0.1928
     16 C          -3.0059   -0.0391    0.0720 C.ar    1  UNL11       0.1643
     17 C          -4.0261   -0.0505    1.1135 C.2     1  UNL11       0.0274
     18 C          -5.2304    0.4709    1.0307 C.2     1  UNL11      -0.0429
     19 C          -5.9314    0.2364    2.3024 C.2     1  UNL11      -0.0188
     20 C          -5.0276   -0.3852    3.0421 C.1     1  UNL11      -0.1191
     21 C          -3.8997   -0.6391    2.4320 C.2     1  UNL11      -0.0088
     22 N          -3.3734   -0.0453   -1.2408 N.ar    1  UNL11      -0.2323
     23 H          -2.2597    0.7717   -4.1537 H       1  UNL11       0.0293
     24 H          -2.5988   -0.9942   -4.1546 H       1  UNL11       0.0293
     25 H          -3.9441    0.1899   -3.6993 H       1  UNL11       0.0293
     26 H          -0.3858   -0.0099   -2.6204 H       1  UNL11       0.0689
     27 H           2.7319    1.3050    0.9089 H       1  UNL11       0.0654
     28 H           4.9917    0.4598    0.5142 H       1  UNL11       0.0619
     29 H           5.4052   -1.5794   -0.7504 H       1  UNL11       0.0625
     30 H           2.1469   -4.5510   -2.7189 H       1  UNL11       0.1453
     31 H           2.5462   -4.7856   -1.0016 H       1  UNL11       0.1453
     32 H           1.2582   -2.0682   -1.3165 H       1  UNL11       0.0662
     33 H          -5.7065    0.9969    0.2133 H       1  UNL11       0.0631
     34 H          -6.9232    0.4879    2.5999 H       1  UNL11       0.0706
     35 H          -3.0633   -1.1803    2.8533 H       1  UNL11       0.0713
@<TRIPOS>BOND
     1     1     2    1
     2     1    23    1
     3     1    24    1
     4     1    25    1
     5     2     3   ar
     6     3     4   ar
     7     3    26    1
     8     4     5    1
     9     4    15   ar
    10     5     6    1
    11     6     7   ar
    12     7     8   ar
    13     7    27    1
    14     8     9   ar
    15     8    28    1
    16     9    10   ar
    17     9    29    1
    18    10    11    1
    19    10    14   ar
    20    11    12   am
    21    11    13    2
    22    12    30    1
    23    12    31    1
    24    14     6   ar
    25    14    32    1
    26    15    16   ar
    27    16    17    1
    28    16    22   ar
    29    17    18    2
    30    18    19    1
    31    18    33    1
    32    19    20    2
    33    19    34    1
    34    20    21    2
    35    21    17    1
    36    21    35    1
    37    22     2   ar
@<TRIPOS>MOLECULE
*****
 35 37 0 0 0
SMALL
GASTEIGER

@<TRIPOS>ATOM
      1 C          -2.8590   -0.0420   -3.6671 C.3     1  UNL11      -0.0221
      2 C          -2.4667   -0.0353   -2.2224 C.ar    1  UNL11       0.0457
      3 C          -1.1208   -0.0181   -1.8555 C.ar    1  UNL11       0.0215
      4 C          -0.6885   -0.0111   -0.5466 C.ar    1  UNL11       0.2241
      5 O           0.5292    0.0046   -0.0503 O.3     1  UNL11      -0.4379
      6 C           1.7849    0.3567   -0.1779 C.ar    1  UNL11       0.1311
      7 C           2.8672   -0.3185    0.3402 C.ar    1  UNL11      -0.0192
      8 C           4.1376    0.1879    0.1146 C.ar    1  UNL11      -0.0576
      9 C           4.3547    1.3387   -0.6072 C.ar    1  UNL11      -0.0494
     10 C           3.2886    2.0342   -1.1372 C.ar    1  UNL11       0.0400
     11 C           3.5437    3.2597   -1.9038 C.2     1  UNL11       0.2416
     12 N           4.6735    4.0650   -1.6087 N.am    1  UNL11      -0.3253
     13 O           2.7799    3.6178   -2.8241 O.2     1  UNL11      -0.2704
     14 C           2.0495    1.5347   -0.9135 C.ar    1  UNL11      -0.0072
     15 N          -1.7184   -0.0228    0.3727 N.ar    1  UNL11      -0.1928
     16 C          -3.0059   -0.0391    0.0720 C.ar    1  UNL11       0.1643
     17 C          -4.0261   -0.0505    1.1135 C.2     1  UNL11       0.0274
     18 C          -3.9201    0.4749    2.3143 C.2     1  UNL11      -0.0429
     19 C          -5.1763    0.2387    3.0420 C.2     1  UNL11      -0.0188
     20 C          -5.9037   -0.4567    2.1831 C.1     1  UNL11      -0.1191
     21 C          -5.3451   -0.6435    1.0162 C.2     1  UNL11      -0.0088
     22 N          -3.3734   -0.0453   -1.2408 N.ar    1  UNL11      -0.2323
     23 H          -2.2597    0.7717   -4.1537 H       1  UNL11       0.0293
     24 H          -2.5988   -0.9942   -4.1546 H       1  UNL11       0.0293
     25 H          -3.9441    0.1899   -3.6993 H       1  UNL11       0.0293
     26 H          -0.3858   -0.0099   -2.6204 H       1  UNL11       0.0689
     27 H           2.7617   -1.2350    0.9203 H       1  UNL11       0.0654
     28 H           5.0009   -0.3390    0.5205 H       1  UNL11       0.0619
     29 H           5.3663    1.6997   -0.7596 H       1  UNL11       0.0625
     30 H           5.4835    4.1745   -2.2505 H       1  UNL11       0.1453
     31 H           4.6923    4.5700   -0.7074 H       1  UNL11       0.1453
     32 H           1.2093    2.0844   -1.3322 H       1  UNL11       0.0662
     33 H          -3.0947    1.0047    2.7718 H       1  UNL11       0.0631
     34 H          -5.4723    0.5356    4.0217 H       1  UNL11       0.0706
     35 H          -5.8013   -1.1424    0.1718 H       1  UNL11       0.0713
@<TRIPOS>BOND
     1     1     2    1
     2     1    23    1
     3     1    24    1
     4     1    25    1
     5     2     3   ar
     6     3     4   ar
     7     3    26    1
     8     4     5    1
     9     4    15   ar
    10     5     6    1
    11     6     7   ar
    12     7     8   ar
    13     7    27    1
    14     8     9   ar
    15     8    28    1
    16     9    10   ar
    17     9    29    1
    18    10    11    1
    19    10    14   ar
    20    11    12   am
    21    11    13    2
    22    12    30    1
    23    12    31    1
    24    14     6   ar
    25    14    32    1
    26    15    16   ar
    27    16    17    1
    28    16    22   ar
    29    17    18    2
    30    18    19    1
    31    18    33    1
    32    19    20    2
    33    19    34    1
    34    20    21    2
    35    21    17    1
    36    21    35    1
    37    22     2   ar
@<TRIPOS>MOLECULE
*****
 35 37 0 0 0
SMALL
GASTEIGER

@<TRIPOS>ATOM
      1 C          -2.8590   -0.0420   -3.6671 C.3     1  UNL11      -0.0221
      2 C          -2.4667   -0.0353   -2.2224 C.ar    1  UNL11       0.0457
      3 C          -1.1208   -0.0181   -1.8555 C.ar    1  UNL11       0.0215
      4 C          -0.6885   -0.0111   -0.5466 C.ar    1  UNL11       0.2241
      5 O           0.5292    0.0046   -0.0503 O.3     1  UNL11      -0.4379
      6 C           1.7929   -0.3182   -0.1763 C.ar    1  UNL11       0.1311
      7 C           2.8590    0.3868    0.3358 C.ar    1  UNL11      -0.0192
      8 C           4.1410   -0.0908    0.1132 C.ar    1  UNL11      -0.0576
      9 C           4.3853   -1.2416   -0.5999 C.ar    1  UNL11      -0.0494
     10 C           3.3359   -1.9666   -1.1236 C.ar    1  UNL11       0.0400
     11 C           3.6198   -3.1915   -1.8811 C.2     1  UNL11       0.2416
     12 N           4.8323   -3.3182   -2.6062 N.am    1  UNL11      -0.3253
     13 O           2.8090   -4.1404   -1.9042 O.2     1  UNL11      -0.2704
     14 C           2.0852   -1.4953   -0.9028 C.ar    1  UNL11      -0.0072
     15 N          -1.7184   -0.0228    0.3727 N.ar    1  UNL11      -0.1928
     16 C          -3.0059   -0.0391    0.0720 C.ar    1  UNL11       0.1643
     17 C          -4.0261   -0.0505    1.1135 C.2     1  UNL11       0.0274
     18 C          -4.5641   -1.1156    1.6660 C.2     1  UNL11      -0.0429
     19 C          -5.5474   -0.6778    2.6685 C.2     1  UNL11      -0.0188
     20 C          -5.5157    0.6416    2.5752 C.1     1  UNL11      -0.1191
     21 C          -4.6347    1.1109    1.7312 C.2     1  UNL11      -0.0088
     22 N          -3.3734   -0.0453   -1.2408 N.ar    1  UNL11      -0.2323
     23 H          -2.2597    0.7717   -4.1537 H       1  UNL11       0.0293
     24 H          -2.5988   -0.9942   -4.1546 H       1  UNL11       0.0293
     25 H          -3.9441    0.1899   -3.6993 H       1  UNL11       0.0293
     26 H          -0.3858   -0.0099   -2.6204 H       1  UNL11       0.0689
     27 H           2.7319    1.3050    0.9089 H       1  UNL11       0.0654
     28 H           4.9917    0.4598    0.5142 H       1  UNL11       0.0619
     29 H           5.4052   -1.5794   -0.7504 H       1  UNL11       0.0625
     30 H           5.5886   -3.9826   -2.3478 H       1  UNL11       0.1453
     31 H           4.9713   -2.7180   -3.4357 H       1  UNL11       0.1453
     32 H           1.2582   -2.0682   -1.3165 H       1  UNL11       0.0662
     33 H          -4.3784   -2.1654    1.4796 H       1  UNL11       0.0631
     34 H          -6.1586   -1.2474    3.3299 H       1  UNL11       0.0706
     35 H          -4.4270    2.1576    1.5540 H       1  UNL11       0.0713
@<TRIPOS>BOND
     1     1     2    1
     2     1    23    1
     3     1    24    1
     4     1    25    1
     5     2     3   ar
     6     3     4   ar
     7     3    26    1
     8     4     5    1
     9     4    15   ar
    10     5     6    1
    11     6     7   ar
    12     7     8   ar
    13     7    27    1
    14     8     9   ar
    15     8    28    1
    16     9    10   ar
    17     9    29    1
    18    10    11    1
    19    10    14   ar
    20    11    12   am
    21    11    13    2
    22    12    30    1
    23    12    31    1
    24    14     6   ar
    25    14    32    1
    26    15    16   ar
    27    16    17    1
    28    16    22   ar
    29    17    18    2
    30    18    19    1
    31    18    33    1
    32    19    20    2
    33    19    34    1
    34    20    21    2
    35    21    17    1
    36    21    35    1
    37    22     2   ar
@<TRIPOS>MOLECULE
*****
 35 37 0 0 0
SMALL
GASTEIGER

@<TRIPOS>ATOM
      1 C          -2.8590   -0.0420   -3.6671 C.3     1  UNL11      -0.0221
      2 C          -2.4667   -0.0353   -2.2224 C.ar    1  UNL11       0.0457
      3 C          -1.1208   -0.0181   -1.8555 C.ar    1  UNL11       0.0215
      4 C          -0.6885   -0.0111   -0.5466 C.ar    1  UNL11       0.2241
      5 O           0.5292    0.0046   -0.0503 O.3     1  UNL11      -0.4379
      6 C           1.7849    0.3567   -0.1779 C.ar    1  UNL11       0.1311
      7 C           2.6445    0.6618    0.8534 C.ar    1  UNL11      -0.0192
      8 C           3.9491    1.0176    0.5490 C.ar    1  UNL11      -0.0576
      9 C           4.4143    1.0766   -0.7443 C.ar    1  UNL11      -0.0494
     10 C           3.5745    0.7759   -1.7957 C.ar    1  UNL11       0.0400
     11 C           4.0921    0.8455   -3.1675 C.2     1  UNL11       0.2416
     12 N           5.1290    1.7564   -3.4946 N.am    1  UNL11      -0.3253
     13 O           3.6364    0.1118   -4.0689 O.2     1  UNL11      -0.2704
     14 C           2.3007    0.4288   -1.4923 C.ar    1  UNL11      -0.0072
     15 N          -1.7184   -0.0228    0.3727 N.ar    1  UNL11      -0.1928
     16 C          -3.0059   -0.0391    0.0720 C.ar    1  UNL11       0.1643
     17 C          -4.0261   -0.0505    1.1135 C.2     1  UNL11       0.0274
     18 C          -5.2304    0.4709    1.0307 C.2     1  UNL11      -0.0429
     19 C          -5.9314    0.2364    2.3024 C.2     1  UNL11      -0.0188
     20 C          -5.0276   -0.3852    3.0421 C.1     1  UNL11      -0.1191
     21 C          -3.8997   -0.6391    2.4320 C.2     1  UNL11      -0.0088
     22 N          -3.3734   -0.0453   -1.2408 N.ar    1  UNL11      -0.2323
     23 H          -2.2597    0.7717   -4.1537 H       1  UNL11       0.0293
     24 H          -2.5988   -0.9942   -4.1546 H       1  UNL11       0.0293
     25 H          -3.9441    0.1899   -3.6993 H       1  UNL11       0.0293
     26 H          -0.3858   -0.0099   -2.6204 H       1  UNL11       0.0689
     27 H           2.3372    0.6338    1.8986 H       1  UNL11       0.0654
     28 H           4.6375    1.2611    1.3581 H       1  UNL11       0.0619
     29 H           5.4435    1.3601   -0.9373 H       1  UNL11       0.0625
     30 H           6.0913    1.4615   -3.7535 H       1  UNL11       0.1453
     31 H           4.9164    2.7674   -3.4745 H       1  UNL11       0.1453
     32 H           1.6392    0.1919   -2.3228 H       1  UNL11       0.0662
     33 H          -5.7065    0.9969    0.2133 H       1  UNL11       0.0631
     34 H          -6.9232    0.4879    2.5999 H       1  UNL11       0.0706
     35 H          -3.0633   -1.1803    2.8533 H       1  UNL11       0.0713
@<TRIPOS>BOND
     1     1     2    1
     2     1    23    1
     3     1    24    1
     4     1    25    1
     5     2     3   ar
     6     3     4   ar
     7     3    26    1
     8     4     5    1
     9     4    15   ar
    10     5     6    1
    11     6     7   ar
    12     7     8   ar
    13     7    27    1
    14     8     9   ar
    15     8    28    1
    16     9    10   ar
    17     9    29    1
    18    10    11    1
    19    10    14   ar
    20    11    12   am
    21    11    13    2
    22    12    30    1
    23    12    31    1
    24    14     6   ar
    25    14    32    1
    26    15    16   ar
    27    16    17    1
    28    16    22   ar
    29    17    18    2
    30    18    19    1
    31    18    33    1
    32    19    20    2
    33    19    34    1
    34    20    21    2
    35    21    17    1
    36    21    35    1
    37    22     2   ar
@<TRIPOS>MOLECULE
*****
 35 37 0 0 0
SMALL
GASTEIGER

@<TRIPOS>ATOM
      1 C          -2.8590   -0.0420   -3.6671 C.3     1  UNL11      -0.0221
      2 C          -2.4667   -0.0353   -2.2224 C.ar    1  UNL11       0.0457
      3 C          -1.1208   -0.0181   -1.8555 C.ar    1  UNL11       0.0215
      4 C          -0.6885   -0.0111   -0.5466 C.ar    1  UNL11       0.2241
      5 O           0.5292    0.0046   -0.0503 O.3     1  UNL11      -0.4379
      6 C           1.3389    0.3614    0.9162 C.ar    1  UNL11       0.1311
      7 C           2.6762    0.6585    0.7779 C.ar    1  UNL11      -0.0192
      8 C           3.3972    1.0211    1.9049 C.ar    1  UNL11      -0.0576
      9 C           2.8250    1.0944    3.1538 C.ar    1  UNL11      -0.0494
     10 C           1.4878    0.8021    3.3202 C.ar    1  UNL11       0.0400
     11 C           0.8983    0.8868    4.6618 C.2     1  UNL11       0.2416
     12 N           1.6944    0.6376    5.8091 N.am    1  UNL11      -0.3253
     13 O          -0.3051    1.1773    4.8225 O.2     1  UNL11      -0.2704
     14 C           0.7882    0.4484    2.2155 C.ar    1  UNL11      -0.0072
     15 N          -1.7184   -0.0228    0.3727 N.ar    1  UNL11      -0.1928
     16 C          -3.0059   -0.0391    0.0720 C.ar    1  UNL11       0.1643
     17 C          -4.0261   -0.0505    1.1135 C.2     1  UNL11       0.0274
     18 C          -4.5641   -1.1156    1.6660 C.2     1  UNL11      -0.0429
     19 C          -5.5474   -0.6778    2.6685 C.2     1  UNL11      -0.0188
     20 C          -5.5157    0.6416    2.5752 C.1     1  UNL11      -0.1191
     21 C          -4.6347    1.1109    1.7312 C.2     1  UNL11      -0.0088
     22 N          -3.3734   -0.0453   -1.2408 N.ar    1  UNL11      -0.2323
     23 H          -2.2597    0.7717   -4.1537 H       1  UNL11       0.0293
     24 H          -2.5988   -0.9942   -4.1546 H       1  UNL11       0.0293
     25 H          -3.9441    0.1899   -3.6993 H       1  UNL11       0.0293
     26 H          -0.3858   -0.0099   -2.6204 H       1  UNL11       0.0689
     27 H           3.1877    0.6190   -0.1835 H       1  UNL11       0.0654
     28 H           4.4563    1.2582    1.8062 H       1  UNL11       0.0619
     29 H           3.4268    1.3826    4.0092 H       1  UNL11       0.0625
     30 H           1.9541    1.3715    6.4976 H       1  UNL11       0.1453
     31 H           2.0343   -0.3249    5.9690 H       1  UNL11       0.1453
     32 H          -0.2667    0.2180    2.3481 H       1  UNL11       0.0662
     33 H          -4.3784   -2.1654    1.4796 H       1  UNL11       0.0631
     34 H          -6.1586   -1.2474    3.3299 H       1  UNL11       0.0706
     35 H          -4.4270    2.1576    1.5540 H       1  UNL11       0.0713
@<TRIPOS>BOND
     1     1     2    1
     2     1    23    1
     3     1    24    1
     4     1    25    1
     5     2     3   ar
     6     3     4   ar
     7     3    26    1
     8     4     5    1
     9     4    15   ar
    10     5     6    1
    11     6     7   ar
    12     7     8   ar
    13     7    27    1
    14     8     9   ar
    15     8    28    1
    16     9    10   ar
    17     9    29    1
    18    10    11    1
    19    10    14   ar
    20    11    12   am
    21    11    13    2
    22    12    30    1
    23    12    31    1
    24    14     6   ar
    25    14    32    1
    26    15    16   ar
    27    16    17    1
    28    16    22   ar
    29    17    18    2
    30    18    19    1
    31    18    33    1
    32    19    20    2
    33    19    34    1
    34    20    21    2
    35    21    17    1
    36    21    35    1
    37    22     2   ar
@<TRIPOS>MOLECULE
*****
 35 37 0 0 0
SMALL
GASTEIGER

@<TRIPOS>ATOM
      1 C          -2.8590   -0.0420   -3.6671 C.3     1  UNL11      -0.0221
      2 C          -2.4667   -0.0353   -2.2224 C.ar    1  UNL11       0.0457
      3 C          -1.1208   -0.0181   -1.8555 C.ar    1  UNL11       0.0215
      4 C          -0.6885   -0.0111   -0.5466 C.ar    1  UNL11       0.2241
      5 O           0.5292    0.0046   -0.0503 O.3     1  UNL11      -0.4379
      6 C           1.3471   -0.3280    0.9179 C.ar    1  UNL11       0.1311
      7 C           2.4648    0.3764    1.3056 C.ar    1  UNL11      -0.0192
      8 C           3.2288   -0.1123    2.3538 C.ar    1  UNL11      -0.0576
      9 C           2.9105   -1.2736    3.0189 C.ar    1  UNL11      -0.0494
     10 C           1.7966   -1.9983    2.6510 C.ar    1  UNL11       0.0400
     11 C           1.4761   -3.2346    3.3746 C.2     1  UNL11       0.2416
     12 N           0.3433   -4.0048    3.0063 N.am    1  UNL11      -0.3253
     13 O           2.1860   -3.6327    4.3211 O.2     1  UNL11      -0.2704
     14 C           1.0537   -1.5160    1.6261 C.ar    1  UNL11      -0.0072
     15 N          -1.7184   -0.0228    0.3727 N.ar    1  UNL11      -0.1928
     16 C          -3.0059   -0.0391    0.0720 C.ar    1  UNL11       0.1643
     17 C          -4.0261   -0.0505    1.1135 C.2     1  UNL11       0.0274
     18 C          -4.5641   -1.1156    1.6660 C.2     1  UNL11      -0.0429
     19 C          -5.5474   -0.6778    2.6685 C.2     1  UNL11      -0.0188
     20 C          -5.5157    0.6416    2.5752 C.1     1  UNL11      -0.1191
     21 C          -4.6347    1.1109    1.7312 C.2     1  UNL11      -0.0088
     22 N          -3.3734   -0.0453   -1.2408 N.ar    1  UNL11      -0.2323
     23 H          -2.2597    0.7717   -4.1537 H       1  UNL11       0.0293
     24 H          -2.5988   -0.9942   -4.1546 H       1  UNL11       0.0293
     25 H          -3.9441    0.1899   -3.6993 H       1  UNL11       0.0293
     26 H          -0.3858   -0.0099   -2.6204 H       1  UNL11       0.0689
     27 H           2.7702    1.3026    0.8192 H       1  UNL11       0.0654
     28 H           4.1155    0.4378    2.6683 H       1  UNL11       0.0619
     29 H           3.5368   -1.6199    3.8342 H       1  UNL11       0.0625
     30 H           0.4065   -4.9478    2.5741 H       1  UNL11       0.1453
     31 H          -0.5951   -3.6072    3.1769 H       1  UNL11       0.1453
     32 H           0.1753   -2.0887    1.3368 H       1  UNL11       0.0662
     33 H          -4.3784   -2.1654    1.4796 H       1  UNL11       0.0631
     34 H          -6.1586   -1.2474    3.3299 H       1  UNL11       0.0706
     35 H          -4.4270    2.1576    1.5540 H       1  UNL11       0.0713
@<TRIPOS>BOND
     1     1     2    1
     2     1    23    1
     3     1    24    1
     4     1    25    1
     5     2     3   ar
     6     3     4   ar
     7     3    26    1
     8     4     5    1
     9     4    15   ar
    10     5     6    1
    11     6     7   ar
    12     7     8   ar
    13     7    27    1
    14     8     9   ar
    15     8    28    1
    16     9    10   ar
    17     9    29    1
    18    10    11    1
    19    10    14   ar
    20    11    12   am
    21    11    13    2
    22    12    30    1
    23    12    31    1
    24    14     6   ar
    25    14    32    1
    26    15    16   ar
    27    16    17    1
    28    16    22   ar
    29    17    18    2
    30    18    19    1
    31    18    33    1
    32    19    20    2
    33    19    34    1
    34    20    21    2
    35    21    17    1
    36    21    35    1
    37    22     2   ar
@<TRIPOS>MOLECULE
*****
 35 37 0 0 0
SMALL
GASTEIGER

@<TRIPOS>ATOM
      1 C          -2.8590   -0.0420   -3.6671 C.3     1  UNL11      -0.0221
      2 C          -2.4667   -0.0353   -2.2224 C.ar    1  UNL11       0.0457
      3 C          -1.1208   -0.0181   -1.8555 C.ar    1  UNL11       0.0215
      4 C          -0.6885   -0.0111   -0.5466 C.ar    1  UNL11       0.2241
      5 O           0.5292    0.0046   -0.0503 O.3     1  UNL11      -0.4379
      6 C           1.3389    0.3614    0.9162 C.ar    1  UNL11       0.1311
      7 C           2.4713   -0.3160    1.3093 C.ar    1  UNL11      -0.0192
      8 C           3.2238    0.1962    2.3546 C.ar    1  UNL11      -0.0576
      9 C           2.8799    1.3548    3.0117 C.ar    1  UNL11      -0.0494
     10 C           1.7509    2.0528    2.6381 C.ar    1  UNL11       0.0400
     11 C           1.4030    3.2866    3.3531 C.2     1  UNL11       0.2416
     12 N           2.2197    3.7511    4.4158 N.am    1  UNL11      -0.3253
     13 O           0.3906    3.9490    3.0455 O.2     1  UNL11      -0.2704
     14 C           1.0194    1.5476    1.6160 C.ar    1  UNL11      -0.0072
     15 N          -1.7184   -0.0228    0.3727 N.ar    1  UNL11      -0.1928
     16 C          -3.0059   -0.0391    0.0720 C.ar    1  UNL11       0.1643
     17 C          -4.0261   -0.0505    1.1135 C.2     1  UNL11       0.0274
     18 C          -3.8151   -0.0478    2.4114 C.2     1  UNL11      -0.0429
     19 C          -5.1158   -0.0625    3.0980 C.2     1  UNL11      -0.0188
     20 C          -5.9880   -0.1124    2.1044 C.1     1  UNL11      -0.1191
     21 C          -5.4609   -0.0669    0.9090 C.2     1  UNL11      -0.0088
     22 N          -3.3734   -0.0453   -1.2408 N.ar    1  UNL11      -0.2323
     23 H          -2.2597    0.7717   -4.1537 H       1  UNL11       0.0293
     24 H          -2.5988   -0.9942   -4.1546 H       1  UNL11       0.0293
     25 H          -3.9441    0.1899   -3.6993 H       1  UNL11       0.0293
     26 H          -0.3858   -0.0099   -2.6204 H       1  UNL11       0.0689
     27 H           2.7971   -1.2387    0.8295 H       1  UNL11       0.0654
     28 H           4.1219   -0.3324    2.6735 H       1  UNL11       0.0619
     29 H           3.4978    1.7201    3.8251 H       1  UNL11       0.0625
     30 H           2.7913    4.6174    4.3637 H       1  UNL11       0.1453
     31 H           2.2479    3.1986    5.2886 H       1  UNL11       0.1453
     32 H           0.1290    2.0992    1.3222 H       1  UNL11       0.0662
     33 H          -2.8854   -0.0371    2.9654 H       1  UNL11       0.0631
     34 H          -5.3472   -0.0399    4.1379 H       1  UNL11       0.0706
     35 H          -6.0113   -0.0468   -0.0220 H       1  UNL11       0.0713
@<TRIPOS>BOND
     1     1     2    1
     2     1    23    1
     3     1    24    1
     4     1    25    1
     5     2     3   ar
     6     3     4   ar
     7     3    26    1
     8     4     5    1
     9     4    15   ar
    10     5     6    1
    11     6     7   ar
    12     7     8   ar
    13     7    27    1
    14     8     9   ar
    15     8    28    1
    16     9    10   ar
    17     9    29    1
    18    10    11    1
    19    10    14   ar
    20    11    12   am
    21    11    13    2
    22    12    30    1
    23    12    31    1
    24    14     6   ar
    25    14    32    1
    26    15    16   ar
    27    16    17    1
    28    16    22   ar
    29    17    18    2
    30    18    19    1
    31    18    33    1
    32    19    20    2
    33    19    34    1
    34    20    21    2
    35    21    17    1
    36    21    35    1
    37    22     2   ar
@<TRIPOS>MOLECULE
*****
 35 37 0 0 0
SMALL
GASTEIGER

@<TRIPOS>ATOM
      1 C          -2.8590   -0.0420   -3.6671 C.3     1  UNL11      -0.0221
      2 C          -2.4667   -0.0353   -2.2224 C.ar    1  UNL11       0.0457
      3 C          -1.1208   -0.0181   -1.8555 C.ar    1  UNL11       0.0215
      4 C          -0.6885   -0.0111   -0.5466 C.ar    1  UNL11       0.2241
      5 O           0.5292    0.0046   -0.0503 O.3     1  UNL11      -0.4379
      6 C           1.7849    0.3567   -0.1779 C.ar    1  UNL11       0.1311
      7 C           2.2469    1.4571   -0.8645 C.ar    1  UNL11      -0.0192
      8 C           3.6125    1.6909   -0.9050 C.ar    1  UNL11      -0.0576
      9 C           4.5205    0.8642   -0.2850 C.ar    1  UNL11      -0.0494
     10 C           4.0847   -0.2446    0.4093 C.ar    1  UNL11       0.0400
     11 C           5.0712   -1.1129    1.0632 C.2     1  UNL11       0.2416
     12 N           6.3780   -1.2404    0.5264 N.am    1  UNL11      -0.3253
     13 O           4.7858   -1.7525    2.0966 O.2     1  UNL11      -0.2704
     14 C           2.7492   -0.4681    0.4456 C.ar    1  UNL11      -0.0072
     15 N          -1.7184   -0.0228    0.3727 N.ar    1  UNL11      -0.1928
     16 C          -3.0059   -0.0391    0.0720 C.ar    1  UNL11       0.1643
     17 C          -4.0261   -0.0505    1.1135 C.2     1  UNL11       0.0274
     18 C          -4.5641   -1.1156    1.6660 C.2     1  UNL11      -0.0429
     19 C          -5.5474   -0.6778    2.6685 C.2     1  UNL11      -0.0188
     20 C          -5.5157    0.6416    2.5752 C.1     1  UNL11      -0.1191
     21 C          -4.6347    1.1109    1.7312 C.2     1  UNL11      -0.0088
     22 N          -3.3734   -0.0453   -1.2408 N.ar    1  UNL11      -0.2323
     23 H          -2.2597    0.7717   -4.1537 H       1  UNL11       0.0293
     24 H          -2.5988   -0.9942   -4.1546 H       1  UNL11       0.0293
     25 H          -3.9441    0.1899   -3.6993 H       1  UNL11       0.0293
     26 H          -0.3858   -0.0099   -2.6204 H       1  UNL11       0.0689
     27 H           1.5792    2.1498   -1.3764 H       1  UNL11       0.0654
     28 H           3.9885    2.5592   -1.4459 H       1  UNL11       0.0619
     29 H           5.5812    1.0848   -0.3422 H       1  UNL11       0.0625
     30 H           7.2299   -0.8767    0.9977 H       1  UNL11       0.1453
     31 H           6.4890   -1.7206   -0.3818 H       1  UNL11       0.1453
     32 H           2.4067   -1.3432    0.9937 H       1  UNL11       0.0662
     33 H          -4.3784   -2.1654    1.4796 H       1  UNL11       0.0631
     34 H          -6.1586   -1.2474    3.3299 H       1  UNL11       0.0706
     35 H          -4.4270    2.1576    1.5540 H       1  UNL11       0.0713
@<TRIPOS>BOND
     1     1     2    1
     2     1    23    1
     3     1    24    1
     4     1    25    1
     5     2     3   ar
     6     3     4   ar
     7     3    26    1
     8     4     5    1
     9     4    15   ar
    10     5     6    1
    11     6     7   ar
    12     7     8   ar
    13     7    27    1
    14     8     9   ar
    15     8    28    1
    16     9    10   ar
    17     9    29    1
    18    10    11    1
    19    10    14   ar
    20    11    12   am
    21    11    13    2
    22    12    30    1
    23    12    31    1
    24    14     6   ar
    25    14    32    1
    26    15    16   ar
    27    16    17    1
    28    16    22   ar
    29    17    18    2
    30    18    19    1
    31    18    33    1
    32    19    20    2
    33    19    34    1
    34    20    21    2
    35    21    17    1
    36    21    35    1
    37    22     2   ar
@<TRIPOS>MOLECULE
*****
 35 37 0 0 0
SMALL
GASTEIGER

@<TRIPOS>ATOM
      1 C          -2.8590   -0.0420   -3.6671 C.3     1  UNL11      -0.0221
      2 C          -2.4667   -0.0353   -2.2224 C.ar    1  UNL11       0.0457
      3 C          -1.1208   -0.0181   -1.8555 C.ar    1  UNL11       0.0215
      4 C          -0.6885   -0.0111   -0.5466 C.ar    1  UNL11       0.2241
      5 O           0.5292    0.0046   -0.0503 O.3     1  UNL11      -0.4379
      6 C           1.7929   -0.3182   -0.1763 C.ar    1  UNL11       0.1311
      7 C           2.7874   -0.0504    0.7376 C.ar    1  UNL11      -0.0192
      8 C           4.0804   -0.4609    0.4532 C.ar    1  UNL11      -0.0576
      9 C           4.4044   -1.1248   -0.7073 C.ar    1  UNL11      -0.0494
     10 C           3.4278   -1.4056   -1.6392 C.ar    1  UNL11       0.0400
     11 C           3.7962   -2.1149   -2.8704 C.2     1  UNL11       0.2416
     12 N           4.8816   -3.0282   -2.8714 N.am    1  UNL11      -0.3253
     13 O           3.1690   -1.9328   -3.9343 O.2     1  UNL11      -0.2704
     14 C           2.1660   -1.0022   -1.3560 C.ar    1  UNL11      -0.0072
     15 N          -1.7184   -0.0228    0.3727 N.ar    1  UNL11      -0.1928
     16 C          -3.0059   -0.0391    0.0720 C.ar    1  UNL11       0.1643
     17 C          -4.0261   -0.0505    1.1135 C.2     1  UNL11       0.0274
     18 C          -4.5883    1.0023    1.6655 C.2     1  UNL11      -0.0429
     19 C          -5.5614    0.5426    2.6682 C.2     1  UNL11      -0.0188
     20 C          -5.4427   -0.7746    2.6312 C.1     1  UNL11      -0.1191
     21 C          -4.6080   -1.2252    1.7318 C.2     1  UNL11      -0.0088
     22 N          -3.3734   -0.0453   -1.2408 N.ar    1  UNL11      -0.2323
     23 H          -2.2597    0.7717   -4.1537 H       1  UNL11       0.0293
     24 H          -2.5988   -0.9942   -4.1546 H       1  UNL11       0.0293
     25 H          -3.9441    0.1899   -3.6993 H       1  UNL11       0.0293
     26 H          -0.3858   -0.0099   -2.6204 H       1  UNL11       0.0689
     27 H           2.5954    0.4716    1.6747 H       1  UNL11       0.0654
     28 H           4.8748   -0.2537    1.1699 H       1  UNL11       0.0619
     29 H           5.4300   -1.4279   -0.8896 H       1  UNL11       0.0625
     30 H           4.7679   -4.0543   -2.9906 H       1  UNL11       0.1453
     31 H           5.8364   -2.6533   -2.7469 H       1  UNL11       0.1453
     32 H           1.3964   -1.2243   -2.0921 H       1  UNL11       0.0662
     33 H          -4.4265    2.0560    1.4787 H       1  UNL11       0.0631
     34 H          -6.2211    1.0978    3.2943 H       1  UNL11       0.0706
     35 H          -4.4146   -2.2677    1.5178 H       1  UNL11       0.0713
@<TRIPOS>BOND
     1     1     2    1
     2     1    23    1
     3     1    24    1
     4     1    25    1
     5     2     3   ar
     6     3     4   ar
     7     3    26    1
     8     4     5    1
     9     4    15   ar
    10     5     6    1
    11     6     7   ar
    12     7     8   ar
    13     7    27    1
    14     8     9   ar
    15     8    28    1
    16     9    10   ar
    17     9    29    1
    18    10    11    1
    19    10    14   ar
    20    11    12   am
    21    11    13    2
    22    12    30    1
    23    12    31    1
    24    14     6   ar
    25    14    32    1
    26    15    16   ar
    27    16    17    1
    28    16    22   ar
    29    17    18    2
    30    18    19    1
    31    18    33    1
    32    19    20    2
    33    19    34    1
    34    20    21    2
    35    21    17    1
    36    21    35    1
    37    22     2   ar
@<TRIPOS>MOLECULE
*****
 35 37 0 0 0
SMALL
GASTEIGER

@<TRIPOS>ATOM
      1 C          -2.8590   -0.0420   -3.6671 C.3     1  UNL11      -0.0221
      2 C          -2.4667   -0.0353   -2.2224 C.ar    1  UNL11       0.0457
      3 C          -1.1208   -0.0181   -1.8555 C.ar    1  UNL11       0.0215
      4 C          -0.6885   -0.0111   -0.5466 C.ar    1  UNL11       0.2241
      5 O           0.5292    0.0046   -0.0503 O.3     1  UNL11      -0.4379
      6 C           1.3389    0.3614    0.9162 C.ar    1  UNL11       0.1311
      7 C           2.4713   -0.3160    1.3093 C.ar    1  UNL11      -0.0192
      8 C           3.2238    0.1962    2.3546 C.ar    1  UNL11      -0.0576
      9 C           2.8799    1.3548    3.0117 C.ar    1  UNL11      -0.0494
     10 C           1.7509    2.0528    2.6381 C.ar    1  UNL11       0.0400
     11 C           1.4030    3.2866    3.3531 C.2     1  UNL11       0.2416
     12 N           1.7607    3.4475    4.7163 N.am    1  UNL11      -0.3253
     13 O           0.7906    4.2135    2.7837 O.2     1  UNL11      -0.2704
     14 C           1.0194    1.5476    1.6160 C.ar    1  UNL11      -0.0072
     15 N          -1.7184   -0.0228    0.3727 N.ar    1  UNL11      -0.1928
     16 C          -3.0059   -0.0391    0.0720 C.ar    1  UNL11       0.1643
     17 C          -4.0261   -0.0505    1.1135 C.2     1  UNL11       0.0274
     18 C          -4.5641   -1.1156    1.6660 C.2     1  UNL11      -0.0429
     19 C          -5.5474   -0.6778    2.6685 C.2     1  UNL11      -0.0188
     20 C          -5.5157    0.6416    2.5752 C.1     1  UNL11      -0.1191
     21 C          -4.6347    1.1109    1.7312 C.2     1  UNL11      -0.0088
     22 N          -3.3734   -0.0453   -1.2408 N.ar    1  UNL11      -0.2323
     23 H          -2.2597    0.7717   -4.1537 H       1  UNL11       0.0293
     24 H          -2.5988   -0.9942   -4.1546 H       1  UNL11       0.0293
     25 H          -3.9441    0.1899   -3.6993 H       1  UNL11       0.0293
     26 H          -0.3858   -0.0099   -2.6204 H       1  UNL11       0.0689
     27 H           2.7971   -1.2387    0.8295 H       1  UNL11       0.0654
     28 H           4.1219   -0.3324    2.6735 H       1  UNL11       0.0619
     29 H           3.4978    1.7201    3.8251 H       1  UNL11       0.0625
     30 H           2.4703    4.1312    5.0464 H       1  UNL11       0.1453
     31 H           1.2906    2.8532    5.4188 H       1  UNL11       0.1453
     32 H           0.1290    2.0992    1.3222 H       1  UNL11       0.0662
     33 H          -4.3784   -2.1654    1.4796 H       1  UNL11       0.0631
     34 H          -6.1586   -1.2474    3.3299 H       1  UNL11       0.0706
     35 H          -4.4270    2.1576    1.5540 H       1  UNL11       0.0713
@<TRIPOS>BOND
     1     1     2    1
     2     1    23    1
     3     1    24    1
     4     1    25    1
     5     2     3   ar
     6     3     4   ar
     7     3    26    1
     8     4     5    1
     9     4    15   ar
    10     5     6    1
    11     6     7   ar
    12     7     8   ar
    13     7    27    1
    14     8     9   ar
    15     8    28    1
    16     9    10   ar
    17     9    29    1
    18    10    11    1
    19    10    14   ar
    20    11    12   am
    21    11    13    2
    22    12    30    1
    23    12    31    1
    24    14     6   ar
    25    14    32    1
    26    15    16   ar
    27    16    17    1
    28    16    22   ar
    29    17    18    2
    30    18    19    1
    31    18    33    1
    32    19    20    2
    33    19    34    1
    34    20    21    2
    35    21    17    1
    36    21    35    1
    37    22     2   ar
@<TRIPOS>MOLECULE
*****
 35 37 0 0 0
SMALL
GASTEIGER

@<TRIPOS>ATOM
      1 C          -2.8590   -0.0420   -3.6671 C.3     1  UNL11      -0.0221
      2 C          -2.4667   -0.0353   -2.2224 C.ar    1  UNL11       0.0457
      3 C          -1.1208   -0.0181   -1.8555 C.ar    1  UNL11       0.0215
      4 C          -0.6885   -0.0111   -0.5466 C.ar    1  UNL11       0.2241
      5 O           0.5292    0.0046   -0.0503 O.3     1  UNL11      -0.4379
      6 C           1.7849    0.3567   -0.1779 C.ar    1  UNL11       0.1311
      7 C           2.8672   -0.3185    0.3402 C.ar    1  UNL11      -0.0192
      8 C           4.1376    0.1879    0.1146 C.ar    1  UNL11      -0.0576
      9 C           4.3547    1.3387   -0.6072 C.ar    1  UNL11      -0.0494
     10 C           3.2886    2.0342   -1.1372 C.ar    1  UNL11       0.0400
     11 C           3.5437    3.2597   -1.9038 C.2     1  UNL11       0.2416
     12 N           4.6735    4.0650   -1.6087 N.am    1  UNL11      -0.3253
     13 O           2.7799    3.6178   -2.8241 O.2     1  UNL11      -0.2704
     14 C           2.0495    1.5347   -0.9135 C.ar    1  UNL11      -0.0072
     15 N          -1.7184   -0.0228    0.3727 N.ar    1  UNL11      -0.1928
     16 C          -3.0059   -0.0391    0.0720 C.ar    1  UNL11       0.1643
     17 C          -4.0261   -0.0505    1.1135 C.2     1  UNL11       0.0274
     18 C          -4.5641   -1.1156    1.6660 C.2     1  UNL11      -0.0429
     19 C          -5.5474   -0.6778    2.6685 C.2     1  UNL11      -0.0188
     20 C          -5.5157    0.6416    2.5752 C.1     1  UNL11      -0.1191
     21 C          -4.6347    1.1109    1.7312 C.2     1  UNL11      -0.0088
     22 N          -3.3734   -0.0453   -1.2408 N.ar    1  UNL11      -0.2323
     23 H          -2.2597    0.7717   -4.1537 H       1  UNL11       0.0293
     24 H          -2.5988   -0.9942   -4.1546 H       1  UNL11       0.0293
     25 H          -3.9441    0.1899   -3.6993 H       1  UNL11       0.0293
     26 H          -0.3858   -0.0099   -2.6204 H       1  UNL11       0.0689
     27 H           2.7617   -1.2350    0.9203 H       1  UNL11       0.0654
     28 H           5.0009   -0.3390    0.5205 H       1  UNL11       0.0619
     29 H           5.3663    1.6997   -0.7596 H       1  UNL11       0.0625
     30 H           5.4835    4.1745   -2.2505 H       1  UNL11       0.1453
     31 H           4.6923    4.5700   -0.7074 H       1  UNL11       0.1453
     32 H           1.2093    2.0844   -1.3322 H       1  UNL11       0.0662
     33 H          -4.3784   -2.1654    1.4796 H       1  UNL11       0.0631
     34 H          -6.1586   -1.2474    3.3299 H       1  UNL11       0.0706
     35 H          -4.4270    2.1576    1.5540 H       1  UNL11       0.0713
@<TRIPOS>BOND
     1     1     2    1
     2     1    23    1
     3     1    24    1
     4     1    25    1
     5     2     3   ar
     6     3     4   ar
     7     3    26    1
     8     4     5    1
     9     4    15   ar
    10     5     6    1
    11     6     7   ar
    12     7     8   ar
    13     7    27    1
    14     8     9   ar
    15     8    28    1
    16     9    10   ar
    17     9    29    1
    18    10    11    1
    19    10    14   ar
    20    11    12   am
    21    11    13    2
    22    12    30    1
    23    12    31    1
    24    14     6   ar
    25    14    32    1
    26    15    16   ar
    27    16    17    1
    28    16    22   ar
    29    17    18    2
    30    18    19    1
    31    18    33    1
    32    19    20    2
    33    19    34    1
    34    20    21    2
    35    21    17    1
    36    21    35    1
    37    22     2   ar
@<TRIPOS>MOLECULE
*****
 35 37 0 0 0
SMALL
GASTEIGER

@<TRIPOS>ATOM
      1 C          -2.8590   -0.0420   -3.6671 C.3     1  UNL11      -0.0221
      2 C          -2.4667   -0.0353   -2.2224 C.ar    1  UNL11       0.0457
      3 C          -1.1208   -0.0181   -1.8555 C.ar    1  UNL11       0.0215
      4 C          -0.6885   -0.0111   -0.5466 C.ar    1  UNL11       0.2241
      5 O           0.5292    0.0046   -0.0503 O.3     1  UNL11      -0.4379
      6 C           1.3389    0.3614    0.9162 C.ar    1  UNL11       0.1311
      7 C           1.1943    1.4699    1.7199 C.ar    1  UNL11      -0.0192
      8 C           2.1428    1.7078    2.7023 C.ar    1  UNL11      -0.0576
      9 C           3.2211    0.8774    2.9020 C.ar    1  UNL11      -0.0494
     10 C           3.3898   -0.2396    2.1113 C.ar    1  UNL11       0.0400
     11 C           4.5477   -1.1116    2.3421 C.2     1  UNL11       0.2416
     12 N           5.4804   -0.8049    3.3659 N.am    1  UNL11      -0.3253
     13 O           4.7365   -2.1332    1.6498 O.2     1  UNL11      -0.2704
     14 C           2.4598   -0.4671    1.1530 C.ar    1  UNL11      -0.0072
     15 N          -1.7184   -0.0228    0.3727 N.ar    1  UNL11      -0.1928
     16 C          -3.0059   -0.0391    0.0720 C.ar    1  UNL11       0.1643
     17 C          -4.0261   -0.0505    1.1135 C.2     1  UNL11       0.0274
     18 C          -5.2182   -0.5993    1.0309 C.2     1  UNL11      -0.0429
     19 C          -5.9243   -0.3803    2.3025 C.2     1  UNL11      -0.0188
     20 C          -5.0644    0.3304    3.0138 C.1     1  UNL11      -0.1191
     21 C          -3.9132    0.5414    2.4317 C.2     1  UNL11      -0.0088
     22 N          -3.3734   -0.0453   -1.2408 N.ar    1  UNL11      -0.2323
     23 H          -2.2597    0.7717   -4.1537 H       1  UNL11       0.0293
     24 H          -2.5988   -0.9942   -4.1546 H       1  UNL11       0.0293
     25 H          -3.9441    0.1899   -3.6993 H       1  UNL11       0.0293
     26 H          -0.3858   -0.0099   -2.6204 H       1  UNL11       0.0689
     27 H           0.3627    2.1660    1.6121 H       1  UNL11       0.0654
     28 H           2.0375    2.5826    3.3437 H       1  UNL11       0.0619
     29 H           3.9401    1.1014    3.6830 H       1  UNL11       0.0625
     30 H           5.5974   -1.3770    4.2257 H       1  UNL11       0.1453
     31 H           6.0754    0.0320    3.2510 H       1  UNL11       0.1453
     32 H           2.5940   -1.3486    0.5298 H       1  UNL11       0.0662
     33 H          -5.6821   -1.1363    0.2138 H       1  UNL11       0.0631
     34 H          -6.8916   -0.6972    2.6179 H       1  UNL11       0.0706
     35 H          -3.0696    1.0560    2.8717 H       1  UNL11       0.0713
@<TRIPOS>BOND
     1     1     2    1
     2     1    23    1
     3     1    24    1
     4     1    25    1
     5     2     3   ar
     6     3     4   ar
     7     3    26    1
     8     4     5    1
     9     4    15   ar
    10     5     6    1
    11     6     7   ar
    12     7     8   ar
    13     7    27    1
    14     8     9   ar
    15     8    28    1
    16     9    10   ar
    17     9    29    1
    18    10    11    1
    19    10    14   ar
    20    11    12   am
    21    11    13    2
    22    12    30    1
    23    12    31    1
    24    14     6   ar
    25    14    32    1
    26    15    16   ar
    27    16    17    1
    28    16    22   ar
    29    17    18    2
    30    18    19    1
    31    18    33    1
    32    19    20    2
    33    19    34    1
    34    20    21    2
    35    21    17    1
    36    21    35    1
    37    22     2   ar
@<TRIPOS>MOLECULE
*****
 35 37 0 0 0
SMALL
GASTEIGER

@<TRIPOS>ATOM
      1 C          -2.8590   -0.0420   -3.6671 C.3     1  UNL11      -0.0221
      2 C          -2.4667   -0.0353   -2.2224 C.ar    1  UNL11       0.0457
      3 C          -1.1208   -0.0181   -1.8555 C.ar    1  UNL11       0.0215
      4 C          -0.6885   -0.0111   -0.5466 C.ar    1  UNL11       0.2241
      5 O           0.5292    0.0046   -0.0503 O.3     1  UNL11      -0.4379
      6 C           1.3389    0.3614    0.9162 C.ar    1  UNL11       0.1311
      7 C           0.9821    1.0551    2.0508 C.ar    1  UNL11      -0.0192
      8 C           1.9633    1.3566    2.9823 C.ar    1  UNL11      -0.0576
      9 C           3.2779    0.9882    2.8136 C.ar    1  UNL11      -0.0494
     10 C           3.6621    0.2928    1.6866 C.ar    1  UNL11       0.0400
     11 C           5.0702   -0.0900    1.5274 C.2     1  UNL11       0.2416
     12 N           5.8766   -0.3381    2.6676 N.am    1  UNL11      -0.3253
     13 O           5.5853   -0.2051    0.3960 O.2     1  UNL11      -0.2704
     14 C           2.6992    0.0008    0.7797 C.ar    1  UNL11      -0.0072
     15 N          -1.7184   -0.0228    0.3727 N.ar    1  UNL11      -0.1928
     16 C          -3.0059   -0.0391    0.0720 C.ar    1  UNL11       0.1643
     17 C          -4.0261   -0.0505    1.1135 C.2     1  UNL11       0.0274
     18 C          -5.2304    0.4709    1.0307 C.2     1  UNL11      -0.0429
     19 C          -5.9314    0.2364    2.3024 C.2     1  UNL11      -0.0188
     20 C          -5.0276   -0.3852    3.0421 C.1     1  UNL11      -0.1191
     21 C          -3.8997   -0.6391    2.4320 C.2     1  UNL11      -0.0088
     22 N          -3.3734   -0.0453   -1.2408 N.ar    1  UNL11      -0.2323
     23 H          -2.2597    0.7717   -4.1537 H       1  UNL11       0.0293
     24 H          -2.5988   -0.9942   -4.1546 H       1  UNL11       0.0293
     25 H          -3.9441    0.1899   -3.6993 H       1  UNL11       0.0293
     26 H          -0.3858   -0.0099   -2.6204 H       1  UNL11       0.0689
     27 H          -0.0417    1.3751    2.2428 H       1  UNL11       0.0654
     28 H           1.6913    1.9054    3.8838 H       1  UNL11       0.0619
     29 H           4.0136    1.2451    3.5684 H       1  UNL11       0.0625
     30 H           6.2408   -1.2784    2.9192 H       1  UNL11       0.1453
     31 H           6.1147    0.4585    3.2811 H       1  UNL11       0.1453
     32 H           3.0036   -0.5478   -0.1089 H       1  UNL11       0.0662
     33 H          -5.7065    0.9969    0.2133 H       1  UNL11       0.0631
     34 H          -6.9232    0.4879    2.5999 H       1  UNL11       0.0706
     35 H          -3.0633   -1.1803    2.8533 H       1  UNL11       0.0713
@<TRIPOS>BOND
     1     1     2    1
     2     1    23    1
     3     1    24    1
     4     1    25    1
     5     2     3   ar
     6     3     4   ar
     7     3    26    1
     8     4     5    1
     9     4    15   ar
    10     5     6    1
    11     6     7   ar
    12     7     8   ar
    13     7    27    1
    14     8     9   ar
    15     8    28    1
    16     9    10   ar
    17     9    29    1
    18    10    11    1
    19    10    14   ar
    20    11    12   am
    21    11    13    2
    22    12    30    1
    23    12    31    1
    24    14     6   ar
    25    14    32    1
    26    15    16   ar
    27    16    17    1
    28    16    22   ar
    29    17    18    2
    30    18    19    1
    31    18    33    1
    32    19    20    2
    33    19    34    1
    34    20    21    2
    35    21    17    1
    36    21    35    1
    37    22     2   ar
@<TRIPOS>MOLECULE
*****
 35 37 0 0 0
SMALL
GASTEIGER

@<TRIPOS>ATOM
      1 C          -2.8590   -0.0420   -3.6671 C.3     1  UNL11      -0.0221
      2 C          -2.4667   -0.0353   -2.2224 C.ar    1  UNL11       0.0457
      3 C          -1.1208   -0.0181   -1.8555 C.ar    1  UNL11       0.0215
      4 C          -0.6885   -0.0111   -0.5466 C.ar    1  UNL11       0.2241
      5 O           0.5292    0.0046   -0.0503 O.3     1  UNL11      -0.4379
      6 C           1.3471   -0.3280    0.9179 C.ar    1  UNL11       0.1311
      7 C           2.4648    0.3764    1.3056 C.ar    1  UNL11      -0.0192
      8 C           3.2288   -0.1123    2.3538 C.ar    1  UNL11      -0.0576
      9 C           2.9105   -1.2736    3.0189 C.ar    1  UNL11      -0.0494
     10 C           1.7966   -1.9983    2.6510 C.ar    1  UNL11       0.0400
     11 C           1.4761   -3.2346    3.3746 C.2     1  UNL11       0.2416
     12 N           2.5115   -4.0138    3.9514 N.am    1  UNL11      -0.3253
     13 O           0.2967   -3.6246    3.4979 O.2     1  UNL11      -0.2704
     14 C           1.0537   -1.5160    1.6261 C.ar    1  UNL11      -0.0072
     15 N          -1.7184   -0.0228    0.3727 N.ar    1  UNL11      -0.1928
     16 C          -3.0059   -0.0391    0.0720 C.ar    1  UNL11       0.1643
     17 C          -4.0261   -0.0505    1.1135 C.2     1  UNL11       0.0274
     18 C          -4.5883    1.0023    1.6655 C.2     1  UNL11      -0.0429
     19 C          -5.5614    0.5426    2.6682 C.2     1  UNL11      -0.0188
     20 C          -5.4427   -0.7746    2.6312 C.1     1  UNL11      -0.1191
     21 C          -4.6080   -1.2252    1.7318 C.2     1  UNL11      -0.0088
     22 N          -3.3734   -0.0453   -1.2408 N.ar    1  UNL11      -0.2323
     23 H          -2.2597    0.7717   -4.1537 H       1  UNL11       0.0293
     24 H          -2.5988   -0.9942   -4.1546 H       1  UNL11       0.0293
     25 H          -3.9441    0.1899   -3.6993 H       1  UNL11       0.0293
     26 H          -0.3858   -0.0099   -2.6204 H       1  UNL11       0.0689
     27 H           2.7702    1.3026    0.8192 H       1  UNL11       0.0654
     28 H           4.1155    0.4378    2.6683 H       1  UNL11       0.0619
     29 H           3.5368   -1.6199    3.8342 H       1  UNL11       0.0625
     30 H           2.6450   -4.1222    4.9763 H       1  UNL11       0.1453
     31 H           3.1682   -4.4999    3.3188 H       1  UNL11       0.1453
     32 H           0.1753   -2.0887    1.3368 H       1  UNL11       0.0662
     33 H          -4.4265    2.0560    1.4787 H       1  UNL11       0.0631
     34 H          -6.2211    1.0978    3.2943 H       1  UNL11       0.0706
     35 H          -4.4146   -2.2677    1.5178 H       1  UNL11       0.0713
@<TRIPOS>BOND
     1     1     2    1
     2     1    23    1
     3     1    24    1
     4     1    25    1
     5     2     3   ar
     6     3     4   ar
     7     3    26    1
     8     4     5    1
     9     4    15   ar
    10     5     6    1
    11     6     7   ar
    12     7     8   ar
    13     7    27    1
    14     8     9   ar
    15     8    28    1
    16     9    10   ar
    17     9    29    1
    18    10    11    1
    19    10    14   ar
    20    11    12   am
    21    11    13    2
    22    12    30    1
    23    12    31    1
    24    14     6   ar
    25    14    32    1
    26    15    16   ar
    27    16    17    1
    28    16    22   ar
    29    17    18    2
    30    18    19    1
    31    18    33    1
    32    19    20    2
    33    19    34    1
    34    20    21    2
    35    21    17    1
    36    21    35    1
    37    22     2   ar
@<TRIPOS>MOLECULE
*****
 35 37 0 0 0
SMALL
GASTEIGER

@<TRIPOS>ATOM
      1 C          -2.8590   -0.0420   -3.6671 C.3     1  UNL11      -0.0221
      2 C          -2.4667   -0.0353   -2.2224 C.ar    1  UNL11       0.0457
      3 C          -1.1208   -0.0181   -1.8555 C.ar    1  UNL11       0.0215
      4 C          -0.6885   -0.0111   -0.5466 C.ar    1  UNL11       0.2241
      5 O           0.5292    0.0046   -0.0503 O.3     1  UNL11      -0.4379
      6 C           1.3471   -0.3280    0.9179 C.ar    1  UNL11       0.1311
      7 C           1.2270   -1.4340    1.7292 C.ar    1  UNL11      -0.0192
      8 C           2.1812   -1.6447    2.7123 C.ar    1  UNL11      -0.0576
      9 C           3.2415   -0.7897    2.9056 C.ar    1  UNL11      -0.0494
     10 C           3.3854    0.3252    2.1071 C.ar    1  UNL11       0.0400
     11 C           4.5243    1.2237    2.3312 C.2     1  UNL11       0.2416
     12 N           5.0870    1.9478    1.2490 N.am    1  UNL11      -0.3253
     13 O           5.0189    1.3700    3.4680 O.2     1  UNL11      -0.2704
     14 C           2.4501    0.5260    1.1481 C.ar    1  UNL11      -0.0072
     15 N          -1.7184   -0.0228    0.3727 N.ar    1  UNL11      -0.1928
     16 C          -3.0059   -0.0391    0.0720 C.ar    1  UNL11       0.1643
     17 C          -4.0261   -0.0505    1.1135 C.2     1  UNL11       0.0274
     18 C          -4.5641   -1.1156    1.6660 C.2     1  UNL11      -0.0429
     19 C          -5.5474   -0.6778    2.6685 C.2     1  UNL11      -0.0188
     20 C          -5.5157    0.6416    2.5752 C.1     1  UNL11      -0.1191
     21 C          -4.6347    1.1109    1.7312 C.2     1  UNL11      -0.0088
     22 N          -3.3734   -0.0453   -1.2408 N.ar    1  UNL11      -0.2323
     23 H          -2.2597    0.7717   -4.1537 H       1  UNL11       0.0293
     24 H          -2.5988   -0.9942   -4.1546 H       1  UNL11       0.0293
     25 H          -3.9441    0.1899   -3.6993 H       1  UNL11       0.0293
     26 H          -0.3858   -0.0099   -2.6204 H       1  UNL11       0.0689
     27 H           0.4106   -2.1485    1.6268 H       1  UNL11       0.0654
     28 H           2.0953   -2.5172    3.3597 H       1  UNL11       0.0619
     29 H           3.9656   -0.9929    3.6874 H       1  UNL11       0.0625
     30 H           5.0219    2.9806    1.1542 H       1  UNL11       0.1453
     31 H           5.5884    1.4202    0.5155 H       1  UNL11       0.1453
     32 H           2.5647    1.4060    0.5188 H       1  UNL11       0.0662
     33 H          -4.3784   -2.1654    1.4796 H       1  UNL11       0.0631
     34 H          -6.1586   -1.2474    3.3299 H       1  UNL11       0.0706
     35 H          -4.4270    2.1576    1.5540 H       1  UNL11       0.0713
@<TRIPOS>BOND
     1     1     2    1
     2     1    23    1
     3     1    24    1
     4     1    25    1
     5     2     3   ar
     6     3     4   ar
     7     3    26    1
     8     4     5    1
     9     4    15   ar
    10     5     6    1
    11     6     7   ar
    12     7     8   ar
    13     7    27    1
    14     8     9   ar
    15     8    28    1
    16     9    10   ar
    17     9    29    1
    18    10    11    1
    19    10    14   ar
    20    11    12   am
    21    11    13    2
    22    12    30    1
    23    12    31    1
    24    14     6   ar
    25    14    32    1
    26    15    16   ar
    27    16    17    1
    28    16    22   ar
    29    17    18    2
    30    18    19    1
    31    18    33    1
    32    19    20    2
    33    19    34    1
    34    20    21    2
    35    21    17    1
    36    21    35    1
    37    22     2   ar
@<TRIPOS>MOLECULE
*****
 35 37 0 0 0
SMALL
GASTEIGER

@<TRIPOS>ATOM
      1 C          -2.8590   -0.0420   -3.6671 C.3     1  UNL11      -0.0221
      2 C          -2.4667   -0.0353   -2.2224 C.ar    1  UNL11       0.0457
      3 C          -1.1208   -0.0181   -1.8555 C.ar    1  UNL11       0.0215
      4 C          -0.6885   -0.0111   -0.5466 C.ar    1  UNL11       0.2241
      5 O           0.5292    0.0046   -0.0503 O.3     1  UNL11      -0.4379
      6 C           1.3471   -0.3280    0.9179 C.ar    1  UNL11       0.1311
      7 C           1.2270   -1.4340    1.7292 C.ar    1  UNL11      -0.0192
      8 C           2.1812   -1.6447    2.7123 C.ar    1  UNL11      -0.0576
      9 C           3.2415   -0.7897    2.9056 C.ar    1  UNL11      -0.0494
     10 C           3.3854    0.3252    2.1071 C.ar    1  UNL11       0.0400
     11 C           4.5243    1.2237    2.3312 C.2     1  UNL11       0.2416
     12 N           5.0799    1.3630    3.6288 N.am    1  UNL11      -0.3253
     13 O           5.0252    1.8792    1.3943 O.2     1  UNL11      -0.2704
     14 C           2.4501    0.5260    1.1481 C.ar    1  UNL11      -0.0072
     15 N          -1.7184   -0.0228    0.3727 N.ar    1  UNL11      -0.1928
     16 C          -3.0059   -0.0391    0.0720 C.ar    1  UNL11       0.1643
     17 C          -4.0261   -0.0505    1.1135 C.2     1  UNL11       0.0274
     18 C          -5.2182   -0.5993    1.0309 C.2     1  UNL11      -0.0429
     19 C          -5.9243   -0.3803    2.3025 C.2     1  UNL11      -0.0188
     20 C          -5.0644    0.3304    3.0138 C.1     1  UNL11      -0.1191
     21 C          -3.9132    0.5414    2.4317 C.2     1  UNL11      -0.0088
     22 N          -3.3734   -0.0453   -1.2408 N.ar    1  UNL11      -0.2323
     23 H          -2.2597    0.7717   -4.1537 H       1  UNL11       0.0293
     24 H          -2.5988   -0.9942   -4.1546 H       1  UNL11       0.0293
     25 H          -3.9441    0.1899   -3.6993 H       1  UNL11       0.0293
     26 H          -0.3858   -0.0099   -2.6204 H       1  UNL11       0.0689
     27 H           0.4106   -2.1485    1.6268 H       1  UNL11       0.0654
     28 H           2.0953   -2.5172    3.3597 H       1  UNL11       0.0619
     29 H           3.9656   -0.9929    3.6874 H       1  UNL11       0.0625
     30 H           6.0279    1.0240    3.8865 H       1  UNL11       0.1453
     31 H           4.5119    1.8264    4.3571 H       1  UNL11       0.1453
     32 H           2.5647    1.4060    0.5188 H       1  UNL11       0.0662
     33 H          -5.6821   -1.1363    0.2138 H       1  UNL11       0.0631
     34 H          -6.8916   -0.6972    2.6179 H       1  UNL11       0.0706
     35 H          -3.0696    1.0560    2.8717 H       1  UNL11       0.0713
@<TRIPOS>BOND
     1     1     2    1
     2     1    23    1
     3     1    24    1
     4     1    25    1
     5     2     3   ar
     6     3     4   ar
     7     3    26    1
     8     4     5    1
     9     4    15   ar
    10     5     6    1
    11     6     7   ar
    12     7     8   ar
    13     7    27    1
    14     8     9   ar
    15     8    28    1
    16     9    10   ar
    17     9    29    1
    18    10    11    1
    19    10    14   ar
    20    11    12   am
    21    11    13    2
    22    12    30    1
    23    12    31    1
    24    14     6   ar
    25    14    32    1
    26    15    16   ar
    27    16    17    1
    28    16    22   ar
    29    17    18    2
    30    18    19    1
    31    18    33    1
    32    19    20    2
    33    19    34    1
    34    20    21    2
    35    21    17    1
    36    21    35    1
    37    22     2   ar
@<TRIPOS>MOLECULE
*****
 35 37 0 0 0
SMALL
GASTEIGER

@<TRIPOS>ATOM
      1 C          -2.8590   -0.0420   -3.6671 C.3     1  UNL11      -0.0221
      2 C          -2.4667   -0.0353   -2.2224 C.ar    1  UNL11       0.0457
      3 C          -1.1208   -0.0181   -1.8555 C.ar    1  UNL11       0.0215
      4 C          -0.6885   -0.0111   -0.5466 C.ar    1  UNL11       0.2241
      5 O           0.5292    0.0046   -0.0503 O.3     1  UNL11      -0.4379
      6 C           1.3389    0.3614    0.9162 C.ar    1  UNL11       0.1311
      7 C           2.6762    0.6585    0.7779 C.ar    1  UNL11      -0.0192
      8 C           3.3972    1.0211    1.9049 C.ar    1  UNL11      -0.0576
      9 C           2.8250    1.0944    3.1538 C.ar    1  UNL11      -0.0494
     10 C           1.4878    0.8021    3.3202 C.ar    1  UNL11       0.0400
     11 C           0.8983    0.8868    4.6618 C.2     1  UNL11       0.2416
     12 N           1.6944    0.6376    5.8091 N.am    1  UNL11      -0.3253
     13 O          -0.3051    1.1773    4.8225 O.2     1  UNL11      -0.2704
     14 C           0.7882    0.4484    2.2155 C.ar    1  UNL11      -0.0072
     15 N          -1.7184   -0.0228    0.3727 N.ar    1  UNL11      -0.1928
     16 C          -3.0059   -0.0391    0.0720 C.ar    1  UNL11       0.1643
     17 C          -4.0261   -0.0505    1.1135 C.2     1  UNL11       0.0274
     18 C          -4.5883    1.0023    1.6655 C.2     1  UNL11      -0.0429
     19 C          -5.5614    0.5426    2.6682 C.2     1  UNL11      -0.0188
     20 C          -5.4427   -0.7746    2.6312 C.1     1  UNL11      -0.1191
     21 C          -4.6080   -1.2252    1.7318 C.2     1  UNL11      -0.0088
     22 N          -3.3734   -0.0453   -1.2408 N.ar    1  UNL11      -0.2323
     23 H          -2.2597    0.7717   -4.1537 H       1  UNL11       0.0293
     24 H          -2.5988   -0.9942   -4.1546 H       1  UNL11       0.0293
     25 H          -3.9441    0.1899   -3.6993 H       1  UNL11       0.0293
     26 H          -0.3858   -0.0099   -2.6204 H       1  UNL11       0.0689
     27 H           3.1877    0.6190   -0.1835 H       1  UNL11       0.0654
     28 H           4.4563    1.2582    1.8062 H       1  UNL11       0.0619
     29 H           3.4268    1.3826    4.0092 H       1  UNL11       0.0625
     30 H           1.9541    1.3715    6.4976 H       1  UNL11       0.1453
     31 H           2.0343   -0.3249    5.9690 H       1  UNL11       0.1453
     32 H          -0.2667    0.2180    2.3481 H       1  UNL11       0.0662
     33 H          -4.4265    2.0560    1.4787 H       1  UNL11       0.0631
     34 H          -6.2211    1.0978    3.2943 H       1  UNL11       0.0706
     35 H          -4.4146   -2.2677    1.5178 H       1  UNL11       0.0713
@<TRIPOS>BOND
     1     1     2    1
     2     1    23    1
     3     1    24    1
     4     1    25    1
     5     2     3   ar
     6     3     4   ar
     7     3    26    1
     8     4     5    1
     9     4    15   ar
    10     5     6    1
    11     6     7   ar
    12     7     8   ar
    13     7    27    1
    14     8     9   ar
    15     8    28    1
    16     9    10   ar
    17     9    29    1
    18    10    11    1
    19    10    14   ar
    20    11    12   am
    21    11    13    2
    22    12    30    1
    23    12    31    1
    24    14     6   ar
    25    14    32    1
    26    15    16   ar
    27    16    17    1
    28    16    22   ar
    29    17    18    2
    30    18    19    1
    31    18    33    1
    32    19    20    2
    33    19    34    1
    34    20    21    2
    35    21    17    1
    36    21    35    1
    37    22     2   ar
@<TRIPOS>MOLECULE
*****
 35 37 0 0 0
SMALL
GASTEIGER

@<TRIPOS>ATOM
      1 C          -2.8590   -0.0420   -3.6671 C.3     1  UNL11      -0.0221
      2 C          -2.4667   -0.0353   -2.2224 C.ar    1  UNL11       0.0457
      3 C          -1.1208   -0.0181   -1.8555 C.ar    1  UNL11       0.0215
      4 C          -0.6885   -0.0111   -0.5466 C.ar    1  UNL11       0.2241
      5 O           0.5292    0.0046   -0.0503 O.3     1  UNL11      -0.4379
      6 C           1.3471   -0.3280    0.9179 C.ar    1  UNL11       0.1311
      7 C           2.6904   -0.0314    0.9749 C.ar    1  UNL11      -0.0192
      8 C           3.4198   -0.4574    2.0739 C.ar    1  UNL11      -0.0576
      9 C           2.8502   -1.1646    3.1073 C.ar    1  UNL11      -0.0494
     10 C           1.5071   -1.4748    3.0754 C.ar    1  UNL11       0.0400
     11 C           0.9205   -2.2302    4.1889 C.2     1  UNL11       0.2416
     12 N           1.7117   -3.1501    4.9237 N.am    1  UNL11      -0.3253
     13 O          -0.2762   -2.0819    4.5118 O.2     1  UNL11      -0.2704
     14 C           0.7993   -1.0560    1.9991 C.ar    1  UNL11      -0.0072
     15 N          -1.7184   -0.0228    0.3727 N.ar    1  UNL11      -0.1928
     16 C          -3.0059   -0.0391    0.0720 C.ar    1  UNL11       0.1643
     17 C          -4.0261   -0.0505    1.1135 C.2     1  UNL11       0.0274
     18 C          -5.2304    0.4709    1.0307 C.2     1  UNL11      -0.0429
     19 C          -5.9314    0.2364    2.3024 C.2     1  UNL11      -0.0188
     20 C          -5.0276   -0.3852    3.0421 C.1     1  UNL11      -0.1191
     21 C          -3.8997   -0.6391    2.4320 C.2     1  UNL11      -0.0088
     22 N          -3.3734   -0.0453   -1.2408 N.ar    1  UNL11      -0.2323
     23 H          -2.2597    0.7717   -4.1537 H       1  UNL11       0.0293
     24 H          -2.5988   -0.9942   -4.1546 H       1  UNL11       0.0293
     25 H          -3.9441    0.1899   -3.6993 H       1  UNL11       0.0293
     26 H          -0.3858   -0.0099   -2.6204 H       1  UNL11       0.0689
     27 H           3.2003    0.5251    0.1888 H       1  UNL11       0.0654
     28 H           4.4838   -0.2278    2.1286 H       1  UNL11       0.0619
     29 H           3.4587   -1.4787    3.9488 H       1  UNL11       0.0625
     30 H           1.9878   -3.0054    5.9151 H       1  UNL11       0.1453
     31 H           2.0308   -4.0100    4.4479 H       1  UNL11       0.1453
     32 H          -0.2602   -1.3014    1.9751 H       1  UNL11       0.0662
     33 H          -5.7065    0.9969    0.2133 H       1  UNL11       0.0631
     34 H          -6.9232    0.4879    2.5999 H       1  UNL11       0.0706
     35 H          -3.0633   -1.1803    2.8533 H       1  UNL11       0.0713
@<TRIPOS>BOND
     1     1     2    1
     2     1    23    1
     3     1    24    1
     4     1    25    1
     5     2     3   ar
     6     3     4   ar
     7     3    26    1
     8     4     5    1
     9     4    15   ar
    10     5     6    1
    11     6     7   ar
    12     7     8   ar
    13     7    27    1
    14     8     9   ar
    15     8    28    1
    16     9    10   ar
    17     9    29    1
    18    10    11    1
    19    10    14   ar
    20    11    12   am
    21    11    13    2
    22    12    30    1
    23    12    31    1
    24    14     6   ar
    25    14    32    1
    26    15    16   ar
    27    16    17    1
    28    16    22   ar
    29    17    18    2
    30    18    19    1
    31    18    33    1
    32    19    20    2
    33    19    34    1
    34    20    21    2
    35    21    17    1
    36    21    35    1
    37    22     2   ar
@<TRIPOS>MOLECULE
*****
 35 37 0 0 0
SMALL
GASTEIGER

@<TRIPOS>ATOM
      1 C          -2.8590   -0.0420   -3.6671 C.3     1  UNL11      -0.0221
      2 C          -2.4667   -0.0353   -2.2224 C.ar    1  UNL11       0.0457
      3 C          -1.1208   -0.0181   -1.8555 C.ar    1  UNL11       0.0215
      4 C          -0.6885   -0.0111   -0.5466 C.ar    1  UNL11       0.2241
      5 O           0.5292    0.0046   -0.0503 O.3     1  UNL11      -0.4379
      6 C           1.3471   -0.3280    0.9179 C.ar    1  UNL11       0.1311
      7 C           2.6904   -0.5970    0.7806 C.ar    1  UNL11      -0.0192
      8 C           3.4198   -0.9361    1.9094 C.ar    1  UNL11      -0.0576
      9 C           2.8503   -1.0134    3.1592 C.ar    1  UNL11      -0.0494
     10 C           1.5072   -0.7489    3.3247 C.ar    1  UNL11       0.0400
     11 C           0.9205   -0.8374    4.6674 C.2     1  UNL11       0.2416
     12 N           1.7126   -0.5666    5.8125 N.am    1  UNL11      -0.3253
     13 O          -0.2771   -1.1498    4.8307 O.2     1  UNL11      -0.2704
     14 C           0.7993   -0.4180    2.2182 C.ar    1  UNL11      -0.0072
     15 N          -1.7184   -0.0228    0.3727 N.ar    1  UNL11      -0.1928
     16 C          -3.0059   -0.0391    0.0720 C.ar    1  UNL11       0.1643
     17 C          -4.0261   -0.0505    1.1135 C.2     1  UNL11       0.0274
     18 C          -5.2304    0.4709    1.0307 C.2     1  UNL11      -0.0429
     19 C          -5.9314    0.2364    2.3024 C.2     1  UNL11      -0.0188
     20 C          -5.0276   -0.3852    3.0421 C.1     1  UNL11      -0.1191
     21 C          -3.8997   -0.6391    2.4320 C.2     1  UNL11      -0.0088
     22 N          -3.3734   -0.0453   -1.2408 N.ar    1  UNL11      -0.2323
     23 H          -2.2597    0.7717   -4.1537 H       1  UNL11       0.0293
     24 H          -2.5988   -0.9942   -4.1546 H       1  UNL11       0.0293
     25 H          -3.9441    0.1899   -3.6993 H       1  UNL11       0.0293
     26 H          -0.3858   -0.0099   -2.6204 H       1  UNL11       0.0689
     27 H           3.2003   -0.5530   -0.1816 H       1  UNL11       0.0654
     28 H           4.4838   -1.1509    1.8114 H       1  UNL11       0.0619
     29 H           3.4587   -1.2827    4.0161 H       1  UNL11       0.0625
     30 H           1.5711    0.2606    6.4255 H       1  UNL11       0.1453
     31 H           2.4709   -1.2270    6.0501 H       1  UNL11       0.1453
     32 H          -0.2602   -0.2096    2.3501 H       1  UNL11       0.0662
     33 H          -5.7065    0.9969    0.2133 H       1  UNL11       0.0631
     34 H          -6.9232    0.4879    2.5999 H       1  UNL11       0.0706
     35 H          -3.0633   -1.1803    2.8533 H       1  UNL11       0.0713
@<TRIPOS>BOND
     1     1     2    1
     2     1    23    1
     3     1    24    1
     4     1    25    1
     5     2     3   ar
     6     3     4   ar
     7     3    26    1
     8     4     5    1
     9     4    15   ar
    10     5     6    1
    11     6     7   ar
    12     7     8   ar
    13     7    27    1
    14     8     9   ar
    15     8    28    1
    16     9    10   ar
    17     9    29    1
    18    10    11    1
    19    10    14   ar
    20    11    12   am
    21    11    13    2
    22    12    30    1
    23    12    31    1
    24    14     6   ar
    25    14    32    1
    26    15    16   ar
    27    16    17    1
    28    16    22   ar
    29    17    18    2
    30    18    19    1
    31    18    33    1
    32    19    20    2
    33    19    34    1
    34    20    21    2
    35    21    17    1
    36    21    35    1
    37    22     2   ar
@<TRIPOS>MOLECULE
*****
 35 37 0 0 0
SMALL
GASTEIGER

@<TRIPOS>ATOM
      1 C          -2.8590   -0.0420   -3.6671 C.3     1  UNL11      -0.0221
      2 C          -2.4667   -0.0353   -2.2224 C.ar    1  UNL11       0.0457
      3 C          -1.1208   -0.0181   -1.8555 C.ar    1  UNL11       0.0215
      4 C          -0.6885   -0.0111   -0.5466 C.ar    1  UNL11       0.2241
      5 O           0.5292    0.0046   -0.0503 O.3     1  UNL11      -0.4379
      6 C           1.3389    0.3614    0.9162 C.ar    1  UNL11       0.1311
      7 C           2.6933    0.1181    0.9631 C.ar    1  UNL11      -0.0192
      8 C           3.4116    0.5637    2.0616 C.ar    1  UNL11      -0.0576
      9 C           2.8205    1.2388    3.1043 C.ar    1  UNL11      -0.0494
     10 C           1.4659    1.4957    3.0825 C.ar    1  UNL11       0.0400
     11 C           0.8563    2.2175    4.2058 C.2     1  UNL11       0.2416
     12 N           1.6155    3.1595    4.9463 N.am    1  UNL11      -0.3253
     13 O          -0.3326    2.0212    4.5320 O.2     1  UNL11      -0.2704
     14 C           0.7690    1.0579    2.0066 C.ar    1  UNL11      -0.0072
     15 N          -1.7184   -0.0228    0.3727 N.ar    1  UNL11      -0.1928
     16 C          -3.0059   -0.0391    0.0720 C.ar    1  UNL11       0.1643
     17 C          -4.0261   -0.0505    1.1135 C.2     1  UNL11       0.0274
     18 C          -5.2182   -0.5993    1.0309 C.2     1  UNL11      -0.0429
     19 C          -5.9243   -0.3803    2.3025 C.2     1  UNL11      -0.0188
     20 C          -5.0644    0.3304    3.0138 C.1     1  UNL11      -0.1191
     21 C          -3.9132    0.5414    2.4317 C.2     1  UNL11      -0.0088
     22 N          -3.3734   -0.0453   -1.2408 N.ar    1  UNL11      -0.2323
     23 H          -2.2597    0.7717   -4.1537 H       1  UNL11       0.0293
     24 H          -2.5988   -0.9942   -4.1546 H       1  UNL11       0.0293
     25 H          -3.9441    0.1899   -3.6993 H       1  UNL11       0.0293
     26 H          -0.3858   -0.0099   -2.6204 H       1  UNL11       0.0689
     27 H           3.2203   -0.4111    0.1695 H       1  UNL11       0.0654
     28 H           4.4842    0.3762    2.1084 H       1  UNL11       0.0619
     29 H           3.4209    1.5698    3.9450 H       1  UNL11       0.0625
     30 H           1.4330    4.1825    4.9312 H       1  UNL11       0.1453
     31 H           2.3917    2.8100    5.5321 H       1  UNL11       0.1453
     32 H          -0.2996    1.2611    1.9906 H       1  UNL11       0.0662
     33 H          -5.6821   -1.1363    0.2138 H       1  UNL11       0.0631
     34 H          -6.8916   -0.6972    2.6179 H       1  UNL11       0.0706
     35 H          -3.0696    1.0560    2.8717 H       1  UNL11       0.0713
@<TRIPOS>BOND
     1     1     2    1
     2     1    23    1
     3     1    24    1
     4     1    25    1
     5     2     3   ar
     6     3     4   ar
     7     3    26    1
     8     4     5    1
     9     4    15   ar
    10     5     6    1
    11     6     7   ar
    12     7     8   ar
    13     7    27    1
    14     8     9   ar
    15     8    28    1
    16     9    10   ar
    17     9    29    1
    18    10    11    1
    19    10    14   ar
    20    11    12   am
    21    11    13    2
    22    12    30    1
    23    12    31    1
    24    14     6   ar
    25    14    32    1
    26    15    16   ar
    27    16    17    1
    28    16    22   ar
    29    17    18    2
    30    18    19    1
    31    18    33    1
    32    19    20    2
    33    19    34    1
    34    20    21    2
    35    21    17    1
    36    21    35    1
    37    22     2   ar
@<TRIPOS>MOLECULE
*****
 35 37 0 0 0
SMALL
GASTEIGER

@<TRIPOS>ATOM
      1 C          -2.8590   -0.0420   -3.6671 C.3     1  UNL11      -0.0221
      2 C          -2.4667   -0.0353   -2.2224 C.ar    1  UNL11       0.0457
      3 C          -1.1208   -0.0181   -1.8555 C.ar    1  UNL11       0.0215
      4 C          -0.6885   -0.0111   -0.5466 C.ar    1  UNL11       0.2241
      5 O           0.5292    0.0046   -0.0503 O.3     1  UNL11      -0.4379
      6 C           1.8226    0.0194   -0.2598 C.ar    1  UNL11       0.1311
      7 C           2.4690   -0.5294   -1.3445 C.ar    1  UNL11      -0.0192
      8 C           3.8495   -0.4281   -1.4177 C.ar    1  UNL11      -0.0576
      9 C           4.5948    0.2000   -0.4469 C.ar    1  UNL11      -0.0494
     10 C           3.9726    0.7582    0.6497 C.ar    1  UNL11       0.0400
     11 C           4.7876    1.4235    1.6733 C.2     1  UNL11       0.2416
     12 N           4.3647    1.4350    3.0272 N.am    1  UNL11      -0.3253
     13 O           5.8611    1.9886    1.3789 O.2     1  UNL11      -0.2704
     14 C           2.6235    0.6562    0.7159 C.ar    1  UNL11      -0.0072
     15 N          -1.7184   -0.0228    0.3727 N.ar    1  UNL11      -0.1928
     16 C          -3.0059   -0.0391    0.0720 C.ar    1  UNL11       0.1643
     17 C          -4.0261   -0.0505    1.1135 C.2     1  UNL11       0.0274
     18 C          -4.5883    1.0023    1.6655 C.2     1  UNL11      -0.0429
     19 C          -5.5614    0.5426    2.6682 C.2     1  UNL11      -0.0188
     20 C          -5.4427   -0.7746    2.6312 C.1     1  UNL11      -0.1191
     21 C          -4.6080   -1.2252    1.7318 C.2     1  UNL11      -0.0088
     22 N          -3.3734   -0.0453   -1.2408 N.ar    1  UNL11      -0.2323
     23 H          -2.2597    0.7717   -4.1537 H       1  UNL11       0.0293
     24 H          -2.5988   -0.9942   -4.1546 H       1  UNL11       0.0293
     25 H          -3.9441    0.1899   -3.6993 H       1  UNL11       0.0293
     26 H          -0.3858   -0.0099   -2.6204 H       1  UNL11       0.0689
     27 H           1.9359   -1.0398   -2.1463 H       1  UNL11       0.0654
     28 H           4.3707   -0.8593   -2.2721 H       1  UNL11       0.0619
     29 H           5.6738    0.2564   -0.5442 H       1  UNL11       0.0625
     30 H           4.8543    0.9201    3.7857 H       1  UNL11       0.1453
     31 H           3.5250    1.9848    3.2728 H       1  UNL11       0.1453
     32 H           2.1338    1.0970    1.5816 H       1  UNL11       0.0662
     33 H          -4.4265    2.0560    1.4787 H       1  UNL11       0.0631
     34 H          -6.2211    1.0978    3.2943 H       1  UNL11       0.0706
     35 H          -4.4146   -2.2677    1.5178 H       1  UNL11       0.0713
@<TRIPOS>BOND
     1     1     2    1
     2     1    23    1
     3     1    24    1
     4     1    25    1
     5     2     3   ar
     6     3     4   ar
     7     3    26    1
     8     4     5    1
     9     4    15   ar
    10     5     6    1
    11     6     7   ar
    12     7     8   ar
    13     7    27    1
    14     8     9   ar
    15     8    28    1
    16     9    10   ar
    17     9    29    1
    18    10    11    1
    19    10    14   ar
    20    11    12   am
    21    11    13    2
    22    12    30    1
    23    12    31    1
    24    14     6   ar
    25    14    32    1
    26    15    16   ar
    27    16    17    1
    28    16    22   ar
    29    17    18    2
    30    18    19    1
    31    18    33    1
    32    19    20    2
    33    19    34    1
    34    20    21    2
    35    21    17    1
    36    21    35    1
    37    22     2   ar
@<TRIPOS>MOLECULE
*****
 35 37 0 0 0
SMALL
GASTEIGER

@<TRIPOS>ATOM
      1 C          -2.8590   -0.0420   -3.6671 C.3     1  UNL11      -0.0221
      2 C          -2.4667   -0.0353   -2.2224 C.ar    1  UNL11       0.0457
      3 C          -1.1208   -0.0181   -1.8555 C.ar    1  UNL11       0.0215
      4 C          -0.6885   -0.0111   -0.5466 C.ar    1  UNL11       0.2241
      5 O           0.5292    0.0046   -0.0503 O.3     1  UNL11      -0.4379
      6 C           1.7929   -0.3182   -0.1763 C.ar    1  UNL11       0.1311
      7 C           2.3492   -0.9947   -1.2386 C.ar    1  UNL11      -0.0192
      8 C           3.7096   -1.2600   -1.2196 C.ar    1  UNL11      -0.0576
      9 C           4.5216   -0.8722   -0.1791 C.ar    1  UNL11      -0.0494
     10 C           3.9902   -0.1933    0.8970 C.ar    1  UNL11       0.0400
     11 C           4.8752    0.2107    1.9961 C.2     1  UNL11       0.2416
     12 N           6.2418    0.4961    1.7451 N.am    1  UNL11      -0.3253
     13 O           4.4499    0.3117    3.1655 O.2     1  UNL11      -0.2704
     14 C           2.6603    0.0632    0.8731 C.ar    1  UNL11      -0.0072
     15 N          -1.7184   -0.0228    0.3727 N.ar    1  UNL11      -0.1928
     16 C          -3.0059   -0.0391    0.0720 C.ar    1  UNL11       0.1643
     17 C          -4.0261   -0.0505    1.1135 C.2     1  UNL11       0.0274
     18 C          -4.5641   -1.1156    1.6660 C.2     1  UNL11      -0.0429
     19 C          -5.5474   -0.6778    2.6685 C.2     1  UNL11      -0.0188
     20 C          -5.5157    0.6416    2.5752 C.1     1  UNL11      -0.1191
     21 C          -4.6347    1.1109    1.7312 C.2     1  UNL11      -0.0088
     22 N          -3.3734   -0.0453   -1.2408 N.ar    1  UNL11      -0.2323
     23 H          -2.2597    0.7717   -4.1537 H       1  UNL11       0.0293
     24 H          -2.5988   -0.9942   -4.1546 H       1  UNL11       0.0293
     25 H          -3.9441    0.1899   -3.6993 H       1  UNL11       0.0293
     26 H          -0.3858   -0.0099   -2.6204 H       1  UNL11       0.0689
     27 H           1.7601   -1.3286   -2.0924 H       1  UNL11       0.0654
     28 H           4.1597   -1.7949   -2.0557 H       1  UNL11       0.0619
     29 H           5.5818   -1.1007   -0.2051 H       1  UNL11       0.0625
     30 H           6.6528    1.4475    1.8220 H       1  UNL11       0.1453
     31 H           6.8620   -0.2836    1.4710 H       1  UNL11       0.1453
     32 H           2.2423    0.5988    1.7227 H       1  UNL11       0.0662
     33 H          -4.3784   -2.1654    1.4796 H       1  UNL11       0.0631
     34 H          -6.1586   -1.2474    3.3299 H       1  UNL11       0.0706
     35 H          -4.4270    2.1576    1.5540 H       1  UNL11       0.0713
@<TRIPOS>BOND
     1     1     2    1
     2     1    23    1
     3     1    24    1
     4     1    25    1
     5     2     3   ar
     6     3     4   ar
     7     3    26    1
     8     4     5    1
     9     4    15   ar
    10     5     6    1
    11     6     7   ar
    12     7     8   ar
    13     7    27    1
    14     8     9   ar
    15     8    28    1
    16     9    10   ar
    17     9    29    1
    18    10    11    1
    19    10    14   ar
    20    11    12   am
    21    11    13    2
    22    12    30    1
    23    12    31    1
    24    14     6   ar
    25    14    32    1
    26    15    16   ar
    27    16    17    1
    28    16    22   ar
    29    17    18    2
    30    18    19    1
    31    18    33    1
    32    19    20    2
    33    19    34    1
    34    20    21    2
    35    21    17    1
    36    21    35    1
    37    22     2   ar
@<TRIPOS>MOLECULE
*****
 35 37 0 0 0
SMALL
GASTEIGER

@<TRIPOS>ATOM
      1 C          -2.8590   -0.0420   -3.6671 C.3     1  UNL11      -0.0221
      2 C          -2.4667   -0.0353   -2.2224 C.ar    1  UNL11       0.0457
      3 C          -1.1208   -0.0181   -1.8555 C.ar    1  UNL11       0.0215
      4 C          -0.6885   -0.0111   -0.5466 C.ar    1  UNL11       0.2241
      5 O           0.5292    0.0046   -0.0503 O.3     1  UNL11      -0.4379
      6 C           1.3471   -0.3280    0.9179 C.ar    1  UNL11       0.1311
      7 C           2.6904   -0.5970    0.7806 C.ar    1  UNL11      -0.0192
      8 C           3.4198   -0.9361    1.9094 C.ar    1  UNL11      -0.0576
      9 C           2.8503   -1.0134    3.1592 C.ar    1  UNL11      -0.0494
     10 C           1.5072   -0.7489    3.3247 C.ar    1  UNL11       0.0400
     11 C           0.9205   -0.8374    4.6674 C.2     1  UNL11       0.2416
     12 N           1.4576   -1.7366    5.6239 N.am    1  UNL11      -0.3253
     13 O          -0.0547   -0.1303    4.9951 O.2     1  UNL11      -0.2704
     14 C           0.7993   -0.4180    2.2182 C.ar    1  UNL11      -0.0072
     15 N          -1.7184   -0.0228    0.3727 N.ar    1  UNL11      -0.1928
     16 C          -3.0059   -0.0391    0.0720 C.ar    1  UNL11       0.1643
     17 C          -4.0261   -0.0505    1.1135 C.2     1  UNL11       0.0274
     18 C          -3.8151   -0.0478    2.4114 C.2     1  UNL11      -0.0429
     19 C          -5.1158   -0.0625    3.0980 C.2     1  UNL11      -0.0188
     20 C          -5.9880   -0.1124    2.1044 C.1     1  UNL11      -0.1191
     21 C          -5.4609   -0.0669    0.9090 C.2     1  UNL11      -0.0088
     22 N          -3.3734   -0.0453   -1.2408 N.ar    1  UNL11      -0.2323
     23 H          -2.2597    0.7717   -4.1537 H       1  UNL11       0.0293
     24 H          -2.5988   -0.9942   -4.1546 H       1  UNL11       0.0293
     25 H          -3.9441    0.1899   -3.6993 H       1  UNL11       0.0293
     26 H          -0.3858   -0.0099   -2.6204 H       1  UNL11       0.0689
     27 H           3.2003   -0.5530   -0.1816 H       1  UNL11       0.0654
     28 H           4.4838   -1.1509    1.8114 H       1  UNL11       0.0619
     29 H           3.4587   -1.2827    4.0161 H       1  UNL11       0.0625
     30 H           1.9567   -1.4303    6.4825 H       1  UNL11       0.1453
     31 H           1.3467   -2.7505    5.4585 H       1  UNL11       0.1453
     32 H          -0.2602   -0.2096    2.3501 H       1  UNL11       0.0662
     33 H          -2.8854   -0.0371    2.9654 H       1  UNL11       0.0631
     34 H          -5.3472   -0.0399    4.1379 H       1  UNL11       0.0706
     35 H          -6.0113   -0.0468   -0.0220 H       1  UNL11       0.0713
@<TRIPOS>BOND
     1     1     2    1
     2     1    23    1
     3     1    24    1
     4     1    25    1
     5     2     3   ar
     6     3     4   ar
     7     3    26    1
     8     4     5    1
     9     4    15   ar
    10     5     6    1
    11     6     7   ar
    12     7     8   ar
    13     7    27    1
    14     8     9   ar
    15     8    28    1
    16     9    10   ar
    17     9    29    1
    18    10    11    1
    19    10    14   ar
    20    11    12   am
    21    11    13    2
    22    12    30    1
    23    12    31    1
    24    14     6   ar
    25    14    32    1
    26    15    16   ar
    27    16    17    1
    28    16    22   ar
    29    17    18    2
    30    18    19    1
    31    18    33    1
    32    19    20    2
    33    19    34    1
    34    20    21    2
    35    21    17    1
    36    21    35    1
    37    22     2   ar
@<TRIPOS>MOLECULE
*****
 35 37 0 0 0
SMALL
GASTEIGER

@<TRIPOS>ATOM
      1 C          -2.8590   -0.0420   -3.6671 C.3     1  UNL11      -0.0221
      2 C          -2.4667   -0.0353   -2.2224 C.ar    1  UNL11       0.0457
      3 C          -1.1208   -0.0181   -1.8555 C.ar    1  UNL11       0.0215
      4 C          -0.6885   -0.0111   -0.5466 C.ar    1  UNL11       0.2241
      5 O           0.5292    0.0046   -0.0503 O.3     1  UNL11      -0.4379
      6 C           1.8226    0.0194   -0.2598 C.ar    1  UNL11       0.1311
      7 C           2.4556    0.5754   -1.3488 C.ar    1  UNL11      -0.0192
      8 C           3.8382    0.5070   -1.4212 C.ar    1  UNL11      -0.0576
      9 C           4.5984   -0.0953   -0.4457 C.ar    1  UNL11      -0.0494
     10 C           3.9898   -0.6598    0.6554 C.ar    1  UNL11       0.0400
     11 C           4.8206   -1.2972    1.6840 C.2     1  UNL11       0.2416
     12 N           6.1420   -0.8391    1.9203 N.am    1  UNL11      -0.3253
     13 O           4.3876   -2.2477    2.3678 O.2     1  UNL11      -0.2704
     14 C           2.6386   -0.5900    0.7209 C.ar    1  UNL11      -0.0072
     15 N          -1.7184   -0.0228    0.3727 N.ar    1  UNL11      -0.1928
     16 C          -3.0059   -0.0391    0.0720 C.ar    1  UNL11       0.1643
     17 C          -4.0261   -0.0505    1.1135 C.2     1  UNL11       0.0274
     18 C          -5.2182   -0.5993    1.0309 C.2     1  UNL11      -0.0429
     19 C          -5.9243   -0.3803    2.3025 C.2     1  UNL11      -0.0188
     20 C          -5.0644    0.3304    3.0138 C.1     1  UNL11      -0.1191
     21 C          -3.9132    0.5414    2.4317 C.2     1  UNL11      -0.0088
     22 N          -3.3734   -0.0453   -1.2408 N.ar    1  UNL11      -0.2323
     23 H          -2.2597    0.7717   -4.1537 H       1  UNL11       0.0293
     24 H          -2.5988   -0.9942   -4.1546 H       1  UNL11       0.0293
     25 H          -3.9441    0.1899   -3.6993 H       1  UNL11       0.0293
     26 H          -0.3858   -0.0099   -2.6204 H       1  UNL11       0.0689
     27 H           1.9104    1.0663   -2.1546 H       1  UNL11       0.0654
     28 H           4.3489    0.9440   -2.2791 H       1  UNL11       0.0619
     29 H           5.6785   -0.1263   -0.5426 H       1  UNL11       0.0625
     30 H           6.4345   -0.3563    2.7929 H       1  UNL11       0.1453
     31 H           6.8521   -0.9935    1.1857 H       1  UNL11       0.1453
     32 H           2.1596   -1.0357    1.5900 H       1  UNL11       0.0662
     33 H          -5.6821   -1.1363    0.2138 H       1  UNL11       0.0631
     34 H          -6.8916   -0.6972    2.6179 H       1  UNL11       0.0706
     35 H          -3.0696    1.0560    2.8717 H       1  UNL11       0.0713
@<TRIPOS>BOND
     1     1     2    1
     2     1    23    1
     3     1    24    1
     4     1    25    1
     5     2     3   ar
     6     3     4   ar
     7     3    26    1
     8     4     5    1
     9     4    15   ar
    10     5     6    1
    11     6     7   ar
    12     7     8   ar
    13     7    27    1
    14     8     9   ar
    15     8    28    1
    16     9    10   ar
    17     9    29    1
    18    10    11    1
    19    10    14   ar
    20    11    12   am
    21    11    13    2
    22    12    30    1
    23    12    31    1
    24    14     6   ar
    25    14    32    1
    26    15    16   ar
    27    16    17    1
    28    16    22   ar
    29    17    18    2
    30    18    19    1
    31    18    33    1
    32    19    20    2
    33    19    34    1
    34    20    21    2
    35    21    17    1
    36    21    35    1
    37    22     2   ar
@<TRIPOS>MOLECULE
*****
 35 37 0 0 0
SMALL
GASTEIGER

@<TRIPOS>ATOM
      1 C          -2.8590   -0.0420   -3.6671 C.3     1  UNL11      -0.0221
      2 C          -2.4667   -0.0353   -2.2224 C.ar    1  UNL11       0.0457
      3 C          -1.1208   -0.0181   -1.8555 C.ar    1  UNL11       0.0215
      4 C          -0.6885   -0.0111   -0.5466 C.ar    1  UNL11       0.2241
      5 O           0.5292    0.0046   -0.0503 O.3     1  UNL11      -0.4379
      6 C           1.3389    0.3614    0.9162 C.ar    1  UNL11       0.1311
      7 C           2.6933    0.1181    0.9631 C.ar    1  UNL11      -0.0192
      8 C           3.4116    0.5637    2.0616 C.ar    1  UNL11      -0.0576
      9 C           2.8205    1.2388    3.1043 C.ar    1  UNL11      -0.0494
     10 C           1.4659    1.4957    3.0825 C.ar    1  UNL11       0.0400
     11 C           0.8563    2.2175    4.2058 C.2     1  UNL11       0.2416
     12 N          -0.5373    2.4821    4.2132 N.am    1  UNL11      -0.3253
     13 O           1.5432    2.6112    5.1710 O.2     1  UNL11      -0.2704
     14 C           0.7690    1.0579    2.0066 C.ar    1  UNL11      -0.0072
     15 N          -1.7184   -0.0228    0.3727 N.ar    1  UNL11      -0.1928
     16 C          -3.0059   -0.0391    0.0720 C.ar    1  UNL11       0.1643
     17 C          -4.0261   -0.0505    1.1135 C.2     1  UNL11       0.0274
     18 C          -4.5883    1.0023    1.6655 C.2     1  UNL11      -0.0429
     19 C          -5.5614    0.5426    2.6682 C.2     1  UNL11      -0.0188
     20 C          -5.4427   -0.7746    2.6312 C.1     1  UNL11      -0.1191
     21 C          -4.6080   -1.2252    1.7318 C.2     1  UNL11      -0.0088
     22 N          -3.3734   -0.0453   -1.2408 N.ar    1  UNL11      -0.2323
     23 H          -2.2597    0.7717   -4.1537 H       1  UNL11       0.0293
     24 H          -2.5988   -0.9942   -4.1546 H       1  UNL11       0.0293
     25 H          -3.9441    0.1899   -3.6993 H       1  UNL11       0.0293
     26 H          -0.3858   -0.0099   -2.6204 H       1  UNL11       0.0689
     27 H           3.2203   -0.4111    0.1695 H       1  UNL11       0.0654
     28 H           4.4842    0.3762    2.1084 H       1  UNL11       0.0619
     29 H           3.4209    1.5698    3.9450 H       1  UNL11       0.0625
     30 H          -1.2019    2.0394    4.8783 H       1  UNL11       0.1453
     31 H          -0.9119    3.1508    3.5202 H       1  UNL11       0.1453
     32 H          -0.2996    1.2611    1.9906 H       1  UNL11       0.0662
     33 H          -4.4265    2.0560    1.4787 H       1  UNL11       0.0631
     34 H          -6.2211    1.0978    3.2943 H       1  UNL11       0.0706
     35 H          -4.4146   -2.2677    1.5178 H       1  UNL11       0.0713
@<TRIPOS>BOND
     1     1     2    1
     2     1    23    1
     3     1    24    1
     4     1    25    1
     5     2     3   ar
     6     3     4   ar
     7     3    26    1
     8     4     5    1
     9     4    15   ar
    10     5     6    1
    11     6     7   ar
    12     7     8   ar
    13     7    27    1
    14     8     9   ar
    15     8    28    1
    16     9    10   ar
    17     9    29    1
    18    10    11    1
    19    10    14   ar
    20    11    12   am
    21    11    13    2
    22    12    30    1
    23    12    31    1
    24    14     6   ar
    25    14    32    1
    26    15    16   ar
    27    16    17    1
    28    16    22   ar
    29    17    18    2
    30    18    19    1
    31    18    33    1
    32    19    20    2
    33    19    34    1
    34    20    21    2
    35    21    17    1
    36    21    35    1
    37    22     2   ar
@<TRIPOS>MOLECULE
*****
 35 37 0 0 0
SMALL
GASTEIGER

@<TRIPOS>ATOM
      1 C          -2.8590   -0.0420   -3.6671 C.3     1  UNL11      -0.0221
      2 C          -2.4667   -0.0353   -2.2224 C.ar    1  UNL11       0.0457
      3 C          -1.1208   -0.0181   -1.8555 C.ar    1  UNL11       0.0215
      4 C          -0.6885   -0.0111   -0.5466 C.ar    1  UNL11       0.2241
      5 O           0.5292    0.0046   -0.0503 O.3     1  UNL11      -0.4379
      6 C           1.3078    0.0081    1.0036 C.ar    1  UNL11       0.1311
      7 C           2.5526    0.5910    1.0832 C.ar    1  UNL11      -0.0192
      8 C           3.2522    0.5056    2.2768 C.ar    1  UNL11      -0.0576
      9 C           2.7479   -0.1398    3.3821 C.ar    1  UNL11      -0.0494
     10 C           1.5038   -0.7320    3.3294 C.ar    1  UNL11       0.0400
     11 C           0.9855   -1.4152    4.5207 C.2     1  UNL11       0.2416
     12 N           0.1075   -2.5211    4.3850 N.am    1  UNL11      -0.3253
     13 O           1.3023   -1.0427    5.6693 O.2     1  UNL11      -0.2704
     14 C           0.8247   -0.6453    2.1606 C.ar    1  UNL11      -0.0072
     15 N          -1.7184   -0.0228    0.3727 N.ar    1  UNL11      -0.1928
     16 C          -3.0059   -0.0391    0.0720 C.ar    1  UNL11       0.1643
     17 C          -4.0261   -0.0505    1.1135 C.2     1  UNL11       0.0274
     18 C          -4.5883    1.0023    1.6655 C.2     1  UNL11      -0.0429
     19 C          -5.5614    0.5426    2.6682 C.2     1  UNL11      -0.0188
     20 C          -5.4427   -0.7746    2.6312 C.1     1  UNL11      -0.1191
     21 C          -4.6080   -1.2252    1.7318 C.2     1  UNL11      -0.0088
     22 N          -3.3734   -0.0453   -1.2408 N.ar    1  UNL11      -0.2323
     23 H          -2.2597    0.7717   -4.1537 H       1  UNL11       0.0293
     24 H          -2.5988   -0.9942   -4.1546 H       1  UNL11       0.0293
     25 H          -3.9441    0.1899   -3.6993 H       1  UNL11       0.0293
     26 H          -0.3858   -0.0099   -2.6204 H       1  UNL11       0.0689
     27 H           3.0072    1.1163    0.2436 H       1  UNL11       0.0654
     28 H           4.2384    0.9636    2.3502 H       1  UNL11       0.0619
     29 H           3.3298   -0.1829    4.2966 H       1  UNL11       0.0625
     30 H           0.3677   -3.4947    4.6388 H       1  UNL11       0.1453
     31 H          -0.8414   -2.3496    4.0139 H       1  UNL11       0.1453
     32 H          -0.1567   -1.1130    2.1203 H       1  UNL11       0.0662
     33 H          -4.4265    2.0560    1.4787 H       1  UNL11       0.0631
     34 H          -6.2211    1.0978    3.2943 H       1  UNL11       0.0706
     35 H          -4.4146   -2.2677    1.5178 H       1  UNL11       0.0713
@<TRIPOS>BOND
     1     1     2    1
     2     1    23    1
     3     1    24    1
     4     1    25    1
     5     2     3   ar
     6     3     4   ar
     7     3    26    1
     8     4     5    1
     9     4    15   ar
    10     5     6    1
    11     6     7   ar
    12     7     8   ar
    13     7    27    1
    14     8     9   ar
    15     8    28    1
    16     9    10   ar
    17     9    29    1
    18    10    11    1
    19    10    14   ar
    20    11    12   am
    21    11    13    2
    22    12    30    1
    23    12    31    1
    24    14     6   ar
    25    14    32    1
    26    15    16   ar
    27    16    17    1
    28    16    22   ar
    29    17    18    2
    30    18    19    1
    31    18    33    1
    32    19    20    2
    33    19    34    1
    34    20    21    2
    35    21    17    1
    36    21    35    1
    37    22     2   ar
@<TRIPOS>MOLECULE
*****
 35 37 0 0 0
SMALL
GASTEIGER

@<TRIPOS>ATOM
      1 C          -2.8590   -0.0420   -3.6671 C.3     1  UNL11      -0.0221
      2 C          -2.4667   -0.0353   -2.2224 C.ar    1  UNL11       0.0457
      3 C          -1.1208   -0.0181   -1.8555 C.ar    1  UNL11       0.0215
      4 C          -0.6885   -0.0111   -0.5466 C.ar    1  UNL11       0.2241
      5 O           0.5292    0.0046   -0.0503 O.3     1  UNL11      -0.4379
      6 C           1.7929   -0.3182   -0.1763 C.ar    1  UNL11       0.1311
      7 C           2.3492   -0.9947   -1.2386 C.ar    1  UNL11      -0.0192
      8 C           3.7096   -1.2600   -1.2196 C.ar    1  UNL11      -0.0576
      9 C           4.5216   -0.8722   -0.1791 C.ar    1  UNL11      -0.0494
     10 C           3.9902   -0.1933    0.8970 C.ar    1  UNL11       0.0400
     11 C           4.8752    0.2107    1.9961 C.2     1  UNL11       0.2416
     12 N           4.5933    1.3803    2.7475 N.am    1  UNL11      -0.3253
     13 O           5.8863   -0.4591    2.2922 O.2     1  UNL11      -0.2704
     14 C           2.6603    0.0632    0.8731 C.ar    1  UNL11      -0.0072
     15 N          -1.7184   -0.0228    0.3727 N.ar    1  UNL11      -0.1928
     16 C          -3.0059   -0.0391    0.0720 C.ar    1  UNL11       0.1643
     17 C          -4.0261   -0.0505    1.1135 C.2     1  UNL11       0.0274
     18 C          -5.2304    0.4709    1.0307 C.2     1  UNL11      -0.0429
     19 C          -5.9314    0.2364    2.3024 C.2     1  UNL11      -0.0188
     20 C          -5.0276   -0.3852    3.0421 C.1     1  UNL11      -0.1191
     21 C          -3.8997   -0.6391    2.4320 C.2     1  UNL11      -0.0088
     22 N          -3.3734   -0.0453   -1.2408 N.ar    1  UNL11      -0.2323
     23 H          -2.2597    0.7717   -4.1537 H       1  UNL11       0.0293
     24 H          -2.5988   -0.9942   -4.1546 H       1  UNL11       0.0293
     25 H          -3.9441    0.1899   -3.6993 H       1  UNL11       0.0293
     26 H          -0.3858   -0.0099   -2.6204 H       1  UNL11       0.0689
     27 H           1.7601   -1.3286   -2.0924 H       1  UNL11       0.0654
     28 H           4.1597   -1.7949   -2.0557 H       1  UNL11       0.0619
     29 H           5.5818   -1.1007   -0.2051 H       1  UNL11       0.0625
     30 H           4.3023    1.3652    3.7451 H       1  UNL11       0.1453
     31 H           4.6819    2.2965    2.2780 H       1  UNL11       0.1453
     32 H           2.2423    0.5988    1.7227 H       1  UNL11       0.0662
     33 H          -5.7065    0.9969    0.2133 H       1  UNL11       0.0631
     34 H          -6.9232    0.4879    2.5999 H       1  UNL11       0.0706
     35 H          -3.0633   -1.1803    2.8533 H       1  UNL11       0.0713
@<TRIPOS>BOND
     1     1     2    1
     2     1    23    1
     3     1    24    1
     4     1    25    1
     5     2     3   ar
     6     3     4   ar
     7     3    26    1
     8     4     5    1
     9     4    15   ar
    10     5     6    1
    11     6     7   ar
    12     7     8   ar
    13     7    27    1
    14     8     9   ar
    15     8    28    1
    16     9    10   ar
    17     9    29    1
    18    10    11    1
    19    10    14   ar
    20    11    12   am
    21    11    13    2
    22    12    30    1
    23    12    31    1
    24    14     6   ar
    25    14    32    1
    26    15    16   ar
    27    16    17    1
    28    16    22   ar
    29    17    18    2
    30    18    19    1
    31    18    33    1
    32    19    20    2
    33    19    34    1
    34    20    21    2
    35    21    17    1
    36    21    35    1
    37    22     2   ar
@<TRIPOS>MOLECULE
*****
 35 37 0 0 0
SMALL
GASTEIGER

@<TRIPOS>ATOM
      1 C          -2.8590   -0.0420   -3.6671 C.3     1  UNL11      -0.0221
      2 C          -2.4667   -0.0353   -2.2224 C.ar    1  UNL11       0.0457
      3 C          -1.1208   -0.0181   -1.8555 C.ar    1  UNL11       0.0215
      4 C          -0.6885   -0.0111   -0.5466 C.ar    1  UNL11       0.2241
      5 O           0.5292    0.0046   -0.0503 O.3     1  UNL11      -0.4379
      6 C           1.3078    0.0081    1.0036 C.ar    1  UNL11       0.1311
      7 C           0.9973    0.5459    2.2325 C.ar    1  UNL11      -0.0192
      8 C           1.9357    0.4672    3.2495 C.ar    1  UNL11      -0.0576
      9 C           3.1637   -0.1278    3.0749 C.ar    1  UNL11      -0.0494
     10 C           3.5001   -0.6743    1.8544 C.ar    1  UNL11       0.0400
     11 C           4.8158   -1.3042    1.6906 C.2     1  UNL11       0.2416
     12 N           5.9250   -0.8497    2.4490 N.am    1  UNL11      -0.3253
     13 O           4.9871   -2.2451    0.8882 O.2     1  UNL11      -0.2704
     14 C           2.5792   -0.5946    0.8642 C.ar    1  UNL11      -0.0072
     15 N          -1.7184   -0.0228    0.3727 N.ar    1  UNL11      -0.1928
     16 C          -3.0059   -0.0391    0.0720 C.ar    1  UNL11       0.1643
     17 C          -4.0261   -0.0505    1.1135 C.2     1  UNL11       0.0274
     18 C          -4.5641   -1.1156    1.6660 C.2     1  UNL11      -0.0429
     19 C          -5.5474   -0.6778    2.6685 C.2     1  UNL11      -0.0188
     20 C          -5.5157    0.6416    2.5752 C.1     1  UNL11      -0.1191
     21 C          -4.6347    1.1109    1.7312 C.2     1  UNL11      -0.0088
     22 N          -3.3734   -0.0453   -1.2408 N.ar    1  UNL11      -0.2323
     23 H          -2.2597    0.7717   -4.1537 H       1  UNL11       0.0293
     24 H          -2.5988   -0.9942   -4.1546 H       1  UNL11       0.0293
     25 H          -3.9441    0.1899   -3.6993 H       1  UNL11       0.0293
     26 H          -0.3858   -0.0099   -2.6204 H       1  UNL11       0.0689
     27 H           0.0422    1.0304    2.4344 H       1  UNL11       0.0654
     28 H           1.6997    0.8899    4.2260 H       1  UNL11       0.0619
     29 H           3.8686   -0.1673    3.8986 H       1  UNL11       0.0625
     30 H           6.3807   -1.4136    3.1936 H       1  UNL11       0.1453
     31 H           6.3001    0.0924    2.2507 H       1  UNL11       0.1453
     32 H           2.8458   -1.0261   -0.0981 H       1  UNL11       0.0662
     33 H          -4.3784   -2.1654    1.4796 H       1  UNL11       0.0631
     34 H          -6.1586   -1.2474    3.3299 H       1  UNL11       0.0706
     35 H          -4.4270    2.1576    1.5540 H       1  UNL11       0.0713
@<TRIPOS>BOND
     1     1     2    1
     2     1    23    1
     3     1    24    1
     4     1    25    1
     5     2     3   ar
     6     3     4   ar
     7     3    26    1
     8     4     5    1
     9     4    15   ar
    10     5     6    1
    11     6     7   ar
    12     7     8   ar
    13     7    27    1
    14     8     9   ar
    15     8    28    1
    16     9    10   ar
    17     9    29    1
    18    10    11    1
    19    10    14   ar
    20    11    12   am
    21    11    13    2
    22    12    30    1
    23    12    31    1
    24    14     6   ar
    25    14    32    1
    26    15    16   ar
    27    16    17    1
    28    16    22   ar
    29    17    18    2
    30    18    19    1
    31    18    33    1
    32    19    20    2
    33    19    34    1
    34    20    21    2
    35    21    17    1
    36    21    35    1
    37    22     2   ar
@<TRIPOS>MOLECULE
*****
 35 37 0 0 0
SMALL
GASTEIGER

@<TRIPOS>ATOM
      1 C          -2.8590   -0.0420   -3.6671 C.3     1  UNL11      -0.0221
      2 C          -2.4667   -0.0353   -2.2224 C.ar    1  UNL11       0.0457
      3 C          -1.1208   -0.0181   -1.8555 C.ar    1  UNL11       0.0215
      4 C          -0.6885   -0.0111   -0.5466 C.ar    1  UNL11       0.2241
      5 O           0.5292    0.0046   -0.0503 O.3     1  UNL11      -0.4379
      6 C           1.7929   -0.3182   -0.1763 C.ar    1  UNL11       0.1311
      7 C           2.8590    0.3868    0.3358 C.ar    1  UNL11      -0.0192
      8 C           4.1410   -0.0908    0.1132 C.ar    1  UNL11      -0.0576
      9 C           4.3853   -1.2416   -0.5999 C.ar    1  UNL11      -0.0494
     10 C           3.3359   -1.9666   -1.1236 C.ar    1  UNL11       0.0400
     11 C           3.6198   -3.1915   -1.8811 C.2     1  UNL11       0.2416
     12 N           2.6905   -4.2631   -1.8813 N.am    1  UNL11      -0.3253
     13 O           4.6751   -3.3169   -2.5361 O.2     1  UNL11      -0.2704
     14 C           2.0852   -1.4953   -0.9028 C.ar    1  UNL11      -0.0072
     15 N          -1.7184   -0.0228    0.3727 N.ar    1  UNL11      -0.1928
     16 C          -3.0059   -0.0391    0.0720 C.ar    1  UNL11       0.1643
     17 C          -4.0261   -0.0505    1.1135 C.2     1  UNL11       0.0274
     18 C          -4.5641   -1.1156    1.6660 C.2     1  UNL11      -0.0429
     19 C          -5.5474   -0.6778    2.6685 C.2     1  UNL11      -0.0188
     20 C          -5.5157    0.6416    2.5752 C.1     1  UNL11      -0.1191
     21 C          -4.6347    1.1109    1.7312 C.2     1  UNL11      -0.0088
     22 N          -3.3734   -0.0453   -1.2408 N.ar    1  UNL11      -0.2323
     23 H          -2.2597    0.7717   -4.1537 H       1  UNL11       0.0293
     24 H          -2.5988   -0.9942   -4.1546 H       1  UNL11       0.0293
     25 H          -3.9441    0.1899   -3.6993 H       1  UNL11       0.0293
     26 H          -0.3858   -0.0099   -2.6204 H       1  UNL11       0.0689
     27 H           2.7319    1.3050    0.9089 H       1  UNL11       0.0654
     28 H           4.9917    0.4598    0.5142 H       1  UNL11       0.0619
     29 H           5.4052   -1.5794   -0.7504 H       1  UNL11       0.0625
     30 H           2.1469   -4.5510   -2.7189 H       1  UNL11       0.1453
     31 H           2.5462   -4.7856   -1.0016 H       1  UNL11       0.1453
     32 H           1.2582   -2.0682   -1.3165 H       1  UNL11       0.0662
     33 H          -4.3784   -2.1654    1.4796 H       1  UNL11       0.0631
     34 H          -6.1586   -1.2474    3.3299 H       1  UNL11       0.0706
     35 H          -4.4270    2.1576    1.5540 H       1  UNL11       0.0713
@<TRIPOS>BOND
     1     1     2    1
     2     1    23    1
     3     1    24    1
     4     1    25    1
     5     2     3   ar
     6     3     4   ar
     7     3    26    1
     8     4     5    1
     9     4    15   ar
    10     5     6    1
    11     6     7   ar
    12     7     8   ar
    13     7    27    1
    14     8     9   ar
    15     8    28    1
    16     9    10   ar
    17     9    29    1
    18    10    11    1
    19    10    14   ar
    20    11    12   am
    21    11    13    2
    22    12    30    1
    23    12    31    1
    24    14     6   ar
    25    14    32    1
    26    15    16   ar
    27    16    17    1
    28    16    22   ar
    29    17    18    2
    30    18    19    1
    31    18    33    1
    32    19    20    2
    33    19    34    1
    34    20    21    2
    35    21    17    1
    36    21    35    1
    37    22     2   ar
@<TRIPOS>MOLECULE
*****
 35 37 0 0 0
SMALL
GASTEIGER

@<TRIPOS>ATOM
      1 C          -2.8590   -0.0420   -3.6671 C.3     1  UNL11      -0.0221
      2 C          -2.4667   -0.0353   -2.2224 C.ar    1  UNL11       0.0457
      3 C          -1.1208   -0.0181   -1.8555 C.ar    1  UNL11       0.0215
      4 C          -0.6885   -0.0111   -0.5466 C.ar    1  UNL11       0.2241
      5 O           0.5292    0.0046   -0.0503 O.3     1  UNL11      -0.4379
      6 C           1.3078    0.0081    1.0036 C.ar    1  UNL11       0.1311
      7 C           2.5526    0.5910    1.0832 C.ar    1  UNL11      -0.0192
      8 C           3.2522    0.5056    2.2768 C.ar    1  UNL11      -0.0576
      9 C           2.7479   -0.1398    3.3821 C.ar    1  UNL11      -0.0494
     10 C           1.5038   -0.7320    3.3294 C.ar    1  UNL11       0.0400
     11 C           0.9855   -1.4152    4.5207 C.2     1  UNL11       0.2416
     12 N           1.7585   -1.4649    5.7090 N.am    1  UNL11      -0.3253
     13 O          -0.1364   -1.9628    4.5157 O.2     1  UNL11      -0.2704
     14 C           0.8247   -0.6453    2.1606 C.ar    1  UNL11      -0.0072
     15 N          -1.7184   -0.0228    0.3727 N.ar    1  UNL11      -0.1928
     16 C          -3.0059   -0.0391    0.0720 C.ar    1  UNL11       0.1643
     17 C          -4.0261   -0.0505    1.1135 C.2     1  UNL11       0.0274
     18 C          -3.9201    0.4749    2.3143 C.2     1  UNL11      -0.0429
     19 C          -5.1763    0.2387    3.0420 C.2     1  UNL11      -0.0188
     20 C          -5.9037   -0.4567    2.1831 C.1     1  UNL11      -0.1191
     21 C          -5.3451   -0.6435    1.0162 C.2     1  UNL11      -0.0088
     22 N          -3.3734   -0.0453   -1.2408 N.ar    1  UNL11      -0.2323
     23 H          -2.2597    0.7717   -4.1537 H       1  UNL11       0.0293
     24 H          -2.5988   -0.9942   -4.1546 H       1  UNL11       0.0293
     25 H          -3.9441    0.1899   -3.6993 H       1  UNL11       0.0293
     26 H          -0.3858   -0.0099   -2.6204 H       1  UNL11       0.0689
     27 H           3.0072    1.1163    0.2436 H       1  UNL11       0.0654
     28 H           4.2384    0.9636    2.3502 H       1  UNL11       0.0619
     29 H           3.3298   -0.1829    4.2966 H       1  UNL11       0.0625
     30 H           1.5005   -0.9646    6.5827 H       1  UNL11       0.1453
     31 H           2.6245   -2.0284    5.7061 H       1  UNL11       0.1453
     32 H          -0.1567   -1.1130    2.1203 H       1  UNL11       0.0662
     33 H          -3.0947    1.0047    2.7718 H       1  UNL11       0.0631
     34 H          -5.4723    0.5356    4.0217 H       1  UNL11       0.0706
     35 H          -5.8013   -1.1424    0.1718 H       1  UNL11       0.0713
@<TRIPOS>BOND
     1     1     2    1
     2     1    23    1
     3     1    24    1
     4     1    25    1
     5     2     3   ar
     6     3     4   ar
     7     3    26    1
     8     4     5    1
     9     4    15   ar
    10     5     6    1
    11     6     7   ar
    12     7     8   ar
    13     7    27    1
    14     8     9   ar
    15     8    28    1
    16     9    10   ar
    17     9    29    1
    18    10    11    1
    19    10    14   ar
    20    11    12   am
    21    11    13    2
    22    12    30    1
    23    12    31    1
    24    14     6   ar
    25    14    32    1
    26    15    16   ar
    27    16    17    1
    28    16    22   ar
    29    17    18    2
    30    18    19    1
    31    18    33    1
    32    19    20    2
    33    19    34    1
    34    20    21    2
    35    21    17    1
    36    21    35    1
    37    22     2   ar
